96
Energy =
C     3.0654333   -0.0644380   -0.0772971 
C     2.6720921   -1.3286012   -0.6080465 
C     2.1000084   -1.4367156   -1.8968854 
H     2.7010574   -2.2085933    0.0470880 
Pd    0.8627962   -0.0944746   -0.4946151 
P    -1.2211906   -1.0294433   -1.0994244 
P     0.3200360    1.8277796    0.8057812 
H     3.4059953    0.7034305   -0.7871768 
H     2.2446105   -0.5827716   -2.5771443 
C     4.6184510    0.2709273    3.9242442 
C     3.4845188   -0.5210005    3.6780790 
C     2.9738035   -0.6286562    2.3808487 
C     3.5792277    0.0592720    1.3041044 
C     4.7109224    0.8584391    1.5674098 
C     5.2293323    0.9571270    2.8646950 
H     5.0200170    0.3553532    4.9393187 
H     2.9948278   -1.0511110    4.5016974 
H     2.0778517   -1.2325015    2.1966243 
H     5.1882124    1.4029320    0.7463762 
H     6.1103158    1.5803060    3.0493012 
C     0.9701359   -5.0442797   -3.9369548 
C     0.8260904   -3.7951690   -4.5587673 
C     1.1902395   -2.6292160   -3.8772416 
C     1.6931198   -2.6847728   -2.5559121 
C     1.8253433   -3.9522580   -1.9404854 
C     1.4730511   -5.1166617   -2.6271622 
H     0.6958833   -5.9599584   -4.4708754 
H     0.4392034   -3.7289468   -5.5807224 
H     1.0905676   -1.6596848   -4.3745014 
H     2.2177912   -4.0332305   -0.9230982 
H     1.5893355   -6.0883978   -2.1375641 
O    -2.1702961    1.5656824   -0.9038710 
C    -0.6880448    3.1998732    0.0615722 
C    -2.6072662   -0.5466645   -0.0012224 
C    -1.8463882    2.8931268   -0.6836733 
C    -2.8708555    0.8369289    0.0382477 
C    -0.6010249    1.4430498    2.3497256 
C     1.8092852    2.7589802    1.3564044 
C    -1.8411674   -0.6797273   -2.7885446 
C    -1.1692049   -2.8550772   -0.8891593 
C    -0.3651683    4.5638058    0.2313093 
C    -3.3149321   -1.3962241    0.8674626 
C    -2.6385249    3.8861039   -1.2700845 
C    -3.7717886    1.3915838    0.9521128 
C    -1.1612096    5.5684964   -0.3368875 
C    -4.2361636   -0.8572800    1.7771868 
C    -0.7299111    0.1062949    2.7670624 
C     2.6268157    3.3392746    0.3615670 
C    -3.1446765   -1.0521277   -3.1759640 
C    -0.6006708   -3.3450808    0.3078686 
C    -1.1792615    2.4720006    3.1228606 
C     2.1482204    2.9186198    2.7116173 
C    -1.0273023    0.0369994   -3.6849955 
C    -1.6864069   -3.7658742   -1.8277854 
C    -2.2925138    5.2324660   -1.0944766 
C    -4.4475796    0.5293738    1.8283089 
C    -1.4230253   -0.2034897    3.9448481 
C     3.7406500    4.1061389    0.7230041 
C    -3.6066814   -0.7453572   -4.4631140 
C    -0.5900457   -4.7186646    0.5800031 
C    -1.8656450    2.1597238    4.3025853 
C     3.2744147    3.6773765    3.0668452 
C    -1.4938207    0.3464305   -4.9697126 
C    -1.6648382   -5.1417497   -1.5553188 
C    -1.9887702    0.8227502    4.7145422 
C     4.0624958    4.2821573    2.0789118 
C    -2.7806939   -0.0521926   -5.3621965 
C    -1.1304411   -5.6199091   -0.3506645 
H     0.5184742    4.8443062    0.8112251 
H    -3.1304531   -2.4746163    0.8448052 
H    -3.5118087    3.5848506   -1.8555824 
H    -3.9326793    2.4729556    0.9807648 
H    -0.8896360    6.6183420   -0.1891364 
H    -4.7809147   -1.5202933    2.4561348 
H    -0.2992037   -0.6900829    2.1514513 
H     2.3746676    3.2110147   -0.6980956 
H    -3.8016965   -1.5685686   -2.4672955 
H    -0.1685199   -2.6421058    1.0305300 
H    -1.0968665    3.5150331    2.7990747 
H     1.5393684    2.4520880    3.4912687 
H    -0.0342891    0.3693812   -3.3618501 
H    -2.0940022   -3.4082987   -2.7773387 
H    -2.9072627    6.0163686   -1.5480745 
H    -5.1509984    0.9491579    2.5543658 
H    -1.5295578   -1.2480625    4.2543179 
H     4.3588346    4.5674946   -0.0542366 
H    -4.6179171   -1.0404122   -4.7619434 
H    -0.1562695   -5.0860482    1.5159197 
H    -2.3110889    2.9618998    4.9000810 
H     3.5342955    3.7909940    4.1240736 
H    -0.8565879    0.9070396   -5.6616502 
H    -2.0646997   -5.8427038   -2.2951041 
H    -2.5329563    0.5816662    5.6335960 
H     4.9343785    4.8808474    2.3618347 
H    -3.1466771    0.1899302   -6.3653856 
H    -1.1225768   -6.6946804   -0.1418191 
