96
Energy =
C     1.2201233   -2.7472215   -0.9845051 
C     2.3497712   -1.8922553   -0.8055415 
C     2.7223964   -1.4393401    0.4801879 
H     2.8621597   -1.4970385   -1.6926945 
Pd    0.5884774   -0.8041449   -0.0812733 
P     0.7866842    1.4103626    0.7352303 
P    -1.7756461   -1.0335457   -0.2379408 
H     0.9724751   -3.4451091   -0.1709945 
H     2.3370349   -2.0140616    1.3367089 
C    -0.0026008   -3.9658298   -4.9279268 
C     0.2751748   -2.6124176   -4.6679860 
C     0.6748438   -2.2115421   -3.3888246 
C     0.7906817   -3.1533210   -2.3399260 
C     0.4998155   -4.5068980   -2.6119884 
C     0.1174032   -4.9105833   -3.8980646 
H    -0.3125194   -4.2800073   -5.9299073 
H     0.1729935   -1.8685483   -5.4650018 
H     0.8582601   -1.1500720   -3.1826301 
H     0.5733788   -5.2456217   -1.8070072 
H    -0.0963540   -5.9664948   -4.0940846 
C     6.1457293    0.9447732    1.4964559 
C     5.6331102    0.9997227    0.1892807 
C     4.5122119    0.2417415   -0.1607810 
C     3.8722885   -0.5809160    0.7956929 
C     4.3883519   -0.6109113    2.1119554 
C     5.5196011    0.1359460    2.4562637 
H     7.0283438    1.5344566    1.7648866 
H     6.1133563    1.6341741   -0.5626970 
H     4.1317724    0.2957773   -1.1840415 
H     3.8963230   -1.2328552    2.8671622 
H     5.9075731    0.0933716    3.4786460 
O    -1.3205518    1.8261632   -1.0901051 
C    -2.7057490   -0.0968567   -1.5327992 
C    -0.7350990    2.3573384    1.1347249 
C    -2.3160995    1.2249803   -1.8457838 
C    -1.6837048    2.4503940    0.0970268 
C    -2.3957758   -2.7609401   -0.4262953 
C    -2.4859497   -0.5089304    1.3754805 
C     1.8211059    1.6300478    2.2384145 
C     1.5319928    2.4655951   -0.5778496 
C    -3.7661950   -0.6571877   -2.2771516 
C    -1.0191579    2.9729227    2.3666134 
C    -2.8869094    1.9332828   -2.9086723 
C    -2.8857253    3.1470933    0.2613845 
C    -4.3683595    0.0568507   -3.3223630 
C    -2.2252678    3.6654322    2.5485102 
C    -2.3299202   -3.3973129   -1.6856492 
C    -1.7676821   -0.8329930    2.5453493 
C     1.4724522    0.8786008    3.3818130 
C     1.6083267    3.8647292   -0.4193270 
C    -2.9153612   -3.4727282    0.6761433 
C    -3.7182853    0.1598998    1.4817181 
C     2.9225905    2.5037731    2.2988579 
C     1.9591407    1.8831010   -1.7847935 
C    -3.9157186    1.3420082   -3.6545309 
C    -3.1499663    3.7537631    1.4978082 
C    -2.7983604   -4.7092498   -1.8384407 
C    -2.2722964   -0.4873457    3.8050544 
C     2.1904360    1.0276229    4.5749823 
C     2.1460069    4.6584686   -1.4416418 
C    -3.3629029   -4.7917341    0.5183824 
C    -4.2123090    0.5192490    2.7438985 
C     3.6418883    2.6444775    3.4947115 
C     2.4916962    2.6784426   -2.8081026 
C    -3.3115878   -5.4115166   -0.7387594 
C    -3.4932173    0.1979085    3.9041995 
C     3.2745510    1.9173605    4.6352279 
C     2.5931543    4.0668182   -2.6337121 
H    -4.1218966   -1.6637477   -2.0412891 
H    -0.2952565    2.9083297    3.1845691 
H    -2.5234903    2.9420785   -3.1246044 
H    -3.6058208    3.2034817   -0.5594115 
H    -5.1897835   -0.3998131   -3.8830457 
H    -2.4393616    4.1385733    3.5115819 
H    -1.9295356   -2.8674556   -2.5550901 
H    -0.8120210   -1.3663538    2.4604125 
H     0.6255327    0.1868618    3.3385556 
H     1.2369397    4.3346404    0.4980617 
H    -2.9867694   -2.9963796    1.6580551 
H    -4.2855424    0.4106832    0.5796953 
H     3.2350374    3.0627990    1.4129530 
H     1.8498588    0.8009735   -1.9231544 
H    -4.3714683    1.8914966   -4.4843634 
H    -4.0888912    4.2992138    1.6373858 
H    -2.7501817   -5.1822233   -2.8241795 
H    -1.7110863   -0.7470071    4.7088044 
H     1.9036878    0.4477176    5.4586152 
H     2.2075790    5.7438181   -1.3104073 
H    -3.7668696   -5.3301939    1.3819579 
H    -5.1638624    1.0552564    2.8189033 
H     4.5012706    3.3218627    3.5277642 
H     2.8193715    2.2155137   -3.7448796 
H    -3.6735918   -6.4375257   -0.8613695 
H    -3.8841775    0.4811417    4.8868127 
H     3.8378325    2.0343660    5.5668173 
H     3.0080927    4.6907730   -3.4321288 
