96
Energy =
C     1.7345465   -2.5245785    0.8061055 
C     2.7045224   -1.4818813    0.9518844 
C     2.5301002   -0.4678992    1.9188971 
H     3.5171397   -1.4034025    0.2184077 
Pd    0.7709960   -0.5692750    0.4459010 
P     0.2270002    1.7406680    0.3211814 
P    -1.2594744   -1.3708243   -0.4044422 
H     1.2021034   -2.8497511    1.7120008 
H     1.8094100   -0.6685503    2.7274421 
C     2.0134098   -5.4899154   -2.3031714 
C     2.3755887   -4.1594142   -2.5727422 
C     2.2829972   -3.1896954   -1.5693890 
C     1.8224740   -3.5279747   -0.2752064 
C     1.4535358   -4.8657801   -0.0223159 
C     1.5534418   -5.8380098   -1.0252911 
H     2.0863424   -6.2492860   -3.0885039 
H     2.7295048   -3.8786775   -3.5703794 
H     2.5563574   -2.1510262   -1.7911560 
H     1.0896686   -5.1442461    0.9718127 
H     1.2640335   -6.8710318   -0.8078619 
C     5.0728576    2.9016924    2.7175320 
C     3.8695649    2.7251187    3.4170129 
C     3.0645508    1.6111911    3.1562628 
C     3.4341404    0.6618310    2.1755423 
C     4.6616008    0.8407123    1.4954203 
C     5.4704427    1.9481051    1.7653743 
H     5.7068660    3.7704512    2.9219279 
H     3.5589758    3.4539894    4.1728101 
H     2.1309616    1.4713783    3.7112795 
H     4.9916628    0.1067401    0.7531218 
H     6.4190019    2.0697560    1.2323839 
O    -1.2789706    0.1615461    2.2459232 
C    -2.7007838   -0.8969988    0.6455492 
C    -0.1567817    2.2672718    2.0479138 
C    -2.5665314   -0.1019106    1.8064176 
C    -0.8980212    1.3615497    2.8407077 
C    -1.5763671   -0.7632499   -2.1118604 
C    -1.5104872   -3.1906204   -0.5319548 
C     1.5541383    2.8434727   -0.3008331 
C    -1.2170452    2.3227806   -0.6642876 
C    -3.9959259   -1.3360488    0.2887490 
C     0.3299576    3.4393551    2.6566741 
C    -3.6964694    0.3352417    2.5162366 
C    -1.1183731    1.5886821    4.2047227 
C    -5.1263935   -0.9141907    0.9960161 
C     0.0797138    3.6959536    4.0124314 
C    -2.8300181   -0.3654116   -2.6104617 
C    -1.7660440   -3.9125556    0.6539505 
C     2.7686694    2.2732693   -0.7211061 
C    -2.4746407    2.5795777   -0.0877223 
C    -0.4569727   -0.7609363   -2.9730095 
C    -1.4476596   -3.8738742   -1.7606818 
C     1.3526961    4.2351470   -0.4421382 
C    -1.0381080    2.5155523   -2.0514654 
C    -4.9728107   -0.0559680    2.0957583 
C    -0.6351229    2.7705157    4.7867103 
C    -2.9642556    0.0014361   -3.9568683 
C    -1.9862496   -5.2944309    0.6032521 
C     3.7876652    3.0833875   -1.2423540 
C    -3.5430835    3.0100798   -0.8885528 
C    -0.5978349   -0.3988278   -4.3188717 
C    -1.6625205   -5.2592835   -1.8023764 
C     2.3752225    5.0413350   -0.9557484 
C    -2.1013865    2.9657461   -2.8411115 
C    -1.8554706   -0.0228991   -4.8150168 
C    -1.9403475   -5.9698675   -0.6266570 
C     3.5952948    4.4670326   -1.3511311 
C    -3.3581398    3.2080610   -2.2636027 
H    -4.1102583   -2.0245945   -0.5549842 
H     0.9365678    4.1405954    2.0774757 
H    -3.5750150    0.9712699    3.3964777 
H    -1.6471898    0.8387666    4.7996075 
H    -6.1205321   -1.2573891    0.6945760 
H     0.4652712    4.6125966    4.4693775 
H    -3.6996932   -0.3088860   -1.9515953 
H    -1.8155839   -3.3884279    1.6155070 
H     2.9048966    1.1892918   -0.6453217 
H    -2.6237687    2.4705633    0.9898438 
H     0.5251912   -1.0493276   -2.5811753 
H    -1.2420254   -3.3294028   -2.6869153 
H     0.3891291    4.6817595   -0.1737465 
H    -0.0637472    2.3243620   -2.5125316 
H    -5.8497569    0.2882762    2.6534457 
H    -0.8082855    2.9586411    5.8510466 
H    -3.9423223    0.3191718   -4.3322250 
H    -2.1988068   -5.8444995    1.5259964 
H     4.7317516    2.6310486   -1.5622229 
H    -4.5164663    3.2074365   -0.4276612 
H     0.2758748   -0.4078816   -4.9788481 
H    -1.6134095   -5.7822640   -2.7627518 
H     2.2165706    6.1196988   -1.0599142 
H    -1.9490553    3.1193074   -3.9138452 
H    -1.9683685    0.2618690   -5.8662590 
H    -2.1169751   -7.0496811   -0.6661818 
H     4.3906107    5.1007115   -1.7571571 
H    -4.1894699    3.5566540   -2.8850602 
