96
Energy =
C     2.1258247   -2.1377106    0.8014575 
C     2.2624127   -2.0561433   -0.6001805 
C     2.6225131   -0.8371218   -1.2382066 
H     2.0148253   -2.9293275   -1.2151982 
Pd    0.6563012   -0.5794468   -0.1575387 
P     0.2167432    1.4568169   -1.2756369 
P    -1.0974818   -0.5932906    1.4561697 
H     2.5615743   -1.3164053    1.3902651 
H     3.1687781   -0.1001315   -0.6320169 
C     1.7169966   -5.7395643    3.0952698 
C     1.5066543   -5.7794702    1.7064273 
C     1.5893152   -4.6092519    0.9476521 
C     1.8987134   -3.3710861    1.5612796 
C     2.0856774   -3.3450883    2.9634231 
C     1.9982191   -4.5162427    3.7219347 
H     1.6566602   -6.6592488    3.6861383 
H     1.2810975   -6.7308603    1.2136770 
H     1.4257533   -4.6624608   -0.1334585 
H     2.3122193   -2.3929586    3.4555043 
H     2.1499917   -4.4752848    4.8049910 
C     3.2859574   -0.3685167   -5.4636984 
C     3.8580892    0.5206385   -4.5429130 
C     3.6302009    0.3555177   -3.1715266 
C     2.8205173   -0.6989300   -2.6923249 
C     2.2625057   -1.5964579   -3.6332717 
C     2.4924440   -1.4323924   -5.0015272 
H     3.4607662   -0.2398487   -6.5367722 
H     4.4871620    1.3462561   -4.8914895 
H     4.0891163    1.0450619   -2.4556334 
H     1.6299795   -2.4242928   -3.2948183 
H     2.0476642   -2.1338785   -5.7149018 
O    -2.4873781    0.8887993   -0.8520192 
C    -2.8855502   -0.6666820    0.9500035 
C    -0.9456738    2.6225693   -0.4659034 
C    -3.3543255    0.0462598   -0.1757768 
C    -2.2641091    2.1517002   -0.3250302 
C    -1.0520352   -1.9733238    2.6702869 
C    -0.9252887    0.9076948    2.5034442 
C     1.7410149    2.4767376   -1.4280272 
C    -0.4891229    1.2866758   -2.9592958 
C    -3.8181214   -1.4797379    1.6328430 
C    -0.6260431    3.8991569    0.0295729 
C    -4.6629837   -0.0905511   -0.6518607 
C    -3.2626370    2.9235782    0.2780104 
C    -5.1403296   -1.5996535    1.1835929 
C    -1.6134420    4.6795167    0.6486477 
C    -1.2141816   -3.2878001    2.1806822 
C     0.3796637    1.3579768    2.7932726 
C     2.1239505    3.1218015   -2.6190299 
C    -0.6080489    0.0064676   -3.5266576 
C    -0.9549586   -1.7562173    4.0577218 
C    -2.0293001    1.5827086    3.0551164 
C     2.5564642    2.6024839   -0.2820723 
C    -0.9690640    2.4110152   -3.6634948 
C    -5.5605067   -0.9223449    0.0300360 
C    -2.9244459    4.1937189    0.7665438 
C    -1.3329755   -4.3595984    3.0711532 
C     0.5780816    2.4713351    3.6187277 
C     3.2986422    3.8887914   -2.6571378 
C    -1.1634663   -0.1501033   -4.8032978 
C    -1.0526884   -2.8395268    4.9449831 
C    -1.8272749    2.7037472    3.8729814 
C     3.7298267    3.3663666   -0.3250508 
C    -1.5231948    2.2505563   -4.9401971 
C    -1.2558293   -4.1368087    4.4555329 
C    -0.5278407    3.1494895    4.1550322 
C     4.1030926    4.0120351   -1.5156278 
C    -1.6144468    0.9718354   -5.5136320 
H    -3.5059839   -2.0331581    2.5221034 
H     0.3949711    4.2805296   -0.0667759 
H    -4.9556013    0.4671047   -1.5461298 
H    -4.2792369    2.5316532    0.3720758 
H    -5.8397862   -2.2352671    1.7353408 
H    -1.3576632    5.6701543    1.0364673 
H    -1.2767308   -3.4654568    1.1010842 
H     1.2401902    0.8245660    2.3706409 
H     1.5225111    3.0098587   -3.5250419 
H    -0.2779064   -0.8659650   -2.9539322 
H    -0.8261917   -0.7422096    4.4488895 
H    -3.0453057    1.2371548    2.8390206 
H     2.2652585    2.0999567    0.6475337 
H    -0.9230518    3.4067462   -3.2085674 
H    -6.5870828   -1.0317076   -0.3338448 
H    -3.6948259    4.8071115    1.2448859 
H    -1.4720063   -5.3734278    2.6840071 
H     1.5945679    2.8134126    3.8394601 
H     3.5898672    4.3819453   -3.5903196 
H    -1.2482697   -1.1501442   -5.2408803 
H    -0.9831622   -2.6626632    6.0233782 
H    -2.6910628    3.2320797    4.2893414 
H     4.3545285    3.4574571    0.5696368 
H    -1.8921755    3.1251548   -5.4860178 
H    -1.3444245   -4.9780345    5.1505465 
H    -0.3759749    4.0263107    4.7928878 
H     5.0215281    4.6068779   -1.5518705 
H    -2.0496453    0.8504106   -6.5110698 
