96
Energy =
C     3.0030448   -0.0482912   -0.0815907 
C     2.6263275   -1.2361564   -0.7792470 
C     2.1315811   -1.1636793   -2.0982473 
H     2.6438588   -2.1978710   -0.2504689 
Pd    0.8202108   -0.0035775   -0.5641892 
P    -1.3146289   -0.9367718   -1.1562129 
P     0.3430586    1.8200077    0.9020051 
H     3.3859293    0.7890927   -0.6826766 
H     2.3111375   -0.2222920   -2.6405701 
C     4.4479279   -0.2412359    3.9699658 
C     3.2823943   -0.9377250    3.6100151 
C     2.8070214   -0.8740037    2.2964878 
C     3.4776008   -0.1047626    1.3185540 
C     4.6416213    0.5962857    1.6962051 
C     5.1257248    0.5220000    3.0081427 
H     4.8225461   -0.2908510    4.9975550 
H     2.7408800   -1.5271973    4.3572375 
H     1.8867504   -1.4026782    2.0248363 
H     5.1703756    1.2013008    0.9529014 
H     6.0323060    1.0711485    3.2821403 
C     1.1750694   -4.4307236   -4.7109353 
C     1.4371336   -3.1514897   -5.2244542 
C     1.7238795   -2.0939372   -4.3542312 
C     1.7824245   -2.3006130   -2.9551626 
C     1.5336521   -3.6009606   -2.4528674 
C     1.2216283   -4.6496614   -3.3221844 
H     0.9382617   -5.2574662   -5.3885058 
H     1.4061990   -2.9745402   -6.3042224 
H     1.9073639   -1.0917841   -4.7563637 
H     1.5633891   -3.7915188   -1.3771805 
H     1.0157521   -5.6449348   -2.9157352 
O    -2.0397121    1.8142598   -0.9643484 
C    -0.5349301    3.2968228    0.1943412 
C    -2.6794501   -0.2836994   -0.1137015 
C    -1.6368180    3.1061417   -0.6646690 
C    -2.8172739    1.1157036   -0.0532539 
C    -0.6498423    1.4021611    2.3921139 
C     1.8566222    2.6280421    1.5734789 
C    -1.9646341   -0.9418526   -2.8803852 
C    -1.2766661   -2.7152751   -0.6675638 
C    -0.1521545    4.6265089    0.4760248 
C    -3.4774131   -1.0727119    0.7358873 
C    -2.3098795    4.1769498   -1.2622732 
C    -3.6902166    1.7357613    0.8476139 
C    -0.8314380    5.7089845   -0.1005163 
C    -4.3680929   -0.4682110    1.6328749 
C    -0.8645441    0.0546664    2.7309069 
C     2.1607241    2.6445477    2.9462383 
C    -1.4910729   -1.9038327   -3.7982831 
C    -2.1442183   -3.6785140   -1.2223083 
C    -1.1781639    2.4198910    3.2145312 
C     2.7276985    3.2641086    0.6613357 
C    -2.9093312    0.0120680   -3.3148064 
C    -0.3864258   -3.1050797    0.3537565 
C    -1.9011652    5.4871038   -0.9797419 
C    -4.4617013    0.9303427    1.6961970 
C    -1.5909882   -0.2770372    3.8828300 
C     3.3055548    3.3166300    3.4024341 
C    -1.9505785   -1.9068285   -5.1220877 
C    -2.0974137   -5.0074940   -0.7772836 
C    -1.9002192    2.0847902    4.3660580 
C     3.8610324    3.9430064    1.1238451 
C    -3.3615634    0.0040924   -4.6409075 
C    -0.3473029   -4.4307672    0.8053776 
C    -2.1063650    0.7366840    4.7023255 
C     4.1484443    3.9761084    2.4984131 
C    -2.8825918   -0.9512704   -5.5498126 
C    -1.1998180   -5.3872435    0.2329174 
H     0.6890765    4.8190552    1.1474771 
H    -3.3816737   -2.1623154    0.7130082 
H    -3.1460256    3.9661427   -1.9350037 
H    -3.7553215    2.8266409    0.8870631 
H    -0.5156909    6.7299075    0.1355403 
H    -4.9782994   -1.0901907    2.2946326 
H    -0.4772386   -0.7334035    2.0782971 
H     1.5099405    2.1344540    3.6619191 
H    -0.7857942   -2.6729099   -3.4757375 
H    -2.8553707   -3.3926950   -2.0035683 
H    -1.0271587    3.4723564    2.9518858 
H     2.5014213    3.2518648   -0.4116952 
H    -3.2989131    0.7603854   -2.6222615 
H     0.2939755   -2.3585412    0.7810186 
H    -2.4224795    6.3317085   -1.4412278 
H    -5.1423729    1.4033637    2.4110081 
H    -1.7619892   -1.3292909    4.1316443 
H     3.5361661    3.3196711    4.4725031 
H    -1.5760026   -2.6666822   -5.8155741 
H    -2.7704742   -5.7492211   -1.2197488 
H    -2.3069774    2.8780708    5.0018161 
H     4.5203561    4.4488997    0.4107613 
H    -4.0995322    0.7466354   -4.9620785 
H     0.3531398   -4.7178030    1.5966994 
H    -2.6763139    0.4782799    5.6008463 
H     5.0346950    4.5072270    2.8604822 
H    -3.2417367   -0.9556675   -6.5841450 
H    -1.1679188   -6.4266131    0.5758784 
