96
Energy =
C     1.6179632   -2.2193393    1.3932587 
C     2.6617728   -1.2765441    1.1223894 
C     2.6474522   -0.0031936    1.7297587 
H     3.4034695   -1.5003927    0.3442676 
Pd    0.7554186   -0.3885110    0.4650828 
P     0.3683173    1.7704693   -0.4096335 
P    -1.3879055   -1.3413136    0.2184544 
H     1.1765167   -2.1889546    2.3977008 
H     1.9698033    0.1363015    2.5870897 
C     1.4641136   -6.0895220   -0.4725544 
C     1.8842011   -4.9748267   -1.2178666 
C     1.9141677   -3.7069455   -0.6304881 
C     1.5281073   -3.5281879    0.7186389 
C     1.0715416   -4.6507761    1.4450724 
C     1.0503757   -5.9220945    0.8571888 
H     1.4473599   -7.0826677   -0.9330192 
H     2.1804092   -5.0958875   -2.2646944 
H     2.2197911   -2.8392073   -1.2263070 
H     0.7503027   -4.5226016    2.4848817 
H     0.7119241   -6.7848459    1.4404241 
C     5.5100872    3.1575604    1.2386347 
C     4.2658352    3.4030101    1.8404219 
C     3.3558654    2.3565876    2.0179067 
C     3.6599141    1.0497453    1.5717426 
C     4.9255590    0.8109070    0.9886118 
C     5.8410693    1.8560482    0.8277403 
H     6.2261475    3.9744106    1.1031728 
H     4.0074048    4.4125318    2.1766409 
H     2.3857113    2.5490974    2.4884760 
H     5.2016395   -0.1997731    0.6706004 
H     6.8205933    1.6555719    0.3816066 
O    -1.8495910    1.1555249    1.5103743 
C    -2.7752383   -0.2029792   -0.1964921 
C    -0.2493459    2.8776112    0.9295866 
C    -2.8602041    0.9756908    0.5738373 
C    -1.3098936    2.4142464    1.7465794 
C    -1.4872644   -2.7071856   -0.9969917 
C    -2.0215945   -2.0015476    1.8210700 
C     1.8013407    2.6122861   -1.2001356 
C    -0.8247835    1.9104733   -1.8049254 
C    -3.7809684   -0.4563889   -1.1463347 
C     0.3656892    4.0968113    1.2836621 
C    -3.9208194    1.8752608    0.4282655 
C    -1.7490730    3.1366376    2.8615562 
C    -4.8381643    0.4489635   -1.3179020 
C    -0.0765745    4.8318696    2.3928160 
C    -1.5703139   -4.0597208   -0.6113370 
C    -1.4036954   -1.6399708    3.0326507 
C     2.9757256    1.8777063   -1.4384283 
C    -0.5858673    1.0772277   -2.9168450 
C    -1.3601003   -2.3872603   -2.3670534 
C    -3.2061720   -2.7684559    1.8522701 
C     1.6897925    3.9261608   -1.7067919 
C    -1.8620782    2.8567553   -1.8540765 
C    -4.9096028    1.6056908   -0.5280300 
C    -1.1345602    4.3557677    3.1802966 
C    -1.5485171   -5.0695538   -1.5836494 
C    -1.9310843   -2.0766939    4.2562278 
C     4.0474358    2.4609096   -2.1294171 
C    -1.3962371    1.1715929   -4.0544924 
C    -1.3441399   -3.4005610   -3.3324327 
C    -3.7261319   -3.2100435    3.0754772 
C     2.7653516    4.5085719   -2.3873039 
C    -2.6770702    2.9415690   -2.9928491 
C    -1.4392409   -4.7458421   -2.9425626 
C    -3.0858634   -2.8717698    4.2784381 
C     3.9483183    3.7793603   -2.5929245 
C    -2.4503736    2.0987099   -4.0897168 
H    -3.7371017   -1.3660492   -1.7528265 
H     1.2159290    4.4625353    0.7016613 
H    -3.9611832    2.7769074    1.0462928 
H    -2.5579217    2.7238238    3.4713351 
H    -5.6109874    0.2441166   -2.0648904 
H     0.4159531    5.7759899    2.6455360 
H    -1.6396766   -4.3325192    0.4442871 
H    -0.5226726   -0.9901510    3.0157456 
H     3.0438753    0.8434731   -1.0868541 
H     0.2486588    0.3659355   -2.8921839 
H    -1.2878128   -1.3407485   -2.6766658 
H    -3.7265299   -3.0162635    0.9208838 
H     0.7549390    4.4855992   -1.5922489 
H    -2.0389820    3.5229421   -1.0039436 
H    -5.7411420    2.3065035   -0.6541768 
H    -1.4759134    4.9255250    4.0503509 
H    -1.6092877   -6.1161773   -1.2699480 
H    -1.4418502   -1.7896644    5.1928302 
H     4.9601679    1.8822494   -2.3016963 
H    -1.2042654    0.5232393   -4.9159932 
H    -1.2572496   -3.1384593   -4.3921759 
H    -4.6396728   -3.8134493    3.0895988 
H     2.6748734    5.5294468   -2.7726035 
H    -3.4928585    3.6712002   -3.0196750 
H    -1.4243208   -5.5389801   -3.6972348 
H    -3.4961474   -3.2169465    5.2330800 
H     4.7859303    4.2365509   -3.1298073 
H    -3.0887702    2.1692895   -4.9762928 
