96
Energy =
C     0.8202589   -1.8723806   -2.2959655 
C     1.0118613   -2.7450797   -1.1807569 
C    -0.0710431   -3.1116750   -0.3524089 
H     2.0343719   -3.0284315   -0.8993960 
Pd    0.2392477   -0.8216576   -0.4298538 
P    -0.5343121   -0.2445549    1.7273896 
P     0.0439437    1.2901379   -1.4302554 
H    -0.1590551   -1.8985418   -2.7967118 
H    -1.0845248   -2.9420395   -0.7485848 
C     4.0832014   -0.5814908   -4.7899384 
C     4.2469321   -0.6253407   -3.3944950 
C     3.1928267   -1.0445130   -2.5773497 
C     1.9476083   -1.4146853   -3.1354979 
C     1.7937879   -1.3560175   -4.5371267 
C     2.8563297   -0.9541075   -5.3572408 
H     4.9100500   -0.2566352   -5.4299100 
H     5.1989852   -0.3262147   -2.9439237 
H     3.3225982   -1.0629689   -1.4893066 
H     0.8317143   -1.6277885   -4.9838681 
H     2.7205806   -0.9224077   -6.4433340 
C     0.0156887   -5.6770224    3.0921825 
C    -1.1637489   -5.0171388    2.7152313 
C    -1.1785056   -4.2048552    1.5767387 
C    -0.0086525   -4.0124536    0.8067457 
C     1.1667034   -4.7035568    1.1843793 
C     1.1754493   -5.5279845    2.3132435 
H     0.0292272   -6.3176487    3.9797823 
H    -2.0774525   -5.1418583    3.3056778 
H    -2.1032354   -3.7015212    1.2774655 
H     2.0802541   -4.6034215    0.5892864 
H     2.0914456   -6.0609263    2.5884757 
O    -2.5785886    0.2322364   -0.4403470 
C    -1.3358843    2.2800870   -0.6943768 
C    -2.3043383   -0.7689322    1.7615739 
C    -2.5176173    1.6210308   -0.2917903 
C    -3.1037937   -0.5074589    0.6212076 
C     1.5502448    2.3313600   -1.3732207 
C    -0.4220902    1.2254090   -3.2127124 
C     0.2989778   -1.0591004    3.1471297 
C    -0.5159579    1.5063891    2.2953225 
C    -1.2648321    3.6733562   -0.4965903 
C    -2.8629780   -1.5550296    2.7894923 
C    -3.6139601    2.3261411    0.2212505 
C    -4.3922851   -1.0359117    0.4926214 
C    -2.3467129    4.3856830    0.0349881 
C    -4.1653670   -2.0646951    2.6806546 
C     1.6590287    3.5552071   -2.0711251 
C    -1.7425783    0.8724829   -3.5705009 
C     1.3913142   -1.9093069    2.9013148 
C     0.7092203    2.1988964    2.2227130 
C     2.6542074    1.8606702   -0.6352711 
C     0.5265294    1.4639962   -4.2271678 
C    -0.0783071   -0.7774805    4.4790030 
C    -1.6392095    2.1379976    2.8592818 
C    -3.5286811    3.7140079    0.3766443 
C    -4.9258698   -1.8162416    1.5294099 
C     2.8415446    4.3027668   -1.9984699 
C    -2.1089595    0.7932132   -4.9193023 
C     2.0748175   -2.5082747    3.9688996 
C     0.8054010    3.5141533    2.6907722 
C     3.8366078    2.6098290   -0.5661977 
C     0.1462389    1.3969317   -5.5763663 
C     0.6024824   -1.3829655    5.5418395 
C    -1.5372883    3.4558461    3.3291785 
C     3.9285302    3.8348216   -1.2426799 
C    -1.1683752    1.0656808   -5.9266669 
C     1.6753518   -2.2537059    5.2877105 
C    -0.3198339    4.1461101    3.2432093 
H    -0.3427579    4.2073718   -0.7381823 
H    -2.2601772   -1.8020360    3.6677804 
H    -4.5170338    1.7812381    0.5102514 
H    -4.9611529   -0.8254457   -0.4176096 
H    -2.2613618    5.4660684    0.1844875 
H    -4.5771167   -2.6730758    3.4919119 
H     0.8286560    3.9146143   -2.6877699 
H    -2.4866817    0.6608356   -2.7971551 
H     1.7061969   -2.0939110    1.8694087 
H     1.5916118    1.7060626    1.8050338 
H     2.5794024    0.8942821   -0.1227964 
H     1.5652624    1.6947008   -3.9737880 
H    -0.8893788   -0.0702351    4.6848301 
H    -2.5940625    1.6063965    2.9240854 
H    -4.3829030    4.2669061    0.7800656 
H    -5.9359576   -2.2271562    1.4346125 
H     2.9170485    5.2511594   -2.5402948 
H    -3.1373311    0.5269124   -5.1849787 
H     2.9186013   -3.1753841    3.7667699 
H     1.7606546    4.0448647    2.6231270 
H     4.6876712    2.2329054    0.0103117 
H     0.8927661    1.5922165   -6.3530251 
H     0.3040687   -1.1649192    6.5724901 
H    -2.4170735    3.9447013    3.7602502 
H     4.8516382    4.4215095   -1.1918091 
H    -1.4615013    1.0149162   -6.9803575 
H     2.2084028   -2.7216463    6.1218634 
H    -0.2470161    5.1757269    3.6083810 
