96
Energy =
C     1.2103701   -2.8731300    0.2317922 
C     1.4647333   -2.4583332   -1.1093151 
C     2.4071345   -1.4434541   -1.3946708 
H     0.8198888   -2.8425205   -1.9100878 
Pd    0.7063115   -0.7104721   -0.0349924 
P     0.3756923    1.3488567   -1.1243040 
P    -0.5927004   -0.3617818    1.9136961 
H     2.0393917   -2.8140265    0.9526132 
H     3.1436578   -1.2164494   -0.6084065 
C    -1.8444854   -5.7555540    1.1804164 
C    -2.1361235   -4.6827127    0.3212654 
C    -1.1411138   -3.7548441   -0.0051970 
C     0.1599626   -3.8711783    0.5349020 
C     0.4426206   -4.9580121    1.3908557 
C    -0.5500375   -5.8954427    1.7049476 
H    -2.6234737   -6.4801973    1.4389503 
H    -3.1454158   -4.5612736   -0.0850690 
H    -1.3806405   -2.9012595   -0.6505119 
H     1.4452194   -5.0583736    1.8198879 
H    -0.3146872   -6.7345816    2.3680861 
C     3.6503002   -0.0904479   -5.2767379 
C     4.2388829    0.4301987   -4.1146822 
C     3.8078406   -0.0061157   -2.8572378 
C     2.7730703   -0.9632622   -2.7340558 
C     2.1757225   -1.4630151   -3.9153357 
C     2.6171167   -1.0364033   -5.1702427 
H     3.9939671    0.2383103   -6.2629227 
H     5.0443626    1.1681814   -4.1874875 
H     4.2830302    0.3902428   -1.9541814 
H     1.3694288   -2.1994822   -3.8574254 
H     2.1499384   -1.4414657   -6.0731286 
O    -2.2792198    0.1422254   -0.5351018 
C    -2.3506500   -0.8656676    1.6672674 
C    -1.1405012    2.2613010   -0.5815245 
C    -2.9507455   -0.6317348    0.4082169 
C    -2.3228923    1.5265109   -0.3466987 
C    -0.0274276   -1.2834024    3.4071815 
C    -0.6226830    1.3853984    2.4845514 
C     1.7633344    2.5459727   -1.0143394 
C     0.0902660    1.0655034   -2.9312584 
C    -3.0985466   -1.5802722    2.6256094 
C    -1.1706695    3.6442231   -0.3125649 
C    -4.1943032   -1.1757321    0.0722300 
C    -3.5054072    2.1504823    0.0718412 
C    -4.3615813   -2.1004327    2.3108280 
C    -2.3430470    4.2767698    0.1192929 
C     0.7504004   -0.6408510    4.3942423 
C     0.5698796    2.1313598    2.3987377 
C     1.7703847    3.7957474   -1.6749719 
C    -0.9082046    0.1371655   -3.3048235 
C    -0.2914982   -2.6646476    3.5345916 
C    -1.7747321    1.9780177    3.0333729 
C     2.8861459    2.1786457   -0.2449320 
C     0.8368707    1.7079650   -3.9376663 
C    -4.8978475   -1.9239147    1.0273172 
C    -3.5162968    3.5319111    0.2944025 
C     1.2555528   -1.3694587    5.4801396 
C     0.6144023    3.4532170    2.8584275 
C     2.8712757    4.6544859   -1.5526945 
C    -1.1852278   -0.0970177   -4.6576289 
C     0.2114237   -3.3842068    4.6260759 
C    -1.7288418    3.3050193    3.4837386 
C     3.9855111    3.0391456   -0.1222035 
C     0.5502460    1.4703314   -5.2895827 
C     0.9899494   -2.7414659    5.5997232 
C    -0.5380189    4.0423911    3.4000713 
C     3.9781690    4.2803184   -0.7751500 
C    -0.4668035    0.5791254   -5.6551326 
H    -2.6820583   -1.7460266    3.6231700 
H    -0.2574328    4.2348248   -0.4101851 
H    -4.6014819   -0.9870088   -0.9253432 
H    -4.4036177    1.5496320    0.2371530 
H    -4.9210074   -2.6556620    3.0698899 
H    -2.3322267    5.3511058    0.3257668 
H     0.9562182    0.4314112    4.3265775 
H     1.4653270    1.6737285    1.9676138 
H     0.9203528    4.0995418   -2.2937697 
H    -1.4764707   -0.3887183   -2.5334347 
H    -0.9020912   -3.1812922    2.7912771 
H    -2.7079638    1.4090266    3.0979272 
H     2.8946368    1.2026661    0.2551711 
H     1.6604818    2.3776723   -3.6813480 
H    -5.8739731   -2.3492172    0.7730139 
H    -4.4397731    4.0196746    0.6220671 
H     1.8533816   -0.8563967    6.2405786 
H     1.5463798    4.0227998    2.7825566 
H     2.8643487    5.6196159   -2.0696634 
H    -1.9693956   -0.8105879   -4.9322013 
H    -0.0094219   -4.4535054    4.7084731 
H    -2.6310792    3.7656994    3.8989164 
H     4.8483466    2.7381908    0.4809696 
H     1.1407762    1.9787718   -6.0585078 
H     1.3826961   -3.3056647    6.4518747 
H    -0.5105872    5.0786161    3.7526245 
H     4.8353660    4.9551212   -0.6819186 
H    -0.6883626    0.3995516   -6.7122551 
