96
Energy =
C     1.9360938   -0.9817017   -2.1704888 
C     1.5712479   -2.2319349   -1.5809058 
C     0.2321767   -2.6777923   -1.6019822 
H     2.3213944   -2.7845261   -1.0005506 
Pd    0.4584271   -0.6266384   -0.5563289 
P    -1.2957394   -0.7792495    1.0195988 
P     0.6892105    1.7069328   -0.5782075 
H     1.3454393   -0.6375852   -3.0325961 
H    -0.4483241   -2.1836372   -2.3131474 
C     5.9541065    0.5565695   -2.0203979 
C     5.1845648    0.6840080   -3.1854717 
C     3.8723895    0.1939617   -3.2204638 
C     3.3130715   -0.4501843   -2.0960328 
C     4.1031370   -0.5785461   -0.9302146 
C     5.4069306   -0.0757472   -0.8904708 
H     6.9761683    0.9479726   -1.9895455 
H     5.6033303    1.1749600   -4.0701464 
H     3.2704107    0.3089162   -4.1278473 
H     3.6781467   -1.0567395   -0.0404057 
H     5.9993600   -0.1709706    0.0254807 
C    -1.3596036   -6.3136604    0.0392381 
C    -2.2044943   -5.3523972   -0.5359233 
C    -1.6648540   -4.1854006   -1.0863647 
C    -0.2726907   -3.9420702   -1.0500085 
C     0.5695045   -4.9314613   -0.4899851 
C     0.0297503   -6.1041595    0.0461070 
H    -1.7784924   -7.2302332    0.4668162 
H    -3.2869914   -5.5155167   -0.5625727 
H    -2.3247811   -3.4423468   -1.5451343 
H     1.6549821   -4.7886556   -0.4778594 
H     0.6952500   -6.8628462    0.4707622 
O    -2.0416466    0.8086164   -1.4335430 
C    -0.9135453    2.5656567   -0.2303611 
C    -2.8387626   -0.9695210    0.0244472 
C    -2.1145338    2.0113244   -0.7241859 
C    -2.9895714   -0.1729898   -1.1374574 
C     1.9356602    2.3924102    0.5755962 
C     1.1486463    2.3759807   -2.2340704 
C    -1.2324056   -2.1957548    2.1871056 
C    -1.6138052    0.6041124    2.1910165 
C    -1.0046697    3.7503125    0.5271666 
C    -3.7980655   -1.9744095    0.2614537 
C    -3.3490184    2.6459167   -0.5355332 
C    -4.0303326   -0.3911756   -2.0458381 
C    -2.2359285    4.3820615    0.7399775 
C    -4.8619972   -2.1798672   -0.6293319 
C     2.3090430    3.7553514    0.5777380 
C     2.4463109    2.8558803   -2.5011189 
C    -2.2131983   -2.3629132    3.1898577 
C    -0.5294355    1.0551847    2.9698196 
C     2.5742187    1.5038202    1.4629898 
C     0.1942590    2.3488413   -3.2758120 
C    -0.1402079   -3.0791210    2.1316436 
C    -2.8895619    1.1640977    2.3844224 
C    -3.4063784    3.8395770    0.1920373 
C    -4.9723592   -1.3985233   -1.7880553 
C     3.2791805    4.2168774    1.4767465 
C     2.7675640    3.3451162   -3.7768875 
C    -2.1187882   -3.4313003    4.0894577 
C    -0.7145709    2.0675051    3.9180372 
C     3.5463700    1.9681224    2.3592397 
C     0.5281384    2.8253708   -4.5490397 
C    -0.0463441   -4.1443856    3.0383253 
C    -3.0705232    2.1774563    3.3374205 
C     3.8947433    3.3264343    2.3711264 
C     1.8128869    3.3351257   -4.8010883 
C    -1.0389121   -4.3265612    4.0105693 
C    -1.9864817    2.6325133    4.1015590 
H    -0.1047088    4.1733683    0.9794915 
H    -3.6915081   -2.6274106    1.1321321 
H    -4.2557083    2.1915921   -0.9447579 
H    -4.0899904    0.2344023   -2.9411573 
H    -2.2774757    5.2968483    1.3385738 
H    -5.5944183   -2.9667533   -0.4239319 
H     1.8576768    4.4527437   -0.1356166 
H     3.2147047    2.8431647   -1.7232779 
H    -3.0377416   -1.6470246    3.2794940 
H     0.4605940    0.6092522    2.8385377 
H     2.3074598    0.4408763    1.4362656 
H    -0.8100573    1.9555139   -3.0937564 
H     0.6383403   -2.9231859    1.3782819 
H    -3.7385931    0.8170392    1.7866074 
H    -4.3703458    4.3356715    0.3430681 
H    -5.7914086   -1.5688595   -2.4939871 
H     3.5608768    5.2748856    1.4737473 
H     3.7780337    3.7213283   -3.9668303 
H    -2.8830442   -3.5589717    4.8630863 
H     0.1363577    2.4148846    4.5130738 
H     4.0359681    1.2672455    3.0432302 
H    -0.2218683    2.8066848   -5.3466920 
H     0.8033652   -4.8318699    2.9813758 
H    -4.0642935    2.6149425    3.4780089 
H     4.6551313    3.6914952    3.0693133 
H     2.0668385    3.7181347   -5.7948547 
H    -0.9665141   -5.1586294    4.7186588 
H    -2.1327699    3.4261685    4.8415333 
