96
Energy =
C     0.9407409   -2.9847161    0.0510387 
C     1.1540509   -2.5730510   -1.3035180 
C     2.2039354   -1.6824831   -1.6196157 
H     0.4157650   -2.8293256   -2.0731441 
Pd    0.7219656   -0.7788277   -0.1261960 
P     0.4158097    1.3278242   -1.1328916 
P    -0.3840539   -0.4150691    1.9097229 
H     1.8367408   -3.0891201    0.6770977 
H     3.0003843   -1.5670138   -0.8673069 
C    -2.4143281   -5.3569325    1.3373353 
C    -2.5149811   -4.5786766    0.1722758 
C    -1.4404536   -3.7871907   -0.2424901 
C    -0.2274381   -3.7741885    0.4872810 
C    -0.1486141   -4.5452135    1.6689341 
C    -1.2310206   -5.3281113    2.0895298 
H    -3.2578229   -5.9758723    1.6599984 
H    -3.4423713   -4.5800723   -0.4092013 
H    -1.5471571   -3.1633025   -1.1365031 
H     0.7766465   -4.5388939    2.2546388 
H    -1.1449752   -5.9262993    3.0026529 
C     3.4061850   -0.2906807   -5.4984866 
C     4.0611939    0.1577451   -4.3415358 
C     3.6426996   -0.2901506   -3.0841480 
C     2.5560617   -1.1876274   -2.9567883 
C     1.8913445   -1.6121973   -4.1305373 
C     2.3191647   -1.1732936   -5.3863401 
H     3.7394855    0.0465057   -6.4853865 
H     4.9067517    0.8488644   -4.4195872 
H     4.1640223    0.0524667   -2.1836799 
H     1.0461981   -2.3035364   -4.0666000 
H     1.8012128   -1.5212486   -6.2854246 
O    -2.2105525    0.1593151   -0.3812737 
C    -2.1108530   -1.0271230    1.7289117 
C    -1.0668522    2.2612840   -0.5235020 
C    -2.8293479   -0.6527782    0.5678121 
C    -2.2483120    1.5445328   -0.2294200 
C     0.3095582   -1.2118906    3.4178383 
C    -0.4979247    1.3254701    2.4944860 
C     1.8446140    2.4732128   -1.0368957 
C     0.0505120    1.1113334   -2.9328626 
C    -2.7142172   -1.9472606    2.6081184 
C    -1.0781688    3.6513858   -0.2966737 
C    -4.1054702   -1.1571472    0.2997619 
C    -3.4157472    2.1898303    0.1954841 
C    -4.0006439   -2.4430455    2.3552866 
C    -2.2343912    4.3064315    0.1472346 
C     1.5299408   -1.9082065    3.3512075 
C     0.6949326    2.0759280    2.4902858 
C     2.9663164    2.0449318   -0.2970509 
C    -1.0478457    0.2953406   -3.2887792 
C    -0.3158104   -1.0357920    4.6721470 
C    -1.6798201    1.8968858    2.9982754 
C     1.8920382    3.7290355   -1.6838545 
C     0.8294687    1.6938491   -3.9509294 
C    -4.6988573   -2.0464659    1.2071052 
C    -3.4091369    3.5779692    0.3744572 
C     2.0968747   -2.4621766    4.5084063 
C     0.7048890    3.3874179    2.9778724 
C     4.1047800    2.8551426   -0.1882848 
C    -1.3847867    0.1135091   -4.6359424 
C     0.2458696   -1.6000581    5.8239106 
C    -1.6655223    3.2131637    3.4829434 
C     3.0318124    4.5371722   -1.5741702 
C     0.4814064    1.5100283   -5.2970406 
C     1.4490322   -2.3200585    5.7432072 
C    -0.4776320    3.9584911    3.4740101 
C     4.1371744    4.1043331   -0.8251643 
C    -0.6300119    0.7315571   -5.6445406 
H    -2.1648743   -2.3023094    3.4837567 
H    -0.1645104    4.2317218   -0.4421394 
H    -4.6126020   -0.8534823   -0.6206565 
H    -4.3128604    1.6004661    0.4036653 
H    -4.4469080   -3.1595801    3.0511781 
H    -2.2105351    5.3866568    0.3190454 
H     2.0449108   -1.9999063    2.3908545 
H     1.6172438    1.6302602    2.1039150 
H     2.9403809    1.0619026    0.1894016 
H    -1.6449022   -0.1845534   -2.5080950 
H    -1.2331432   -0.4426347    4.7524052 
H    -2.6115227    1.3213139    3.0012551 
H     1.0455596    4.0740841   -2.2858295 
H     1.7197142    2.2782466   -3.7076095 
H    -5.6994451   -2.4415026    1.0046957 
H    -4.3195289    4.0847435    0.7098932 
H     3.0479987   -3.0007932    4.4440475 
H     1.6353328    3.9643854    2.9654289 
H     4.9668494    2.5092793    0.3914135 
H    -2.2452942   -0.5114276   -4.8976913 
H    -0.2506053   -1.4660937    6.7905148 
H    -2.5902458    3.6583574    3.8641942 
H     3.0573557    5.5081484   -2.0794960 
H     1.0959459    1.9725445   -6.0760407 
H     1.8883797   -2.7550733    6.6467823 
H    -0.4737883    4.9860029    3.8521085 
H     5.0254980    4.7392244   -0.7435074 
H    -0.8988621    0.5941586   -6.6969916 
