96
Energy =
C     2.6463929    1.0903937   -1.4477148 
C     2.5952359   -0.2456833   -1.9013066 
C     1.4979782   -0.7032310   -2.6990574 
H     3.3287762   -0.9754458   -1.5353926 
Pd    0.7402250    0.0137874   -0.7513847 
P    -1.4523935   -0.7839237   -0.9545132 
P     0.4684836    1.0313998    1.3777394 
H     1.9957705    1.8161738   -1.9607093 
H     1.0306997    0.0229385   -3.3802909 
C     5.6442309    2.9472035    1.0057596 
C     5.8208028    1.6170479    0.5893362 
C     4.8610344    0.9961133   -0.2146739 
C     3.7005123    1.6950739   -0.6218108 
C     3.5535339    3.0437567   -0.2231916 
C     4.5096562    3.6603620    0.5905990 
H     6.3961992    3.4282305    1.6395363 
H     6.7146824    1.0627085    0.8932127 
H     5.0198263   -0.0394947   -0.5325035 
H     2.6737627    3.6061801   -0.5529711 
H     4.3708130    4.7024643    0.8966266 
C     1.0932144   -4.8254106   -3.8747642 
C     1.5752286   -4.5087149   -2.5935876 
C     1.7043301   -3.1722438   -2.2028074 
C     1.3508396   -2.1226789   -3.0830541 
C     0.8592923   -2.4562672   -4.3624121 
C     0.7369941   -3.7947035   -4.7559111 
H     0.9928582   -5.8717681   -4.1809772 
H     1.8491296   -5.3085132   -1.8973707 
H     2.0700359   -2.9334042   -1.1968644 
H     0.5752640   -1.6570825   -5.0543810 
H     0.3550979   -4.0321512   -5.7538990 
O    -0.9966372    2.2405540   -0.8238036 
C     0.3430285    2.8459025    1.0649465 
C    -2.7017038    0.5739408   -0.9493250 
C    -0.4126272    3.2476653   -0.0601630 
C    -2.3471938    1.9328069   -0.7885954 
C    -0.9946605    0.6497929    2.4305810 
C     1.8429810    0.7799288    2.5658193 
C    -1.9266929   -1.6825713   -2.4903125 
C    -1.8878590   -1.9577603    0.3934482 
C     1.0312458    3.8355496    1.7916652 
C    -4.0706180    0.2599638   -1.1074482 
C    -0.4553066    4.5835632   -0.4777583 
C    -3.3323678    2.9265627   -0.6722666 
C     0.9612902    5.1820280    1.4060276 
C    -5.0583155    1.2448872   -1.0041601 
C    -0.9476653   -0.5094208    3.2351539 
C     2.9287939   -0.0283984    2.1860991 
C    -2.0804354   -3.0809897   -2.5264814 
C    -3.1319912   -2.0131855    1.0471501 
C    -2.1404462    1.4659398    2.4609921 
C     1.7952352    1.3121986    3.8740878 
C    -2.1307412   -0.9291110   -3.6665124 
C    -0.8851702   -2.8924619    0.7333479 
C     0.2270794    5.5547820    0.2706989 
C    -4.6843504    2.5753848   -0.7603065 
C    -2.0283635   -0.8352107    4.0613701 
C     3.9755939   -0.2753260    3.0857795 
C    -2.4580355   -3.7124899   -3.7206117 
C    -3.3763582   -3.0070936    2.0051395 
C    -3.2297621    1.1222581    3.2754785 
C     2.8457455    1.0695110    4.7667063 
C    -2.5140343   -1.5660379   -4.8531059 
C    -1.1367251   -3.8870496    1.6872231 
C    -3.1743796   -0.0240932    4.0796967 
C     3.9391446    0.2802038    4.3716355 
C    -2.6838989   -2.9593802   -4.8808866 
C    -2.3873085   -3.9497363    2.3207060 
H     1.6526752    3.5498775    2.6446049 
H    -4.3573286   -0.7751757   -1.3202157 
H    -1.0031810    4.8495403   -1.3860550 
H    -3.0405861    3.9688114   -0.5218276 
H     1.5021948    5.9385555    1.9829374 
H    -6.1128921    0.9769988   -1.1184642 
H    -0.0609103   -1.1513927    3.2243536 
H     2.9418508   -0.4695641    1.1838700 
H    -1.9169101   -3.6794846   -1.6256193 
H    -3.9045012   -1.2691683    0.8390484 
H    -2.1823642    2.3859470    1.8717236 
H     0.9263329    1.8943100    4.2000551 
H    -2.0120445    0.1605831   -3.6475786 
H     0.0926055   -2.8374029    0.2411710 
H     0.1932966    6.6023591   -0.0449193 
H    -5.4476454    3.3549483   -0.6692941 
H    -1.9777155   -1.7316422    4.6869616 
H     4.8192995   -0.9019603    2.7795512 
H    -2.5771579   -4.8005211   -3.7389654 
H    -4.3445804   -3.0352604    2.5153288 
H    -4.1148165    1.7667398    3.2918481 
H     2.8066090    1.4866771    5.7782827 
H    -2.6852415   -0.9721315   -5.7570870 
H    -0.3543850   -4.6113204    1.9369554 
H    -4.0198663   -0.2834690    4.7252732 
H     4.7563164    0.0885333    5.0748212 
H    -2.9878148   -3.4564808   -5.8078461 
H    -2.5862366   -4.7251317    3.0678099 
