96
Energy =
C     1.4711405   -1.6320740   -2.1559850 
C     1.5769699   -2.5279031   -1.0429270 
C     0.4185571   -3.0980388   -0.4745880 
H     2.5497212   -2.6692621   -0.5538065 
Pd    0.3791447   -0.7908488   -0.4083893 
P    -0.6903579   -0.4286951    1.6657470 
P    -0.0135638    1.2816814   -1.4628656 
H     0.6528007   -1.8203030   -2.8629396 
H    -0.5120419   -3.0333308   -1.0606685 
C     4.9041431    0.2723617   -3.9090557 
C     4.8322691    0.1162138   -2.5144559 
C     3.7102506   -0.4782207   -1.9303933 
C     2.6366030   -0.9335517   -2.7311088 
C     2.7048647   -0.7360010   -4.1284630 
C     3.8341269   -0.1479427   -4.7127110 
H     5.7867877    0.7326248   -4.3648578 
H     5.6520779    0.4690767   -1.8807121 
H     3.6515869   -0.5738076   -0.8399975 
H     1.8711451   -1.0658608   -4.7584987 
H     3.8791704   -0.0195712   -5.7992637 
C     0.2019812   -5.8031763    2.8510438 
C    -0.9488936   -5.1526961    2.3788819 
C    -0.8661366   -4.2962400    1.2770543 
C     0.3736143   -4.0508978    0.6429505 
C     1.5208262   -4.7304089    1.1130155 
C     1.4322402   -5.6000421    2.2049520 
H     0.1387068   -6.4780185    3.7106804 
H    -1.9140427   -5.3182732    2.8687521 
H    -1.7647826   -3.7894761    0.9090642 
H     2.4853013   -4.5890557    0.6143777 
H     2.3268716   -6.1260067    2.5538429 
O    -2.5663420    0.4639382   -0.4950997 
C    -1.2313333    2.4143502   -0.6709245 
C    -2.4767025   -0.8655779    1.5269183 
C    -2.4559674    1.8324370   -0.2815325 
C    -3.2087990   -0.3526667    0.4278672 
C     1.4841679    2.2932455   -1.7562526 
C    -0.8405631    1.0586190   -3.0975321 
C    -0.0156089   -1.3400720    3.1156103 
C    -0.6125083    1.2738820    2.3621047 
C    -1.0658522    3.8010836   -0.5041056 
C    -3.1222846   -1.7982669    2.3657413 
C    -3.5015854    2.5989931    0.2425797 
C    -4.5296042   -0.7411937    0.1779718 
C    -2.0987077    4.5779180    0.0406084 
C    -4.4496045   -2.1833505    2.1285459 
C     2.1232546    2.8729239   -0.6377511 
C    -1.4304868   -0.1745179   -3.4323309 
C     1.1987828   -2.0345691    2.9795513 
C     0.6729530    1.8405573    2.4815882 
C     2.0771348    2.4174718   -3.0282166 
C    -0.9991433    2.1585358   -3.9678329 
C    -0.6125106   -1.2294007    4.3911183 
C    -1.7277261    1.9653661    2.8642308 
C    -3.3131318    3.9784799    0.4054134 
C    -5.1552067   -1.6545155    1.0382542 
C     3.3170988    3.5862877   -0.7952059 
C    -2.1271876   -0.3233552   -4.6400015 
C     1.7869027   -2.6563739    4.0901725 
C     0.8355673    3.0991949    3.0725684 
C     3.2755424    3.1295826   -3.1774871 
C    -1.6885516    2.0046809   -5.1772673 
C    -0.0273002   -1.8590566    5.4957550 
C    -1.5609008    3.2305583    3.4471059 
C     3.8962367    3.7174409   -2.0672730 
C    -2.2466908    0.7624545   -5.5191094 
C     1.1688484   -2.5801185    5.3451921 
C    -0.2842372    3.8005999    3.5480362 
H    -0.1258392    4.2749026   -0.8026767 
H    -2.5735532   -2.2478391    3.1977914 
H    -4.4412176    2.1177687    0.5289112 
H    -5.0425442   -0.3312356   -0.6968248 
H    -1.9552446    5.6546902    0.1717432 
H    -4.9287020   -2.9071311    2.7952138 
H     1.6752629    2.7762424    0.3553951 
H    -1.3665291   -1.0113898   -2.7292373 
H     1.6859057   -2.0795535    2.0006374 
H     1.5469511    1.2826037    2.1240365 
H     1.6169560    1.9520562   -3.9030101 
H    -0.5887059    3.1376264   -3.6984739 
H    -1.5201342   -0.6313487    4.5265953 
H    -2.7259689    1.5218191    2.7960575 
H    -4.1234088    4.5868999    0.8197792 
H    -6.1889999   -1.9599103    0.8481863 
H     3.7959566    4.0413382    0.0782810 
H    -2.5819473   -1.2874654   -4.8903362 
H     2.7277228   -3.2023904    3.9703312 
H     1.8369293    3.5329143    3.1649338 
H     3.7273269    3.2150509   -4.1705192 
H    -1.7974917    2.8605980   -5.8513419 
H    -0.4976424   -1.7741076    6.4808590 
H    -2.4353790    3.7710837    3.8235332 
H     4.8312253    4.2736291   -2.1905871 
H    -2.7865285    0.6461557   -6.4645662 
H     1.6258266   -3.0682180    6.2122507 
H    -0.1592614    4.7873887    4.0053510 
