96
Energy =
C     1.5242525   -2.6596216   -0.0869973 
C     2.4684707   -1.7281082    0.4382091 
C     2.3479723   -1.2249099    1.7542340 
H     3.2241053   -1.3052637   -0.2361470 
Pd    0.5144809   -0.7331621    0.4489907 
P     0.3668744    1.5219856    1.1410594 
P    -1.4863432   -1.1310881   -0.7817420 
H     1.0478384   -3.3561116    0.6183617 
H     1.6983241   -1.7870648    2.4432538 
C     1.7931730   -4.0220469   -4.1625300 
C     1.9526956   -2.6575240   -3.8690137 
C     1.8615789   -2.2102753   -2.5472812 
C     1.5996441   -3.1146373   -1.4924087 
C     1.4317478   -4.4799637   -1.8027579 
C     1.5350159   -4.9297128   -3.1251043 
H     1.8653988   -4.3738530   -5.1968482 
H     2.1430088   -1.9405253   -4.6745367 
H     1.9683066   -1.1422792   -2.3251210 
H     1.2220630   -5.1929423   -0.9989474 
H     1.4047600   -5.9939883   -3.3462891 
C     5.0601722    1.4248657    3.7732782 
C     3.9233290    0.9288886    4.4284604 
C     3.0456379    0.0736347    3.7541481 
C     3.2770040   -0.2933579    2.4074060 
C     4.4250658    0.2209319    1.7590902 
C     5.3073419    1.0647892    2.4380059 
H     5.7549755    2.0864403    4.3008409 
H     3.7247131    1.1999265    5.4703386 
H     2.1698045   -0.3225259    4.2768670 
H     4.6399625   -0.0484070    0.7213307 
H     6.1938769    1.4465693    1.9224351 
O    -2.3718556    1.1179111    1.0475680 
C    -3.1389748   -0.9321043    0.0437902 
C    -0.7661674    2.5473141    0.1285778 
C    -3.3918989    0.2059998    0.8387912 
C    -2.1079351    2.1170560    0.1303028 
C    -1.6597751   -0.0822857   -2.2816631 
C    -1.6154410   -2.8634628   -1.3898649 
C    -0.1586074    1.8403969    2.8679495 
C     1.9853896    2.3559104    0.8856167 
C    -4.1881076   -1.8639635   -0.1119736 
C    -0.3958779    3.6083670   -0.7166502 
C    -4.6169158    0.4052714    1.4845620 
C    -3.0639433    2.6759070   -0.7231443 
C    -5.4259618   -1.6664281    0.5162613 
C    -1.3477717    4.1929189   -1.5645902 
C    -2.8726214   -0.0461825   -3.0017490 
C    -1.6554088   -3.1893723   -2.7570065 
C    -0.3574604    0.7525887    3.7378877 
C     2.6332376    2.1279103   -0.3491548 
C    -0.5717355    0.6952624   -2.7166299 
C    -1.6867442   -3.8937958   -0.4264633 
C    -0.4340654    3.1491842    3.3142593 
C     2.5799754    3.2169765    1.8253097 
C    -5.6400897   -0.5379719    1.3209322 
C    -2.6676389    3.7154436   -1.5777273 
C    -2.9832098    0.7513525   -4.1471507 
C    -1.7966686   -4.5284911   -3.1534868 
C    -0.7890524    0.9700895    5.0533030 
C     3.8318746    2.7838899   -0.6552790 
C    -0.6878547    1.4978276   -3.8593959 
C    -1.8409725   -5.2257647   -0.8282174 
C    -0.8611777    3.3638451    4.6317405 
C     3.7859121    3.8644697    1.5182814 
C    -1.8922276    1.5244299   -4.5766044 
C    -1.9027759   -5.5446743   -2.1948270 
C    -1.0325559    2.2766514    5.5033535 
C     4.4066644    3.6609786    0.2778474 
H    -4.0361324   -2.7541759   -0.7285344 
H     0.6396233    3.9622083   -0.7246663 
H    -4.7452163    1.2959317    2.1062086 
H    -4.0908010    2.2996376   -0.7228342 
H    -6.2233104   -2.4032427    0.3779717 
H    -1.0552565    5.0143231   -2.2256323 
H    -3.7303376   -0.6368443   -2.6627988 
H    -1.5739216   -2.4042764   -3.5141348 
H    -0.1921328   -0.2667628    3.3709666 
H     2.1900372    1.4337504   -1.0736269 
H     0.3593372    0.6821855   -2.1408379 
H    -1.6468933   -3.6484110    0.6418328 
H    -0.3277366    3.9968334    2.6282025 
H     2.1137849    3.3747324    2.8016884 
H    -6.6024547   -0.3897747    1.8209745 
H    -3.4030497    4.1586082   -2.2566390 
H    -3.9259590    0.7746712   -4.7035640 
H    -1.8206631   -4.7735632   -4.2200385 
H    -0.9439543    0.1191880    5.7248860 
H     4.3198005    2.6071564   -1.6195224 
H     0.1599007    2.1104994   -4.1821393 
H    -1.9131895   -6.0165278   -0.0741473 
H    -1.0694816    4.3821491    4.9761952 
H     4.2436790    4.5281062    2.2589274 
H    -1.9849948    2.1537303   -5.4678627 
H    -2.0216832   -6.5865469   -2.5094723 
H    -1.3702914    2.4476354    6.5308084 
H     5.3444851    4.1746610    0.0424476 
