96
Energy =
C     1.6521000   -2.6355991    0.1606865 
C     2.4334969   -1.8178059   -0.6833465 
C     2.9534280   -0.5734610   -0.2340380 
H     2.5810110   -2.1133240   -1.7287842 
Pd    0.6924278   -0.5281795   -0.1762476 
P     0.6635504    1.8243215    0.0642709 
P    -1.6037880   -1.0433799    0.2014647 
H     1.6938338   -2.4184194    1.2387069 
H     3.0772876   -0.4475668    0.8514043 
C     0.5216408   -6.6957951   -0.6397552 
C     0.9488593   -5.8778497   -1.6995807 
C     1.2756757   -4.5393044   -1.4685125 
C     1.1952180   -3.9908198   -0.1654767 
C     0.7394862   -4.8210763    0.8851760 
C     0.4094238   -6.1595235    0.6516660 
H     0.2720138   -7.7458893   -0.8230901 
H     1.0302701   -6.2896762   -2.7108441 
H     1.6072188   -3.9188958   -2.3074293 
H     0.6577868   -4.4081947    1.8964950 
H     0.0640181   -6.7866837    1.4793729 
C     5.5230363    2.0016689   -2.5320719 
C     4.6997002    1.0754140   -3.1950004 
C     3.8548550    0.2356757   -2.4649605 
C     3.8113688    0.3025275   -1.0520879 
C     4.6572164    1.2276647   -0.3994856 
C     5.5021200    2.0700400   -1.1318977 
H     6.1813348    2.6610053   -3.1069622 
H     4.7157215    1.0125215   -4.2879950 
H     3.2130676   -0.4712173   -3.0019115 
H     4.6529409    1.2769534    0.6942204 
H     6.1471732    2.7805895   -0.6047448 
O    -1.8675893    1.7193692   -1.1216617 
C    -2.9391537   -0.4360249   -0.9413726 
C    -0.8347029    2.5739350    0.8118762 
C    -2.8806041    0.8567597   -1.5077869 
C    -2.0211398    2.4031800    0.0751228 
C    -2.0203356   -2.8334017    0.2641947 
C    -2.0535846   -0.4392195    1.8784962 
C     1.9896977    2.3967154    1.2046979 
C     0.8506189    2.7695444   -1.4957240 
C    -4.0192164   -1.2613337   -1.3279225 
C    -0.8909752    3.2643423    2.0356643 
C    -3.8005263    1.2909099   -2.4686932 
C    -3.2451921    2.9139292    0.5195848 
C    -4.9651446   -0.8249093   -2.2656104 
C    -2.1133551    3.7708991    2.5007222 
C    -1.8620928   -3.5910859   -0.9170052 
C    -1.0711125   -0.5155682    2.8877399 
C     2.1561419    1.6889029    2.4150905 
C     1.1335880    2.0796355   -2.6868871 
C    -2.5638721   -3.4419899    1.4112784 
C    -3.3361010    0.0437665    2.1955280 
C     2.8325412    3.4886536    0.9246247 
C     0.6568176    4.1665930   -1.5258346 
C    -4.8468152    0.4425654   -2.8535493 
C    -3.2812995    3.5992908    1.7424143 
C    -2.2945433   -4.9202700   -0.9625656 
C    -1.3647690   -0.1085434    4.1948904 
C     3.1430374    2.0718028    3.3324610 
C     1.2619815    2.7798980   -3.8935651 
C    -2.9740107   -4.7837192    1.3652796 
C    -3.6236352    0.4604875    3.5032336 
C     3.8184229    3.8709666    1.8475222 
C     0.7865579    4.8634363   -2.7342478 
C    -2.8543301   -5.5183416    0.1780258 
C    -2.6419642    0.3864371    4.5020734 
C     3.9775233    3.1659357    3.0488367 
C     1.0955696    4.1721792   -3.9170108 
H    -4.1185116   -2.2609745   -0.8974518 
H     0.0205062    3.4026680    2.6249292 
H    -3.6832455    2.2933063   -2.8903417 
H    -4.1510199    2.7669689   -0.0751590 
H    -5.7916713   -1.4864394   -2.5428777 
H    -2.1515999    4.3030896    3.4559707 
H    -1.4276715   -3.1279053   -1.8099631 
H    -0.0747215   -0.9032620    2.6415821 
H     1.5045968    0.8360584    2.6373027 
H     1.2358400    0.9901196   -2.6637416 
H    -2.6893941   -2.8661112    2.3333453 
H    -4.1059594    0.1013892    1.4193895 
H     2.7396853    4.0288997   -0.0213390 
H     0.3910632    4.7055641   -0.6095961 
H    -5.5726584    0.7763918   -3.6018520 
H    -4.2333247    4.0007263    2.1044081 
H    -2.1817100   -5.4956385   -1.8862631 
H    -0.5965469   -0.1722748    4.9725630 
H     3.2627571    1.5162503    4.2684333 
H     1.4873244    2.2362394   -4.8168534 
H    -3.4019940   -5.2486112    2.2595556 
H    -4.6199643    0.8472269    3.7406387 
H     4.4726178    4.7181426    1.6169539 
H     0.6384700    5.9481831   -2.7543120 
H    -3.1874967   -6.5605525    0.1413855 
H    -2.8714754    0.7147514    5.5210181 
H     4.7518939    3.4642242    3.7630239 
H     1.1942843    4.7201217   -4.8599104 
