96
Energy =
C     3.0630425   -0.1699582    0.0160836 
C     2.6428322   -1.4132682   -0.5431238 
C     2.1114453   -1.4864554   -1.8514706 
H     2.6178421   -2.3009865    0.1017574 
Pd    0.8770395   -0.1148814   -0.4727283 
P    -1.2185953   -0.9740290   -1.1489669 
P     0.3599344    1.8094920    0.8341143 
H     3.4567043    0.5921526   -0.6722253 
H     2.3077464   -0.6303044   -2.5157591 
C     4.4816842    0.0686899    4.0741950 
C     3.3320315   -0.6824023    3.7778984 
C     2.8657442   -0.7592790    2.4619008 
C     3.5318641   -0.0799456    1.4159641 
C     4.6791720    0.6778129    1.7292859 
C     5.1530751    0.7452125    3.0454894 
H     4.8484101    0.1290501    5.1040643 
H     2.7953066   -1.2043645    4.5770591 
H     1.9580255   -1.3314235    2.2382667 
H     5.2036157    1.2147949    0.9324656 
H     6.0468608    1.3365731    3.2690493 
C     0.9204161   -5.0284681   -3.9701135 
C     1.3826617   -5.1337385   -2.6476120 
C     1.7538765   -3.9903109   -1.9360614 
C     1.6822700   -2.7117335   -2.5384739 
C     1.2202509   -2.6232206   -3.8728718 
C     0.8366433   -3.7677760   -4.5795138 
H     0.6312483   -5.9277907   -4.5236131 
H     1.4520603   -6.1146934   -2.1676155 
H     2.1137025   -4.0969270   -0.9090196 
H     1.1678587   -1.6449931   -4.3601277 
H     0.4818297   -3.6761446   -5.6110902 
O    -2.0861581    1.6490674   -0.9481251 
C    -0.5786398    3.2226348    0.0762064 
C    -2.6210664   -0.4580428   -0.0873819 
C    -1.7262409    2.9628082   -0.7027021 
C    -2.8396905    0.9330595   -0.0376902 
C    -0.6216614    1.4404760    2.3441845 
C     1.8617182    2.6839246    1.4408147 
C    -1.7769413   -0.5891267   -2.8517861 
C    -1.2303371   -2.8023150   -0.9555097 
C    -0.2155689    4.5730480    0.2707333 
C    -3.3834899   -1.2939383    0.7476259 
C    -2.4699812    3.9879836   -1.2970050 
C    -3.7492823    1.5064986    0.8557608 
C    -0.9632352    5.6098745   -0.3054212 
C    -4.3139914   -0.7355294    1.6359050 
C    -0.8124330    0.1045882    2.7398839 
C     2.1621421    2.8215156    2.8074311 
C    -0.9143369    0.1087382   -3.7169659 
C    -1.7502646   -3.6881913   -1.9162272 
C    -1.1863343    2.4808441    3.1120662 
C     2.7300057    3.2434800    0.4775973 
C    -3.0792847   -0.9169341   -3.2811862 
C    -0.7106176   -3.3204130    0.2518939 
C    -2.0851245    5.3201225   -1.0954216 
C    -4.4802909    0.6567719    1.6992450 
C    -1.5540755   -0.1933711    3.8908307 
C     3.3015975    3.5384231    3.2048857 
C    -1.3317576    0.4424200   -5.0124715 
C    -1.7798593   -5.0663248   -1.6560260 
C    -1.9209392    2.1801679    4.2654540 
C     3.8573355    3.9686284    0.8808935 
C    -3.4922680   -0.5859170   -4.5789312 
C    -0.7508041   -4.6958611    0.5113860 
C    -2.1064310    0.8438329    4.6555352 
C     4.1413814    4.1229916    2.2478595 
C    -2.6178914    0.0872323   -5.4469372 
C    -1.2938172   -5.5715020   -0.4419472 
H     0.6608866    4.8174373    0.8772449 
H    -3.2347327   -2.3776331    0.7158175 
H    -3.3365437    3.7225303   -1.9091783 
H    -3.8745203    2.5922494    0.8944073 
H    -0.6613744    6.6484224   -0.1379390 
H    -4.9013376   -1.3880739    2.2889941 
H    -0.3917118   -0.6997109    2.1278126 
H     1.5133233    2.3698957    3.5632440 
H     0.0782312    0.4073837   -3.3610693 
H    -2.1200012   -3.3098121   -2.8731873 
H    -1.0557730    3.5238352    2.8044224 
H     2.5075749    3.1320629   -0.5906036 
H    -3.7732207   -1.4176655   -2.5968395 
H    -0.2763092   -2.6375721    0.9923241 
H    -2.6622470    6.1290595   -1.5544628 
H    -5.1911480    1.0911011    2.4093290 
H    -1.7086068   -1.2368840    4.1831436 
H     3.5309993    3.6352476    4.2708111 
H    -0.6567325    0.9879894   -5.6801599 
H    -2.1816442   -5.7479165   -2.4126720 
H    -2.3551460    2.9911279    4.8593553 
H     4.5154510    4.4144378    0.1277445 
H    -4.5029080   -0.8461297   -4.9103629 
H    -0.3545693   -5.0848133    1.4551879 
H    -2.6889198    0.6120555    5.5532629 
H     5.0237412    4.6890162    2.5636316 
H    -2.9452277    0.3477419   -6.4588354 
H    -1.3254992   -6.6477314   -0.2430870 
