96
Energy =
C     1.5160846   -2.3988081   -1.3953030 
C     2.5059414   -1.7703141   -0.5802141 
C     2.4094136   -1.7940476    0.8295423 
H     3.2869629   -1.1683563   -1.0634236 
Pd    0.5908677   -0.7924045   -0.1499349 
P     0.4698489    1.0092191    1.3826803 
P    -1.5729995   -0.7108224   -1.1386649 
H     1.0125124   -3.2902671   -0.9930152 
H     1.7604491   -2.5686074    1.2669137 
C     1.7322142   -2.1524138   -5.6876279 
C     1.8877362   -0.9909812   -4.9108230 
C     1.8207083   -1.0660881   -3.5156097 
C     1.5822418   -2.3014078   -2.8693632 
C     1.4190092   -3.4578110   -3.6611355 
C     1.5043761   -3.3848836   -5.0578080 
H     1.7874073   -2.0940834   -6.7795613 
H     2.0551465   -0.0242727   -5.3970493 
H     1.9093725   -0.1524049   -2.9154299 
H     1.2224923   -4.4193103   -3.1753458 
H     1.3831438   -4.2933900   -5.6569427 
C     5.2508613   -0.2337781    3.6453561 
C     5.2151562    0.2906464    2.3421644 
C     4.2901351   -0.1932630    1.4128227 
C     3.3715589   -1.2072759    1.7723216 
C     3.4068165   -1.7111996    3.0931624 
C     4.3436520   -1.2369393    4.0170926 
H     5.9818334    0.1425564    4.3684531 
H     5.9160903    1.0784356    2.0477630 
H     4.2812680    0.2256688    0.4032530 
H     2.6934409   -2.4868827    3.3908352 
H     4.3593258   -1.6450783    5.0323784 
O    -0.8854180    2.2078080   -0.7794446 
C    -2.0138617    0.6843094   -2.2695246 
C    -1.1084680    1.9317448    1.5552234 
C    -1.5536857    1.9875659   -1.9747968 
C    -1.6430991    2.4514665    0.3597601 
C    -2.0697305   -2.2105317   -2.0916061 
C    -2.7999877   -0.6614991    0.2306517 
C     0.9221282    0.6268172    3.1225510 
C     1.6080059    2.3453473    0.8236854 
C    -2.7493023    0.5071178   -3.4613568 
C    -1.8074717    2.1453146    2.7564172 
C    -1.7314599    3.0541692   -2.8625335 
C    -2.8379358    3.1791330    0.3450182 
C    -2.9629832    1.5769042   -4.3415950 
C    -3.0120715    2.8637656    2.7544596 
C    -1.5690889   -2.4108812   -3.3970911 
C    -2.5231568   -1.4189077    1.3879424 
C     1.9306898    1.3099222    3.8272935 
C     2.4275238    2.1418686   -0.3012324 
C    -2.9272943   -3.1800491   -1.5290219 
C    -4.0019051    0.0635700    0.1480530 
C     0.2060949   -0.4045293    3.7685935 
C     1.6117769    3.6012737    1.4648667 
C    -2.4356695    2.8446971   -4.0560818 
C    -3.5200899    3.3802286    1.5536208 
C    -1.9419696   -3.5463211   -4.1289479 
C    -3.4344241   -1.4470397    2.4508434 
C     2.1934938    0.9863103    5.1665151 
C     3.2703926    3.1628495   -0.7600606 
C    -3.2784816   -4.3229529   -2.2606781 
C    -4.9040757    0.0465945    1.2213587 
C     0.4688345   -0.7196041    5.1076956 
C     2.4589922    4.6198977    1.0078952 
C    -2.7926099   -4.5067752   -3.5634734 
C    -4.6237424   -0.7059979    2.3709565 
C     1.4602545   -0.0185560    5.8122398 
C     3.2928512    4.4006644   -0.1000857 
H    -3.1547764   -0.4780622   -3.7071807 
H    -1.4083960    1.7468689    3.6940315 
H    -1.3260470    4.0343237   -2.5955233 
H    -3.2320199    3.5707707   -0.5966138 
H    -3.5379205    1.4131456   -5.2582456 
H    -3.5510521    3.0218772    3.6934568 
H    -0.9015473   -1.6747772   -3.8547665 
H    -1.5896293   -1.9935397    1.4454185 
H     2.5263172    2.0815834    3.3325341 
H     2.3821158    1.1812990   -0.8277511 
H    -3.3365903   -3.0402645   -0.5244708 
H    -4.2272381    0.6506140   -0.7478886 
H    -0.5706825   -0.9494066    3.2232931 
H     0.9446261    3.7864425    2.3139681 
H    -2.5838701    3.6751698   -4.7536717 
H    -4.4573911    3.9459555    1.5523925 
H    -1.5542353   -3.6788201   -5.1437946 
H    -3.2149007   -2.0422004    3.3434892 
H     2.9850489    1.5198763    5.7023761 
H     3.9032146    2.9951926   -1.6379568 
H    -3.9476830   -5.0646306   -1.8123777 
H    -5.8299656    0.6271991    1.1578847 
H    -0.1009868   -1.5136120    5.6018360 
H     2.4614554    5.5911044    1.5135758 
H    -3.0788351   -5.3942350   -4.1373092 
H    -5.3324390   -0.7157697    3.2054097 
H     1.6670024   -0.2635423    6.8591880 
H     3.9503026    5.2003074   -0.4569010 
