96
Energy =
C     1.6450401   -2.1963862    1.3915479 
C     2.6825632   -1.2565332    1.0891976 
C     2.6762852    0.0267121    1.6757715 
H     3.4118056   -1.4919703    0.3027786 
Pd    0.7640086   -0.3804785    0.4505847 
P     0.3556469    1.7668520   -0.4409175 
P    -1.3820642   -1.3406137    0.2579032 
H     1.2188498   -2.1504149    2.4019872 
H     2.0135260    0.1793752    2.5424044 
C     1.4731946   -6.0967962   -0.4086762 
C     1.8759360   -4.9928476   -1.1791142 
C     1.9112056   -3.7154965   -0.6128772 
C     1.5481892   -3.5163372    0.7397560 
C     1.1092364   -4.6286810    1.4922806 
C     1.0824224   -5.9093844    0.9253569 
H     1.4521616   -7.0973322   -0.8526948 
H     2.1541096   -5.1297655   -2.2289447 
H     2.2026406   -2.8563404   -1.2279463 
H     0.8059055   -4.4848273    2.5354101 
H     0.7575862   -6.7637852    1.5282966 
C     5.5299949    3.1793859    1.0887394 
C     4.2977281    3.4332153    1.7113414 
C     3.3908776    2.3897247    1.9195216 
C     3.6856105    1.0771210    1.4841259 
C     4.9395563    0.8302249    0.8794412 
C     5.8523070    1.8725800    0.6878312 
H     6.2437127    3.9939463    0.9292464 
H     4.0464160    4.4470275    2.0399544 
H     2.4301426    2.5888045    2.4064109 
H     5.2090840   -0.1844989    0.5688321 
H     6.8229708    1.6657607    0.2255100 
O    -1.8250232    1.1702590    1.5273854 
C    -2.7794757   -0.2102584   -0.1455651 
C    -0.2389458    2.8881025    0.8971748 
C    -2.8516718    0.9780549    0.6111069 
C    -1.2826150    2.4319041    1.7395628 
C    -1.5025072   -2.7239648   -0.9359807 
C    -1.9822633   -1.9801376    1.8817672 
C     1.7712085    2.6032351   -1.2678057 
C    -0.8642320    1.8869170   -1.8146478 
C    -3.8025293   -0.4764947   -1.0731600 
C     0.3808093    4.1118654    1.2266151 
C    -3.9148667    1.8756893    0.4729727 
C    -1.7010643    3.1650510    2.8554897 
C    -4.8632977    0.4261382   -1.2369772 
C    -0.0408518    4.8577064    2.3366455 
C    -1.4109078   -2.4240212   -2.3134160 
C    -3.1597063   -2.7557801    1.9468293 
C     2.9416210    1.8675951   -1.5221544 
C    -1.8990688    2.8361740   -1.8594572 
C    -1.5669722   -4.0711697   -0.5284749 
C    -1.3451612   -1.5947345    3.0760204 
C     1.6481972    3.9120792   -1.7846446 
C    -0.6491835    1.0349616   -2.9171475 
C    -4.9208832    1.5932486   -0.4613498 
C    -1.0823903    4.3882442    3.1496713 
C    -1.4120163   -3.4516807   -3.2636914 
C    -3.6530805   -3.1827179    3.1861853 
C     3.9990957    2.4454767   -2.2390584 
C    -2.7348789    2.9059252   -2.9840596 
C    -1.5626501   -5.0953833   -1.4858257 
C    -1.8460650   -2.0167373    4.3157509 
C     2.7097146    4.4892385   -2.4912111 
C    -1.4803125    1.1143212   -4.0409341 
C    -1.4889916   -4.7915064   -2.8517055 
C    -2.9933665   -2.8209698    4.3716687 
C     3.8894609    3.7594821   -2.7127265 
C    -2.5315542    2.0448730   -4.0713939 
H    -3.7696729   -1.3939890   -1.6684056 
H     1.2187777    4.4728974    0.6242936 
H    -3.9442448    2.7852930    1.0798744 
H    -2.4969842    2.7571022    3.4852279 
H    -5.6495381    0.2112006   -1.9669414 
H     0.4550996    5.8050217    2.5699836 
H    -1.3531269   -1.3819868   -2.6406536 
H    -3.6952873   -3.0220374    1.0292723 
H     3.0180568    0.8368313   -1.1620363 
H    -2.0581849    3.5159228   -1.0165015 
H    -1.6086883   -4.3286284    0.5324135 
H    -0.4700756   -0.9381338    3.0326594 
H     0.7151312    4.4717201   -1.6573526 
H     0.1827797    0.3205596   -2.8961982 
H    -5.7552109    2.2918514   -0.5811739 
H    -1.4075480    4.9664493    4.0203555 
H    -1.3529492   -3.2049669   -4.3290330 
H    -4.5610710   -3.7932801    3.2265635 
H     4.9092005    1.8663230   -2.4231509 
H    -3.5487216    3.6378619   -3.0072889 
H    -1.6088363   -6.1374880   -1.1550462 
H    -1.3420784   -1.7111125    5.2385521 
H     2.6104846    5.5063428   -2.8842621 
H    -1.3070446    0.4513221   -4.8952338 
H    -1.4877613   -5.5957515   -3.5946787 
H    -3.3827071   -3.1550521    5.3389517 
H     4.7160594    4.2126523   -3.2697169 
H    -3.1860818    2.1038474   -4.9469919 
