96
Energy =
C     2.5802459   -0.6565182   -1.5811031 
C     2.3198388   -1.8472332   -0.8554077 
C     1.2578930   -2.7069649   -1.2356680 
H     2.8882326   -2.0759003    0.0548768 
Pd    0.5169738   -0.6259838   -0.6042174 
P    -1.6511881   -1.0855732    0.2645102 
P     0.5763733    1.7297617   -0.3730525 
H     2.1846410   -0.6192137   -2.6062507 
H     0.9226621   -2.6475523   -2.2827255 
C     5.9575564    1.9373027   -1.0262089 
C     5.5945419    1.0454311   -0.0025829 
C     4.4757059    0.2219673   -0.1480075 
C     3.7008303    0.2622317   -1.3312853 
C     4.0628119    1.1831890   -2.3417552 
C     5.1819255    2.0105428   -2.1920745 
H     6.8382735    2.5771573   -0.9094264 
H     6.1860245    0.9971876    0.9169591 
H     4.2042028   -0.4586472    0.6646516 
H     3.4657342    1.2369691   -3.2582157 
H     5.4530573    2.7076954   -2.9915488 
C     0.6793726   -6.5253770    0.6457778 
C     0.6577573   -6.4076027   -0.7517006 
C     0.8081513   -5.1520218   -1.3519640 
C     1.0131103   -3.9969588   -0.5650329 
C     1.0311368   -4.1297002    0.8413886 
C     0.8597688   -5.3807986    1.4404212 
H     0.5471870   -7.5045417    1.1172407 
H     0.5164083   -7.2958897   -1.3761193 
H     0.7863067   -5.0625294   -2.4439876 
H     1.1453939   -3.2349494    1.4641543 
H     0.8543397   -5.4652866    2.5318029 
O    -2.0732929    1.5224747   -1.2882660 
C    -0.8429520    2.5792764    0.4257537 
C    -3.1247259   -0.5837175   -0.7451805 
C    -2.0946794    2.3590720   -0.1796135 
C    -3.1313226    0.6399364   -1.4524447 
C     2.0031114    2.3218724    0.6231091 
C     0.6390258    2.6046637   -1.9914322 
C    -2.0498685   -2.8392284    0.6513421 
C    -1.8247942   -0.2635552    1.8974847 
C    -0.7739256    3.4221371    1.5493209 
C    -4.2422454   -1.4322226   -0.9066685 
C    -3.2600018    2.9694061    0.2967426 
C    -4.1597704    0.9788806   -2.3383733 
C    -1.9364050    4.0299770    2.0458357 
C    -5.2934731   -1.0872007   -1.7671858 
C     2.9111400    3.3035084    0.1851211 
C     0.6346093    1.8724872   -3.1926206 
C    -2.3617673   -3.2661958    1.9570945 
C    -0.7243254   -0.3342922    2.7767310 
C     2.1615104    1.7598311    1.9087596 
C     0.6021548    4.0142427   -2.0410660 
C    -2.0685821   -3.7742367   -0.4055505 
C    -3.0084100    0.3690620    2.3158254 
C    -3.1705580    3.8081540    1.4170308 
C    -5.2452965    0.1075255   -2.4995221 
C     3.9421108    3.7329944    1.0333058 
C     0.6431497    2.5351605   -4.4276290 
C    -2.6933649   -4.6076756    2.1970581 
C    -0.8014916    0.2359362    4.0533575 
C     3.1875832    2.1983955    2.7544502 
C     0.6178258    4.6749082   -3.2766021 
C    -2.4194399   -5.1062693   -0.1630636 
C    -3.0762111    0.9531379    3.5890123 
C     4.0783343    3.1917223    2.3190632 
C     0.6465867    3.9372599   -4.4706754 
C    -2.7269587   -5.5272292    1.1402146 
C    -1.9763013    0.8901497    4.4566318 
H     0.1894959    3.6012046    2.0358311 
H    -4.2865534   -2.3778349   -0.3597997 
H    -4.2188469    2.7823843   -0.1946476 
H    -4.0945954    1.9268148   -2.8801330 
H    -1.8752040    4.6813360    2.9229116 
H    -6.1479054   -1.7631436   -1.8708177 
H     2.8312668    3.7239425   -0.8204706 
H     0.5976278    0.7786330   -3.1570284 
H    -2.3564116   -2.5540934    2.7871983 
H     0.1893589   -0.8504904    2.4559486 
H     1.4644733    0.9894244    2.2507608 
H     0.5484079    4.5954891   -1.1140487 
H    -1.8197616   -3.4540525   -1.4234554 
H    -3.8720275    0.4134311    1.6450813 
H    -4.0758368    4.2901835    1.8000456 
H    -6.0554680    0.3679950   -3.1880308 
H     4.6474153    4.4912367    0.6785128 
H     0.6368892    1.9558222   -5.3567892 
H    -2.9340011   -4.9300794    3.2153825 
H     0.0557240    0.1745261    4.7320569 
H     3.2920949    1.7632170    3.7539355 
H     0.5973892    5.7692541   -3.3068279 
H    -2.4347457   -5.8220834   -0.9903324 
H    -3.9943539    1.4602095    3.9023856 
H     4.8830638    3.5351300    2.9773093 
H     0.6545809    4.4562717   -5.4347556 
H    -2.9893828   -6.5730521    1.3294744 
H    -2.0349417    1.3477821    5.4495029 
