105
Energy =
C     0.8834506   -2.4909737    1.1848965 
C     0.7443756   -2.8229057   -0.1923593 
C     1.5243018   -2.1679643   -1.1781260 
H    -0.0787139   -3.4762029   -0.5062829 
Pd    0.3017783   -0.6739089    0.0040686 
P     0.0642545    1.1028231   -1.4941339 
P    -0.4361285    0.7725572    1.6804927 
H     1.8650069   -2.1121795    1.5061047 
H     2.4722862   -1.7209572   -0.8410208 
C    -1.4841427   -4.0690740    4.4194616 
C    -0.2483506   -3.4523574    4.6670048 
C     0.5156812   -2.9566928    3.6029491 
C     0.0569906   -3.0552594    2.2692918 
C    -1.1901130   -3.6813294    2.0355459 
C    -1.9471030   -4.1869890    3.0978758 
H    -2.0818707   -4.4600669    5.2489299 
H     0.1253617   -3.3639058    5.6923911 
H     1.4867408   -2.4882370    3.8018562 
H    -1.5850038   -3.7559700    1.0169100 
H    -2.9100571   -4.6675282    2.8963390 
C     1.3955699   -2.7755313   -5.4379179 
C     0.3747909   -3.3074969   -4.6317385 
C     0.3959150   -3.1186071   -3.2457157 
C     1.4477213   -2.3995666   -2.6315596 
C     2.4757799   -1.8828697   -3.4544276 
C     2.4481651   -2.0636230   -4.8425181 
H     1.3725984   -2.9220741   -6.5224224 
H    -0.4453751   -3.8702633   -5.0891133 
H    -0.4191828   -3.5275999   -2.6399004 
H     3.3060513   -1.3356179   -2.9928141 
H     3.2533045   -1.6539500   -5.4611356 
C    -1.0586258    0.9177408   -2.9830131 
C     1.6984112    1.7371630   -2.1272097 
C    -2.1759168    0.5673373    2.3448871 
C     0.6851340    0.8611510    3.1646602 
C    -0.7543037    2.4972635   -0.5505961 
C    -0.3933430    2.4943512    0.9424731 
C    -0.3444637    0.3714427   -4.2370095 
C    -2.2603749    0.0218625   -2.6001401 
C     1.6311321    3.0824700   -2.8816058 
C     2.7740623    1.7828109   -1.0193900 
C    -3.1386920    0.2044508    1.1902622 
C    -2.2386970   -0.4853292    3.4733816 
C     2.1727248    0.9326005    2.7544414 
C     0.3320218    1.9891880    4.1600494 
C    -1.3298954    0.1940991   -5.4067313 
C    -3.2376179   -0.1444674   -3.7766348 
C     3.0086590    3.4335259   -3.4774065 
C     4.1495912    2.1369019   -1.6127032 
C    -4.5735785   -0.0367655    1.6903806 
C    -3.6815671   -0.7218551    3.9528015 
C     3.0832432    0.8695332    3.9943453 
C     1.2477238    1.9232899    5.3977531 
C    -2.5218954   -0.6946949   -5.0196998 
C     4.1001817    3.4606789   -2.3944525 
C    -4.6079276   -1.1083809    2.7903338 
C     2.7331264    1.9750604    5.0043240 
H    -1.4301097    1.9402759   -3.2009239 
H     1.9933248    0.9443128   -2.8443312 
H    -2.4641756    1.5564905    2.7549637 
H     0.5204868   -0.1161456    3.6599179 
H    -1.8401190    2.3485498   -0.6869622 
H    -0.5035619    3.4637927   -1.0217966 
H    -1.0622336    3.1608203    1.5152698 
H     0.6372276    2.8633731    1.0887602 
H     0.1128881   -0.6023393   -3.9969286 
H     0.4743037    1.0432167   -4.5462563 
H    -2.7887503    0.4349323   -1.7227687 
H    -1.8702479   -0.9698592   -2.2941455 
H     1.3297257    3.8817174   -2.1768171 
H     0.8662274    3.0528467   -3.6778710 
H     2.8137707    0.8137399   -0.4877218 
H     2.4954873    2.5459563   -0.2666738 
H    -2.7590057   -0.7095424    0.6911147 
H    -3.1385060    1.0045767    0.4287381 
H    -1.6138200   -0.1767958    4.3286420 
H    -1.8225385   -1.4357628    3.0997373 
H     2.3645933    1.8789126    2.2118582 
H     2.4128741    0.1137065    2.0514990 
H    -0.7267102    1.9251233    4.4680806 
H     0.4627171    2.9695236    3.6621486 
H    -0.7893484   -0.2373287   -6.2683603 
H    -1.7005345    1.1876577   -5.7276418 
H    -3.6905603    0.8381064   -4.0143880 
H    -4.0669151   -0.8100402   -3.4762773 
H     2.9520140    4.4080499   -3.9941023 
H     3.2689727    2.6807912   -4.2473020 
H     4.4675439    1.3197350   -2.2904338 
H     4.9026566    2.1902814   -0.8061437 
H    -5.2141712   -0.3276068    0.8383871 
H    -4.9856490    0.9115843    2.0874819 
H    -4.0646102    0.1972180    4.4387656 
H    -3.6758150   -1.5120508    4.7247684 
H     4.1408549    0.9469896    3.6848145 
H     2.9652028   -0.1211351    4.4766209 
H     1.0428316    0.9825114    5.9455103 
H     1.0001074    2.7506710    6.0863418 
H    -3.2283503   -0.7780180   -5.8645057 
H    -2.1564541   -1.7178502   -4.8055829 
H     5.0840924    3.6729476   -2.8486685 
H     3.8925628    4.2903758   -1.6898491 
H    -5.6410334   -1.2538056    3.1524748 
H    -4.2768872   -2.0779645    2.3681500 
H     3.3700413    1.8878320    5.9022275 
H     2.9564040    2.9625202    4.5537473 
