105
Energy =
C     1.3076195   -2.2560180    1.1647838 
C     0.9555386   -2.6855234   -0.1397102 
C     1.6066346   -2.1609600   -1.2882384 
H     0.0628200   -3.3086387   -0.2702113 
Pd    0.6309318   -0.5052358   -0.0841657 
P     0.2591086    1.1763332   -1.6696088 
P    -0.4394107    0.8625837    1.4850074 
H     2.3123785   -1.8242896    1.2945023 
H     2.6377855   -1.8062751   -1.1510797 
C    -0.4900186   -3.5380751    4.8640347 
C     0.6167391   -2.6745748    4.8614437 
C     1.1963997   -2.2798047    3.6499763 
C     0.6733092   -2.7220701    2.4126482 
C    -0.4342338   -3.6017540    2.4323144 
C    -1.0045972   -4.0074325    3.6442614 
H    -0.9416086   -3.8535107    5.8098918 
H     1.0358069   -2.3154367    5.8071817 
H     2.0693691   -1.6175478    3.6549676 
H    -0.8594481   -3.9753533    1.4955875 
H    -1.8595116   -4.6913215    3.6375449 
C     0.6281222   -3.1018628   -5.3814520 
C     1.8230444   -2.4398656   -5.0613690 
C     2.1295032   -2.1476435   -3.7268163 
C     1.2413434   -2.4903893   -2.6800889 
C     0.0402377   -3.1553220   -3.0204500 
C    -0.2552478   -3.4665576   -4.3521926 
H     0.3908534   -3.3422522   -6.4226433 
H     2.5278279   -2.1640818   -5.8526918 
H     3.0770575   -1.6566806   -3.4856504 
H    -0.6738373   -3.4380029   -2.2401966 
H    -1.1831821   -3.9968420   -4.5896900 
C    -0.6142309    0.5870636   -3.2188704 
C     1.6267766    2.3072391   -2.3092428 
C    -2.1759806    0.2984160    1.9456447 
C     0.4092311    1.2470795    3.0970653 
C    -0.9180075    2.3946703   -0.8617965 
C    -0.6827195    2.5197575    0.6536717 
C    -1.9044466   -0.1791231   -2.8493340 
C    -0.8958967    1.6901650   -4.2632108 
C     2.3139868    3.1549495   -1.2146293 
C     2.6822507    1.5772095   -3.1728405 
C    -2.7986411   -0.4908566    0.7711262 
C    -2.2117272   -0.5302846    3.2488404 
C     1.9210677    1.4949832    2.9214505 
C    -0.2476991    2.3949496    3.8975510 
C    -2.6148377   -0.7314197   -4.0972804 
C    -1.6095505    1.1115436   -5.5006725 
C     3.3169302    2.3490036   -0.3775222 
C     3.7243359    0.8180570   -2.3349837 
C    -4.2147679   -0.9928369    1.0986299 
C    -3.6292963   -1.0471029    3.5553136 
C     2.6058807    1.6614805    4.2905372 
C     0.4376980    2.5530615    5.2684460 
C    -2.9040489    0.3790525   -5.1179883 
C     4.3865265    1.7109656   -1.2757662 
C    -4.2183362   -1.8402904    2.3793850 
C     1.9505525    2.7815569    5.1158253 
H     0.0955431   -0.1459855   -3.6521671 
H     1.0549071    2.9953789   -2.9590025 
H    -2.7595211    1.2286822    2.0989670 
H     0.2930457    0.3049167    3.6669605 
H    -1.9393584    2.0272079   -1.0610735 
H    -0.8278591    3.3783419   -1.3567375 
H    -1.5131960    3.0627359    1.1385248 
H     0.2406260    3.0914937    0.8555139 
H    -2.6018632    0.5040655   -2.3262365 
H    -1.6628609   -0.9939144   -2.1427756 
H     0.0424774    2.1773722   -4.5799541 
H    -1.5321405    2.4754958   -3.8086153 
H     1.5678082    3.6569128   -0.5740861 
H     2.8555434    3.9696799   -1.7336995 
H     3.1973011    2.3509271   -3.7746132 
H     2.1994812    0.8950167   -3.8959766 
H    -2.1419711   -1.3555734    0.5452226 
H    -2.8179028    0.1305115   -0.1399032 
H    -1.8547641    0.0699930    4.1022792 
H    -1.5262071   -1.3887921    3.1513614 
H     2.0811933    2.4106280    2.3206662 
H     2.3778248    0.6615084    2.3566671 
H    -1.3300695    2.2168935    4.0292050 
H    -0.1457332    3.3405916    3.3309934 
H    -3.5487189   -1.2378997   -3.7930738 
H    -1.9706373   -1.4979464   -4.5647708 
H    -0.9248130    0.4048776   -6.0092622 
H    -1.8175790    1.9259523   -6.2173870 
H     2.7779751    1.5466906    0.1666997 
H     3.7790358    2.9986415    0.3869069 
H     4.4834221    0.3729466   -3.0027921 
H     3.2218844   -0.0178544   -1.8165501 
H    -4.6066573   -1.5718530    0.2428280 
H    -4.8896642   -0.1241112    1.2288057 
H    -4.2906287   -0.1885853    3.7855408 
H    -3.5923278   -1.6719563    4.4658009 
H     3.6823857    1.8638444    4.1471607 
H     2.5333781    0.7056197    4.8465309 
H     0.2593787    1.6380150    5.8669977 
H    -0.0266465    3.3888378    5.8215531 
H    -3.3850606   -0.0439716   -6.0176260 
H    -3.6227156    1.1036387   -4.6858982 
H     4.9754974    2.5075858   -1.7708948 
H     5.0980102    1.1207329   -0.6709509 
H    -5.2432317   -2.1761241    2.6169731 
H    -3.6121519   -2.7530556    2.2151447 
H     2.4287858    2.8541776    6.1085470 
H     2.1223894    3.7528246    4.6109564 
