105
Energy =
C     1.0677219   -2.6036132    1.2045850 
C     0.8512806   -2.9380663   -0.1604562 
C     1.5927927   -2.2843156   -1.1819356 
H    -0.0079234   -3.5630239   -0.4325036 
Pd    0.4573194   -0.7852994    0.0258748 
P     0.1751510    0.9083578   -1.5467842 
P    -0.4267207    0.6832385    1.6040058 
H     2.0615282   -2.2088075    1.4650366 
H     2.5828696   -1.8977460   -0.8966460 
C    -1.1312030   -4.0486347    4.6150038 
C    -1.6124331   -4.3060012    3.3203288 
C    -0.9104099   -3.8483360    2.1997234 
C     0.2990161   -3.1299376    2.3479699 
C     0.7788607   -2.8926966    3.6571842 
C     0.0696168   -3.3408487    4.7781697 
H    -1.6859160   -4.4038624    5.4892105 
H    -2.5455512   -4.8623118    3.1843269 
H    -1.3167816   -4.0429698    1.2018868 
H     1.7215903   -2.3491241    3.7906169 
H     0.4588343   -3.1441066    5.7825321 
C     1.0511218   -2.5439952   -5.4472368 
C     2.1423549   -1.8523022   -4.8980885 
C     2.3139943   -1.8020793   -3.5096669 
C     1.3916010   -2.4262237   -2.6363943 
C     0.3026975   -3.1257146   -3.2044345 
C     0.1407507   -3.1885155   -4.5934830 
H     0.9169803   -2.5915921   -6.5325555 
H     2.8670250   -1.3591902   -5.5543432 
H     3.1732967   -1.2685831   -3.0869126 
H    -0.4289804   -3.6238442   -2.5604031 
H    -0.7025414   -3.7455338   -5.0145508 
C    -0.7366082    0.3908211   -3.0866157 
C     1.7758750    1.7058868   -2.1196922 
C    -2.1716395    0.3391886    2.1972463 
C     0.6158977    0.9454334    3.1216734 
C    -0.8599130    2.2319732   -0.7298547 
C    -0.5127194    2.3574344    0.7635881 
C    -2.0461810   -0.3403417   -2.7131679 
C    -0.9810520    1.5135514   -4.1177282 
C     1.6895567    3.2207906   -2.4136341 
C     2.9432992    1.4230304   -1.1462642 
C    -3.0093989   -0.2515933    1.0381430 
C    -2.1889094   -0.6008040    3.4234801 
C     2.1132732    1.0782062    2.7665238 
C     0.1539324    2.1136658    4.0208979 
C    -2.7730888   -0.8629760   -3.9646752 
C    -1.7094593    0.9622738   -5.3593017 
C     3.0196636    3.7371524   -2.9960218 
C     4.2753122    1.9415032   -1.7163884 
C    -4.4408404   -0.5973045    1.4825594 
C    -3.6251621   -0.9557578    3.8480301 
C     2.9692022    1.1503555    4.0443475 
C     1.0148583    2.1839188    5.2971144 
C    -3.0239785    0.2624046   -4.9807385 
C     4.1990352    3.4388927   -2.0564189 
C    -4.4329978   -1.5521034    2.6857322 
C     2.5115107    2.2965087    4.9623050 
H    -0.0507572   -0.3529583   -3.5380099 
H     1.9860290    1.1720329   -3.0687994 
H    -2.5986588    1.3205269    2.4871000 
H     0.4888962   -0.0053134    3.6764531 
H    -1.9109069    1.9207865   -0.8597092 
H    -0.7444717    3.1975963   -1.2500269 
H    -1.2367822    3.0053420    1.2885602 
H     0.4857749    2.8165488    0.8854444 
H    -2.7202486    0.3555196   -2.1759820 
H    -1.8219790   -1.1693778   -2.0155374 
H    -0.0232619    1.9689873   -4.4240149 
H    -1.5921729    2.3156332   -3.6589026 
H     1.4796508    3.7598508   -1.4689035 
H     0.8589787    3.4479202   -3.1037133 
H     3.0085942    0.3413908   -0.9336935 
H     2.7358687    1.9184733   -0.1779061 
H    -2.5014931   -1.1669525    0.6732943 
H    -3.0391248    0.4505268    0.1866313 
H    -1.6609100   -0.1389919    4.2748114 
H    -1.6451016   -1.5278674    3.1736713 
H     2.2731109    1.9988720    2.1712766 
H     2.4290823    0.2311734    2.1293405 
H    -0.9132126    2.0077359    4.2861319 
H     0.2524574    3.0645591    3.4621196 
H    -3.7243065   -1.3396509   -3.6668781 
H    -2.1524781   -1.6480410   -4.4350310 
H    -1.0430491    0.2403834   -5.8707798 
H    -1.8968394    1.7854154   -6.0717460 
H     2.9414693    4.8221311   -3.1876392 
H     3.1949849    3.2537919   -3.9771896 
H     4.5191694    1.3674429   -2.6326262 
H     5.0901045    1.7474517   -0.9959239 
H    -4.9914886   -1.0410077    0.6335206 
H    -4.9744357    0.3348055    1.7538246 
H    -4.1342083   -0.0446831    4.2198711 
H    -3.5819775   -1.6644316    4.6945156 
H     4.0337299    1.2705225    3.7747508 
H     2.8854442    0.1875907    4.5866538 
H     0.8383522    1.2710241    5.8993441 
H     0.6911635    3.0391312    5.9165773 
H    -3.5159319   -0.1410172   -5.8834851 
H    -3.7225336    1.0043332   -4.5451210 
H     5.1466097    3.7775776   -2.5111632 
H     4.0732285    4.0182173   -1.1201772 
H    -5.4658622   -1.7728542    3.0084357 
H    -3.9783051   -2.5161141    2.3839864 
H     3.1110234    2.3055740    5.8896949 
H     2.6993638    3.2639605    4.4557496 
