105
Energy =
C     1.1376681   -2.3911304    1.2214819 
C     0.6667840   -2.7609252   -0.0529182 
C     1.1421912   -2.1103649   -1.2360829 
H    -0.1654165   -3.4719875   -0.1329729 
Pd    0.1214261   -0.6149864    0.0426944 
P     0.2884524    1.2172562   -1.3818970 
P    -0.8654722    0.8150373    1.6188510 
H     2.0495884   -1.7758330    1.2580056 
H     2.1770569   -1.7406694   -1.2129344 
C     0.0927595   -4.1260363    5.0115875 
C     0.9306678   -3.0015244    4.9419759 
C     1.2717488   -2.4600452    3.6982824 
C     0.7671980   -3.0142282    2.4979861 
C    -0.0597966   -4.1594093    2.5844974 
C    -0.3901803   -4.7077595    3.8277096 
H    -0.1698943   -4.5575397    5.9827606 
H     1.3282517   -2.5542674    5.8590345 
H     1.9419907   -1.5953966    3.6451591 
H    -0.4439423   -4.6304672    1.6743714 
H    -1.0262795   -5.5975383    3.8751719 
C    -0.3128791   -2.9820478   -5.1960747 
C     1.0202149   -2.5944537   -4.9935850 
C     1.4852325   -2.3215698   -3.7003520 
C     0.6259989   -2.4270111   -2.5839510 
C    -0.7155373   -2.8202717   -2.8025280 
C    -1.1772554   -3.0976102   -4.0936003 
H    -0.6783543   -3.1931033   -6.2060529 
H     1.7015940   -2.5067280   -5.8461531 
H     2.5297082   -2.0254244   -3.5481159 
H    -1.4116852   -2.8747627   -1.9579084 
H    -2.2202512   -3.3946371   -4.2449108 
C    -0.8669452    1.4739529   -2.8341970 
C     2.0174293    1.4079666   -2.0576324 
C    -2.6470068    0.5521677    2.1801256 
C     0.1296972    1.0704544    3.1758003 
C     0.0410884    2.7265529   -0.3001150 
C    -1.0014574    2.5014122    0.8045864 
C    -0.4552780    0.6451403   -4.0690817 
C    -2.3217767    1.1606657   -2.4210532 
C     2.2550533    2.7260122   -2.8291047 
C     3.0850752    1.2201405   -0.9559460 
C    -3.5588259    0.1777951    0.9865235 
C    -2.8063019   -0.4904754    3.3070689 
C     1.6042127    1.3853637    2.8334799 
C    -0.4412316    2.1127992    4.1621518 
C    -1.4439838    0.8379022   -5.2324873 
C    -3.3024012    1.3377958   -3.5940175 
C     3.6760927    2.7557338   -3.4253626 
C     4.5017830    1.2476318   -1.5576689 
C    -3.3167304   -1.2545256    0.4824840 
C    -2.5539086   -1.9178794    2.8070238 
C     2.4656801    1.4766619    4.1062564 
C     0.4258474    2.1894062    5.4342968 
C    -2.8805758    0.4975489   -4.8087364 
C     4.7492472    2.5451365   -2.3449669 
C    -3.4555336   -2.2816393    1.6172797 
C     1.8933261    2.5009337    5.0997156 
H    -0.7905028    2.5526702   -3.0799232 
H     2.1071561    0.5593370   -2.7651831 
H    -2.9441946    1.5484251    2.5612490 
H     0.0987101    0.0725650    3.6583138 
H    -0.2283248    3.5934754   -0.9292891 
H     1.0287924    2.9412285    0.1442100 
H    -2.0218587    2.5535330    0.3869405 
H    -0.9354499    3.2870656    1.5776623 
H    -0.4331720   -0.4208643   -3.7916380 
H     0.5631177    0.9121346   -4.3995079 
H    -2.6273230    1.8110810   -1.5821582 
H    -2.3647838    0.1171509   -2.0533073 
H     2.1312195    3.5809275   -2.1361945 
H     1.5079409    2.8531797   -3.6321698 
H     2.9087832    0.2746815   -0.4104524 
H     2.9937856    2.0326338   -0.2084532 
H    -3.4473624    0.9009214    0.1607268 
H    -4.6057526    0.2697321    1.3347209 
H    -3.8445008   -0.4034968    3.6832082 
H    -2.1496947   -0.2610224    4.1644488 
H     1.6547234    2.3536418    2.2973092 
H     2.0033302    0.6205869    2.1414219 
H    -1.4839694    1.8718234    4.4325361 
H    -0.4574690    3.1085289    3.6775423 
H    -1.1284497    0.2026544   -6.0793351 
H    -1.4011105    1.8872690   -5.5855244 
H    -3.3373055    2.4072285   -3.8800663 
H    -4.3209353    1.0654927   -3.2633771 
H     3.8367760    3.7143546   -3.9498788 
H     3.7600327    1.9583526   -4.1897942 
H     4.6231058    0.3767561   -2.2321171 
H     5.2504658    1.1322765   -0.7535302 
H    -2.2876836   -1.3147791    0.0565351 
H    -4.0109766   -1.4822357   -0.3460637 
H    -2.6857539   -2.6380279    3.6326327 
H    -1.4968158   -1.9980281    2.4954765 
H     3.5047072    1.7355217    3.8344983 
H     2.5038302    0.4811141    4.5907575 
H     0.3658975    1.2207827    5.9686565 
H     0.0130767    2.9532258    6.1169376 
H    -3.5796973    0.6595601   -5.6481848 
H    -2.9355928   -0.5775621   -4.5479583 
H     5.7543427    2.5293069   -2.8021010 
H     4.7344287    3.4032586   -1.6441420 
H    -4.5112525   -2.3157415    1.9506386 
H    -3.2089593   -3.2945417    1.2497787 
H     2.5012813    2.5202035    6.0214230 
H     1.9592241    3.5143992    4.6567707 
