105
Energy =
C     1.0673897   -2.5609787    1.3460987 
C     0.9964804   -2.8866341   -0.0410360 
C     1.8289143   -2.2365613   -0.9874886 
H     0.1654656   -3.5102816   -0.3944527 
Pd    0.5902178   -0.7370584    0.1226493 
P     0.1759916    0.8377419   -1.5400129 
P    -0.4099075    0.7334534    1.6174595 
H     2.0456085   -2.2436424    1.7378104 
H     2.7712950   -1.8099923   -0.6093725 
C    -1.6484553   -4.0998214    4.3221520 
C    -2.0837939   -3.9333148    2.9968717 
C    -1.2120660   -3.4304054    2.0247102 
C     0.1232333   -3.0956232    2.3508468 
C     0.5491380   -3.2807215    3.6853206 
C    -0.3272717   -3.7717848    4.6612689 
H    -2.3335754   -4.4880551    5.0825632 
H    -3.1111661   -4.1937167    2.7216593 
H    -1.5786692   -3.2751270    1.0038107 
H     1.5843238   -3.0449979    3.9564173 
H     0.0259833   -3.9082249    5.6886712 
C     1.6774490   -2.5322586   -5.2821994 
C     2.6411022   -1.7327448   -4.6468148 
C     2.6925324   -1.6736540   -3.2494756 
C     1.7715496   -2.3955307   -2.4532485 
C     0.8183972   -3.2089141   -3.1068539 
C     0.7771189   -3.2785759   -4.5046536 
H     1.6382746   -2.5866282   -6.3747686 
H     3.3609371   -1.1617461   -5.2424870 
H     3.4524254   -1.0537560   -2.7602857 
H     0.1014941   -3.7957327   -2.5241870 
H     0.0380961   -3.9228505   -4.9919264 
C    -0.6541431    0.1185090   -3.0465704 
C     1.6601404    1.7953760   -2.1731347 
C    -2.0179312    0.1108774    2.3215115 
C     0.6187299    1.3144510    3.0626515 
C    -1.0557699    2.0452383   -0.8198718 
C    -0.7985244    2.3067181    0.6733359 
C    -1.8364351   -0.7853183   -2.6278031 
C    -1.0726712    1.1540525   -4.1132321 
C     1.3932196    3.2792205   -2.5113604 
C     2.8671615    1.6769895   -1.2151988 
C    -2.6876511    1.0437698    3.3531294 
C    -3.0006041   -0.2645363    1.1889254 
C     0.7962550    0.1875837    4.1017914 
C     1.9971450    1.8302007    2.5905358 
C    -2.4970770   -1.4502914   -3.8484346 
C    -1.7266952    0.4575937   -5.3226861 
C     2.6470703    3.9284843   -3.1290382 
C     4.1216978    2.3255674   -1.8257287 
C    -3.9684364    0.3947181    3.9146945 
C    -4.2779932   -0.9058333    1.7589675 
C     1.6609524    0.6467603    5.2886987 
C     2.8632088    2.2861467    3.7789607 
C    -2.9216501   -0.4093756   -4.8965075 
C     3.8668658    3.7941694   -2.2032368 
C    -4.9491161    0.0113372    2.7946196 
C     3.0284355    1.1665421    4.8185978 
H     0.1319782   -0.5302362   -3.4802089 
H     1.9138566    1.2584244   -3.1098126 
H    -1.7201478   -0.8287167    2.8290468 
H     0.0601825    2.1548335    3.5224499 
H    -2.0420472    1.5710733   -0.9635555 
H    -1.0641123    2.9869145   -1.3941036 
H    -1.6571288    2.8202118    1.1417598 
H     0.0786094    2.9661613    0.7992154 
H    -2.5972005   -0.1823329   -2.0938572 
H    -1.4791939   -1.5507409   -1.9126272 
H    -0.1957622    1.7343948   -4.4496357 
H    -1.7905994    1.8739319   -3.6735676 
H     1.1297020    3.8196605   -1.5808001 
H     0.5346642    3.3836855   -3.1969839 
H     3.0562309    0.6163890   -0.9704469 
H     2.6194786    2.1773332   -0.2599434 
H    -2.9479624    2.0061325    2.8697817 
H    -1.9947082    1.2771841    4.1803643 
H    -2.5053668   -0.9439018    0.4704250 
H    -3.2801718    0.6495910    0.6285112 
H     1.2846700   -0.6677787    3.6011038 
H    -0.1794965   -0.1795871    4.4638589 
H     1.8795982    2.6650558    1.8760847 
H     2.5109802    1.0133938    2.0444854 
H    -3.3649889   -2.0490556   -3.5182663 
H    -1.7756668   -2.1533913   -4.3046962 
H    -0.9691429   -0.1791462   -5.8203580 
H    -2.0398237    1.2179792   -6.0601112 
H     2.4419485    4.9914536   -3.3482297 
H     2.8629688    3.4406338   -4.0997850 
H     4.4148598    1.7573936   -2.7310909 
H     4.9652091    2.2475803   -1.1165111 
H    -4.4482682    1.0847811    4.6313605 
H    -3.6872703   -0.5124847    4.4845453 
H    -4.0107964   -1.8668026    2.2374858 
H    -4.9764318   -1.1397055    0.9353939 
H     1.7855557   -0.1918709    5.9969959 
H     1.1291129    1.4481805    5.8379036 
H     2.3867088    3.1645536    4.2563982 
H     3.8481050    2.6230061    3.4089792 
H    -3.3630169   -0.9114221   -5.7755785 
H    -3.7134325    0.2399653   -4.4726500 
H     4.7616153    4.2276945   -2.6837335 
H     3.6887857    4.3805811   -1.2800049 
H    -5.8408925   -0.4816062    3.2204428 
H    -5.3071874    0.9314331    2.2913386 
H     3.6203736    1.5268685    5.6783950 
H     3.6009256    0.3314914    4.3675693 
