105
Energy =
C     0.9510879   -2.5238983    1.4561247 
C     1.1329295   -2.7015178    0.0556303 
C     2.1183954   -1.9606326   -0.6467636 
H     0.4087088   -3.2997383   -0.5111912 
Pd    0.6530031   -0.5733407    0.3241381 
P     0.3532730    1.0068915   -1.3664879 
P    -0.5891714    0.8546438    1.6999680 
H     1.8339284   -2.2151627    2.0338395 
H     2.9751677   -1.5982505   -0.0575764 
C    -2.1198088   -4.4532266    3.7895643 
C    -0.9927926   -3.8949295    4.4102624 
C    -0.0021932   -3.2702075    3.6417785 
C    -0.1191856   -3.1768740    2.2352938 
C    -1.2665279   -3.7401034    1.6264053 
C    -2.2478628   -4.3766164    2.3924000 
H    -2.8909514   -4.9497415    4.3871517 
H    -0.8756928   -3.9593159    5.4970872 
H     0.8870123   -2.8644585    4.1350201 
H    -1.3973437   -3.6793670    0.5406453 
H    -3.1235150   -4.8100052    1.8983070 
C     2.8502355   -1.8798735   -4.8895834 
C     3.8404052   -1.4803790   -3.9799523 
C     3.5910853   -1.5325409   -2.6022684 
C     2.3485106   -1.9853503   -2.1035400 
C     1.3686091   -2.4069300   -3.0324691 
C     1.6159341   -2.3501361   -4.4078186 
H     3.0400406   -1.8360798   -5.9667684 
H     4.8104743   -1.1260751   -4.3434891 
H     4.3661160   -1.2122425   -1.8971387 
H     0.3974104   -2.7678591   -2.6800740 
H     0.8419699   -2.6761706   -5.1107752 
C    -0.9025851    0.3788779   -2.6165522 
C     1.8372368    1.5496662   -2.3519807 
C    -2.0557671    0.1552087    2.6110043 
C     0.3687303    1.8717723    2.9729073 
C    -0.3685875    2.5393283   -0.5865012 
C    -1.3092871    2.1739941    0.5745376 
C    -1.7829309   -0.7538570   -2.0400313 
C    -1.8038586    1.4563707   -3.2604630 
C     1.5894174    2.6990902   -3.3536088 
C     3.0198479    1.8622426   -1.4078435 
C    -2.8722286    1.1926437    3.4147930 
C    -2.9705134   -0.6348783    1.6485383 
C     0.6129512    1.1390317    4.3126885 
C     1.7145019    2.3995531    2.4166963 
C    -2.6534913   -1.3852645   -3.1396897 
C    -2.6759506    0.8352111   -4.3696054 
C     2.8775591    3.0356824   -4.1304869 
C     4.2917853    2.2144316   -2.1998816 
C    -4.0206863    0.5048867    4.1788809 
C    -4.1139231   -1.3170273    2.4194376 
C     1.6745222    0.0365955    4.1950175 
C     2.7808755    1.2995377    2.2986044 
C    -3.5269320   -0.3285110   -3.8358497 
C     4.0412333    3.3677622   -3.1838994 
C    -4.9282312   -0.2985407    3.2333017 
C     3.0006737    0.5751884    3.6350225 
H    -0.2557371   -0.0598501   -3.4029683 
H     2.0957031    0.6375426   -2.9253509 
H    -1.6002780   -0.5765629    3.3088011 
H    -0.3024167    2.7320937    3.1564736 
H    -0.8901668    3.1515045   -1.3415513 
H     0.4883467    3.1349456   -0.2270396 
H    -2.2527575    1.7564120    0.1790603 
H    -1.5725311    3.0675455    1.1679257 
H    -2.4340759   -0.3388153   -1.2479917 
H    -1.1521091   -1.5165950   -1.5482432 
H    -1.2078304    2.2888792   -3.6706947 
H    -2.4644899    1.8871835   -2.4827020 
H     1.2443839    3.5997339   -2.8090428 
H     0.7919733    2.4240460   -4.0647515 
H     3.2031988    0.9974764   -0.7455521 
H     2.7568469    2.7147636   -0.7503428 
H    -3.2962456    1.9401989    2.7161867 
H    -2.2299634    1.7446427    4.1232157 
H    -2.3741237   -1.3791017    1.0930665 
H    -3.4066300    0.0583970    0.9018722 
H    -0.3258320    0.7290048    4.7233556 
H     0.9559690    1.9035527    5.0368807 
H     2.0729090    3.1778789    3.1179702 
H     1.5735894    2.9060137    1.4465546 
H    -3.2825446   -2.1839377   -2.7067238 
H    -1.9927310   -1.8694888   -3.8862929 
H    -2.0168982    0.4708193   -5.1818431 
H    -3.3211821    1.6151838   -4.8116490 
H     2.6818147    3.8775990   -4.8183007 
H     3.1523761    2.1665711   -4.7598368 
H     4.6209056    1.3200008   -2.7630939 
H     5.1065370    2.4683253   -1.4982257 
H    -4.6055445    1.2644872    4.7276257 
H    -3.5878614   -0.1744337    4.9392525 
H    -3.6804655   -2.0748674    3.0984008 
H    -4.7646640   -1.8611250    1.7112810 
H     1.2865701   -0.7477440    3.5206055 
H     1.8319661   -0.4387609    5.1792512 
H     3.7251415    1.7304030    1.9212594 
H     2.4447035    0.5610724    1.5336508 
H    -4.1056974   -0.7878087   -4.6565957 
H    -4.2658593    0.0651154   -3.1099500 
H     4.9566492    3.5821507   -3.7632308 
H     3.8023091    4.2895497   -2.6172011 
H    -5.7185356   -0.8123893    3.8086865 
H    -5.4429345    0.3981041    2.5420040 
H     3.4476374    1.2792630    4.3637870 
H     3.7269611   -0.2484879    3.5092507 
