105
Energy =
C     1.0626662   -2.6066632    1.1987021 
C     0.8466917   -2.9391057   -0.1670986 
C     1.5926637   -2.2867189   -1.1861710 
H    -0.0147905   -3.5599836   -0.4412562 
Pd    0.4606557   -0.7855796    0.0227729 
P     0.1769454    0.9114628   -1.5455318 
P    -0.4271887    0.6767095    1.6038426 
H     2.0584555   -2.2177522    1.4604606 
H     2.5830078   -1.9031604   -0.8976714 
C    -1.1427532   -4.0493899    4.6061024 
C     0.0612057   -3.3472863    4.7707401 
C     0.7715352   -2.8984392    3.6507316 
C     0.2900101   -3.1296690    2.3410373 
C    -0.9232035   -3.8411843    2.1913175 
C    -1.6263667   -4.2995727    3.3109464 
H    -1.6979829   -4.4058234    5.4794657 
H     0.4521075   -3.1556970    5.7754257 
H     1.7169676   -2.3599068    3.7852878 
H    -1.3311181   -4.0306757    1.1931053 
H    -2.5619877   -4.8513430    3.1738029 
C     1.0581336   -2.5329771   -5.4530341 
C     2.1461428   -1.8394875   -4.8997495 
C     2.3156589   -1.7939155   -3.5109565 
C     1.3941901   -2.4245435   -2.6413181 
C     0.3087477   -3.1259548   -3.2135035 
C     0.1489741   -3.1840308   -4.6030220 
H     0.9256135   -2.5768535   -6.5386935 
H     2.8699076   -1.3412776   -5.5531258 
H     3.1721654   -1.2585636   -3.0849313 
H    -0.4216246   -3.6296777   -2.5723790 
H    -0.6916197   -3.7426071   -5.0273772 
C    -0.7284774    0.3975903   -3.0903370 
C     1.7769833    1.7158860   -2.1109359 
C    -2.1751420    0.3263049    2.1865072 
C     0.6088988    0.9378996    3.1261437 
C    -0.8632970    2.2292279   -0.7254363 
C    -0.5137944    2.3527133    0.7675473 
C    -2.0422601   -0.3301563   -2.7255737 
C    -0.9639542    1.5212899   -4.1224030 
C     1.6875167    3.2323744   -2.3953964 
C     2.9433145    1.4288194   -1.1374169 
C    -2.9938651   -0.2969806    1.0307783 
C    -2.2014024   -0.5873983    3.4322997 
C     2.1091892    1.0579338    2.7788981 
C     0.1515142    2.1148341    4.0164271 
C    -2.7610420   -0.8522408   -3.9820337 
C    -1.6837993    0.9709863   -5.3694033 
C     3.0176527    3.7562095   -2.9709463 
C     4.2751678    1.9550859   -1.7007451 
C    -4.4298425   -0.6375688    1.4641008 
C    -3.6416369   -0.9378373    3.8476779 
C     2.9579033    1.1280129    4.0616420 
C     1.0043823    2.1831560    5.2980940 
C    -3.0020682    0.2728454   -5.0008134 
C     4.1955395    3.4545626   -2.0305897 
C    -4.4346064   -1.5628650    2.6901066 
C     2.5041218    2.2812777    4.9726059 
H    -0.0419985   -0.3477329   -3.5381502 
H     1.9899167    1.1886449   -3.0631083 
H    -2.6146195    1.3094603    2.4504798 
H     0.4716656   -0.0088714    3.6851506 
H    -1.9132266    1.9137365   -0.8539255 
H    -0.7529426    3.1963482   -1.2439082 
H    -1.2367951    2.9999505    1.2947590 
H     0.4851659    2.8110898    0.8886813 
H    -2.7187285    0.3681999   -2.1946347 
H    -1.8253660   -1.1589503   -2.0253559 
H    -0.0035186    1.9758024   -4.4216786 
H    -1.5774979    2.3237998   -3.6675684 
H     1.4736851    3.7648489   -1.4478368 
H     0.8580747    3.4615366   -3.0861711 
H     3.0109687    0.3457202   -0.9329507 
H     2.7327150    1.9162829   -0.1656941 
H    -2.4768036   -1.2189927    0.6967440 
H    -3.0137439    0.3826796    0.1610564 
H    -1.6854684   -0.1050217    4.2795625 
H    -1.6512488   -1.5174937    3.2088787 
H     2.2793961    1.9750940    2.1811191 
H     2.4221925    0.2061810    2.1467243 
H    -0.9185724    2.0206571    4.2742497 
H     0.2633780    3.0619709    3.4539074 
H    -3.7154737   -1.3265832   -3.6909476 
H    -2.1386286   -1.6390373   -4.4470251 
H    -1.0144379    0.2481700   -5.8756820 
H    -1.8647376    1.7943085   -6.0832820 
H     2.9370042    4.8422650   -3.1552527 
H     3.1966933    3.2801613   -3.9549924 
H     4.5228984    1.3881222   -2.6203382 
H     5.0887662    1.7583049   -0.9796945 
H    -4.9674898   -1.1041931    0.6190318 
H    -4.9703583    0.2988009    1.7052126 
H    -4.1573591   -0.0201021    4.1930069 
H    -3.6067140   -1.6270948    4.7104072 
H     4.0250016    1.2384050    3.7981254 
H     2.8628724    0.1680384    4.6069767 
H     0.8158706    1.2746213    5.9032170 
H     0.6841636    3.0439882    5.9115325 
H    -3.4872665   -0.1304679   -5.9072448 
H    -3.7031744    1.0158879   -4.5712799 
H     5.1432489    3.7989970   -2.4806720 
H     4.0659425    4.0270319   -1.0906714 
H    -5.4708237   -1.7777714    3.0058934 
H    -3.9748576   -2.5327388    2.4168148 
H     3.0976584    2.2883788    5.9038321 
H     2.7037668    3.2452706    4.4639829 
