105
Energy =
C     0.7561607   -2.5277939    1.1831002 
C     0.6026384   -2.8332477   -0.1921398 
C     1.4271127   -2.2196304   -1.1732780 
H    -0.2507878   -3.4432678   -0.5122946 
Pd    0.2890396   -0.6543345   -0.0314435 
P     0.3278714    1.1107551   -1.5631435 
P    -0.6337697    0.8708357    1.4889003 
H     1.7434951   -2.1593539    1.4985374 
H     2.4138920   -1.8667336   -0.8375965 
C    -1.5379773   -4.2135043    4.4116840 
C    -0.2731771   -3.6525661    4.6445932 
C     0.4602893   -3.1094439    3.5827574 
C    -0.0576958   -3.1062007    2.2671010 
C    -1.3330656   -3.6766442    2.0474957 
C    -2.0597056   -4.2295622    3.1069371 
H    -2.1130760   -4.6412028    5.2390265 
H     0.1460788   -3.6439374    5.6559637 
H     1.4514876   -2.6815180    3.7690195 
H    -1.7687734   -3.6769928    1.0428067 
H    -3.0425817   -4.6728420    2.9168638 
C     1.2294724   -2.8762172   -5.4264862 
C     2.3501012   -2.2651490   -4.8434616 
C     2.4003633   -2.0661916   -3.4581943 
C     1.3269410   -2.4595820   -2.6257181 
C     0.2057855   -3.0770322   -3.2280823 
C     0.1623859   -3.2882574   -4.6105146 
H     1.1893948   -3.0377448   -6.5083558 
H     3.1920750   -1.9512098   -5.4690690 
H     3.2867052   -1.6056642   -3.0064760 
H    -0.6478846   -3.3857449   -2.6159988 
H    -0.7128483   -3.7709359   -5.0572570 
C    -0.9023565    1.0276986   -2.9778386 
C     1.9985341    1.4916998   -2.2861133 
C    -2.1909749    0.4912635    2.4502278 
C     0.6523991    1.6145522    2.6309521 
C    -0.1471564    2.6600355   -0.6268426 
C    -1.1645407    2.3543430    0.4788905 
C    -0.3136057    0.3878716   -4.2539966 
C    -2.1712563    0.2711970   -2.5151083 
C     2.0721072    2.8297855   -3.0557564 
C     3.1013594    1.4160470   -1.2053300 
C    -3.2157795   -0.1944442    1.5153595 
C    -1.9749113   -0.3561861    3.7214237 
C     0.0911065    2.6293397    3.6528108 
C     1.5376317    0.5451590    3.3080565 
C    -1.3715915    0.2804272   -5.3671522 
C    -3.2170171    0.1744655   -3.6390776 
C     3.4662592    3.0101916   -3.6869806 
C     4.4938908    1.6072321   -1.8343881 
C    -4.5520555   -0.4320966    2.2418981 
C    -3.3105532   -0.5981215    4.4492343 
C     1.2305650    3.2681302    4.4703576 
C     2.6560608    1.1986672    4.1395785 
C    -2.6218595   -0.4780982   -4.8960152 
C     4.5780474    2.9216895   -2.6283889 
C    -4.3537191   -1.2495467    3.5279043 
C     2.0917222    2.1987868    5.1617072 
H    -1.1733948    2.0798794   -3.1992922 
H     2.1650809    0.6600029   -2.9983855 
H    -2.5879535    1.4839307    2.7479942 
H     1.3020898    2.1683937    1.9209063 
H    -0.5309103    3.4187073   -1.3312184 
H     0.7851537    3.0642765   -0.1922042 
H    -2.1519669    2.1142404    0.0489421 
H    -1.3053547    3.2229004    1.1466790 
H     0.0629496   -0.6196412   -4.0131237 
H     0.5466433    0.9724129   -4.6214804 
H    -2.6117148    0.7611675   -1.6284450 
H    -1.8721915   -0.7468005   -2.1934925 
H     1.8808070    3.6658373   -2.3556752 
H     1.2901433    2.8799965   -3.8341861 
H     3.0433853    0.4501094   -0.6699487 
H     2.9329421    2.2061502   -0.4460462 
H    -2.7893105   -1.1604833    1.1806925 
H    -3.3866618    0.4084248    0.6051162 
H    -1.2659634    0.1387776    4.4061997 
H    -1.5269920   -1.3237051    3.4407770 
H    -0.6019722    2.1136661    4.3428306 
H    -0.4942972    3.4162611    3.1435719 
H     1.9707736   -0.1129975    2.5334731 
H     0.9161701   -0.0968621    3.9588305 
H    -0.9207291   -0.2216322   -6.2419388 
H    -1.6615134    1.2974444   -5.6975100 
H    -3.5804478    1.1910918   -3.8870946 
H    -4.0927613   -0.3951869   -3.2793079 
H     3.5114666    3.9787822   -4.2158442 
H     3.6190818    2.2234380   -4.4518248 
H     4.7004263    0.7546044   -2.5113947 
H     5.2669477    1.5797245   -1.0458011 
H    -5.2568883   -0.9429935    1.5614102 
H    -5.0059137    0.5474899    2.4900799 
H    -3.7009355    0.3685808    4.8246543 
H    -3.1294559   -1.2338779    5.3343160 
H     0.8042412    3.9653588    5.2133937 
H     1.8670730    3.8736299    3.7952827 
H     3.3511039    1.7264623    3.4565123 
H     3.2467262    0.4150851    4.6473656 
H    -3.3750532   -0.5153159   -5.7028439 
H    -2.3461815   -1.5259830   -4.6665567 
H     5.5693070    3.0157041   -3.1058582 
H     4.4828188    3.7754752   -1.9285215 
H    -5.3149094   -1.3653391    4.0595345 
H    -4.0109392   -2.2666259    3.2606254 
H     2.9135046    2.6751253    5.7249082 
H     1.4733229    1.6551381    5.9032096 
