105
Energy =
C     0.7661137   -2.4786496    1.4455153 
C     0.7867584   -2.7354017    0.0476650 
C     1.7402035   -2.1200252   -0.8009552 
H    -0.0439989   -3.2902545   -0.4042598 
Pd    0.5098028   -0.5589148    0.2694999 
P     0.3187497    1.1395947   -1.3307772 
P    -0.5805843    0.8624037    1.7732518 
H     1.7237790   -2.2064171    1.9108116 
H     2.6673413   -1.7554684   -0.3316454 
C    -2.1405654   -4.0465614    4.2201742 
C    -2.3869490   -4.1137462    2.8389611 
C    -1.4611067   -3.5945426    1.9277218 
C    -0.2505612   -3.0138249    2.3733083 
C    -0.0103964   -2.9690634    3.7669426 
C    -0.9469620   -3.4699944    4.6795309 
H    -2.8695744   -4.4492757    4.9305019 
H    -3.3101783   -4.5714360    2.4691447 
H    -1.6864010   -3.6458545    0.8575603 
H     0.9295208   -2.5477429    4.1357758 
H    -0.7358501   -3.4249209    5.7530336 
C     2.0434800   -2.5713936   -5.0743720 
C     2.9776349   -1.8023288   -4.3626875 
C     2.8727792   -1.6804514   -2.9722069 
C     1.8215658   -2.3057333   -2.2622479 
C     0.8969341   -3.0892002   -2.9916519 
C     1.0107565   -3.2229230   -4.3801467 
H     2.1264356   -2.6737869   -6.1610110 
H     3.7964011   -1.3037630   -4.8919320 
H     3.6136562   -1.0910164   -2.4204768 
H     0.0787763   -3.6009640   -2.4754838 
H     0.2863065   -3.8364273   -4.9254997 
C    -0.9740247    0.7899194   -2.6537641 
C     1.8330213    1.7293968   -2.2401689 
C    -2.0875824    0.1281589    2.6062895 
C     0.3415061    1.7488212    3.1599474 
C    -0.3181165    2.6499699   -0.4301217 
C    -1.2345882    2.2962988    0.7532434 
C    -0.3639135    0.1865412   -3.9383450 
C    -2.0746176   -0.1302685   -2.0766457 
C     1.6223137    3.0403878   -3.0319499 
C     3.0612205    1.8351283   -1.3130980 
C    -2.8154126    1.0840246    3.5783631 
C    -3.0610937   -0.4466751    1.5524626 
C     0.7843436    0.8203365    4.3155894 
C     1.5296104    2.6088648    2.6695813 
C    -1.4492262   -0.1755485   -4.9684953 
C    -3.1475958   -0.4756035   -3.1227769 
C     2.8865847    3.3878376   -3.8413166 
C     4.3226495    2.1959790   -2.1192289 
C    -4.0318905    0.3931904    4.2251417 
C    -4.2786277   -1.1157078    2.2140036 
C     2.0628207    0.0283765    3.9981927 
C     2.7726322    1.7740197    2.3296780 
C    -2.5172125   -1.1055352   -4.3737452 
C     4.1234361    3.4854250   -2.9331171 
C    -5.0022493   -0.1526200    3.1669888 
C     3.2132223    0.9347467    3.5374965 
H    -1.4238503    1.7729228   -2.9002898 
H     2.0287706    0.9090517   -2.9574582 
H    -1.6762264   -0.7266346    3.1799225 
H    -0.4393936    2.4337420    3.5403171 
H    -0.8340086    3.3177297   -1.1424959 
H     0.5802526    3.1863419   -0.0767113 
H    -2.2293471    1.9895431    0.3868414 
H    -1.3890111    3.1734490    1.4069516 
H     0.2050084   -0.7215840   -3.6772418 
H     0.3498911    0.8905463   -4.3978117 
H    -2.5417864    0.3389903   -1.1942721 
H    -1.5949194   -1.0630192   -1.7165549 
H     1.4085919    3.8651117   -2.3250071 
H     0.7483648    2.9606834   -3.7031477 
H     3.2064980    0.8830737   -0.7708476 
H     2.8841828    2.6127859   -0.5450079 
H    -3.1572209    1.9817014    3.0256937 
H    -2.1311003    1.4338728    4.3706397 
H    -2.5255326   -1.1621028    0.9025323 
H    -3.4243932    0.3715116    0.9003975 
H    -0.0296176    0.1321274    4.6065603 
H     0.9695962    1.4681163    5.1943625 
H     1.7823046    3.3068592    3.4914075 
H     1.2320754    3.2464938    1.8189129 
H    -0.9674608   -0.6467644   -5.8439681 
H    -1.9334223    0.7519645   -5.3327575 
H    -3.6912758    0.4465040   -3.4079319 
H    -3.8935082   -1.1558277   -2.6732101 
H     2.7296460    4.3359162   -4.3857670 
H     3.0498119    2.6044530   -4.6074888 
H     4.5586348    1.3607823   -2.8082857 
H     5.1851608    2.2966760   -1.4362739 
H    -4.5441758    1.1059568    4.8957595 
H    -3.6731483   -0.4411025    4.8592828 
H    -3.9350658   -2.0004955    2.7802092 
H    -4.9662704   -1.4824499    1.4305674 
H     1.8421554   -0.6885105    3.1879286 
H     2.3591643   -0.5653798    4.8811811 
H     3.5887214    2.4351769    1.9883262 
H     2.5365484    1.0948014    1.4841947 
H    -3.2940971   -1.3299506   -5.1259099 
H    -2.0480953   -2.0714199   -4.1000487 
H     5.0242299    3.7002546   -3.5346584 
H     3.9974820    4.3387986   -2.2375849 
H    -5.8520106   -0.6630166    3.6538980 
H    -5.4288888    0.6914859    2.5893842 
H     3.5159955    1.6071463    4.3637899 
H     4.0996627    0.3263064    3.2834207 
