105
Energy =
C     1.1791128   -2.6162124    1.1860413 
C     0.7820047   -2.9473714   -0.1326386 
C     1.3322936   -2.2383290   -1.2402584 
H    -0.0586343   -3.6342384   -0.2901289 
Pd    0.2630767   -0.8165051    0.1003107 
P    -0.0212190    0.9644499   -1.3747155 
P    -0.5451635    0.5886859    1.7849457 
H     2.1437784   -2.0968588    1.2899365 
H     2.3380542   -1.8183742   -1.0923943 
C    -0.2507286   -4.2730547    4.8913007 
C    -0.7892370   -4.7281525    3.6767733 
C    -0.3291727   -4.2130436    2.4598180 
C     0.6790099   -3.2232352    2.4303654 
C     1.2380371   -2.8029372    3.6607687 
C     0.7746148   -3.3140657    4.8777406 
H    -0.6153652   -4.6775551    5.8408576 
H    -1.5709430   -5.4948542    3.6784110 
H    -0.7603520   -4.5871363    1.5264756 
H     2.0489962   -2.0668581    3.6534037 
H     1.2197735   -2.9710853    5.8175990 
C     0.3169764   -2.6639869   -5.4038096 
C     1.4827391   -1.9886460   -5.0110016 
C     1.8004985   -1.8703463   -3.6523489 
C     0.9564675   -2.4142916   -2.6554457 
C    -0.2173184   -3.0860282   -3.0664550 
C    -0.5264362   -3.2161051   -4.4249835 
H     0.0684614   -2.7648890   -6.4650330 
H     2.1514267   -1.5618471   -5.7657360 
H     2.7174593   -1.3502379   -3.3508246 
H    -0.8986726   -3.5082598   -2.3204809 
H    -1.4344071   -3.7499048   -4.7238969 
C    -0.8813956    0.6213323   -2.9950791 
C     1.6127193    1.7708090   -1.8519766 
C    -2.2213216    0.2605864    2.5828962 
C     0.5765747    0.7895364    3.2689034 
C    -1.0310692    2.2468675   -0.4659123 
C    -0.6388011    2.2984648    1.0217433 
C    -2.2529924   -0.0490166   -2.7686014 
C    -0.9938725    1.8327707   -3.9471925 
C     1.5614332    3.3100808   -1.9886379 
C     2.7759238    1.3666417   -0.9188042 
C    -3.4401356    0.7711913    1.7849880 
C    -2.3815482   -1.2389370    2.9394362 
C     2.0602714    0.8795611    2.8519958 
C     0.2114858    1.9630715    4.2068782 
C    -2.9195456   -0.4327644   -4.1014733 
C    -1.6656294    1.4242660   -5.2733046 
C     2.9011737    3.8550612   -2.5204733 
C     4.1182872    1.9107753   -1.4390404 
C    -3.7608524   -0.1080930    0.5694407 
C    -2.7609552   -2.1083634    1.7294660 
C     2.9859300    0.9064669    4.0819465 
C     1.1350165    1.9809971    5.4407879 
C    -3.0398467    0.7789627   -5.0383583 
C     4.0755967    3.4364190   -1.6218326 
C    -3.9895142   -1.5675851    0.9849625 
C     2.6160291    2.0531188    5.0363591 
H    -0.2122926   -0.1281784   -3.4626202 
H     1.8129533    1.3332105   -2.8515042 
H    -2.1605328    0.8416267    3.5210825 
H     0.4303893   -0.1620876    3.8189108 
H    -2.0857643    1.9432745   -0.5814968 
H    -0.9262690    3.2375252   -0.9393730 
H    -1.3315818    2.9383006    1.5964700 
H     0.3711324    2.7341027    1.1337492 
H    -2.9208689    0.6503157   -2.2300925 
H    -2.1287847   -0.9398755   -2.1256446 
H     0.0042025    2.2539600   -4.1581814 
H    -1.5901228    2.6316966   -3.4640027 
H     1.3653846    3.7530066   -0.9924240 
H     0.7354896    3.6270108   -2.6476458 
H     2.8194995    0.2685745   -0.8150764 
H     2.5824334    1.7672059    0.0939847 
H    -3.3084481    1.8281973    1.4905255 
H    -4.3054237    0.7599962    2.4760485 
H    -3.1831666   -1.3077895    3.6997796 
H    -1.4666956   -1.6328890    3.4190451 
H     2.2174596    1.8073841    2.2674013 
H     2.3200170    0.0406892    2.1814077 
H    -0.8420499    1.9008808    4.5326420 
H     0.3220509    2.9183662    3.6578811 
H    -3.9130371   -0.8730574   -3.9016818 
H    -2.3121237   -1.2156711   -4.5914934 
H    -1.0073322    0.7047038   -5.7982506 
H    -1.7563990    2.3104573   -5.9264749 
H     2.8455934    4.9554193   -2.5992239 
H     3.0638422    3.4716823   -3.5469102 
H     4.3481072    1.4289999   -2.4102513 
H     4.9292685    1.6250105   -0.7452336 
H    -2.9078196   -0.0791515   -0.1342888 
H    -4.6366395    0.2939647    0.0294052 
H    -2.9304620   -3.1445601    2.0662130 
H    -1.9008497   -2.1380373    1.0263071 
H     4.0370903    0.9957879    3.7541836 
H     2.9024566   -0.0584646    4.6198913 
H     0.9581213    1.0633575    6.0354797 
H     0.8677940    2.8346832    6.0886367 
H    -3.4894015    0.4757517   -6.0005169 
H    -3.7248232    1.5264087   -4.5908737 
H     5.0294958    3.7995350   -2.0432078 
H     3.9642860    3.9184293   -0.6302035 
H    -4.8812794   -1.6303720    1.6390510 
H    -4.2034247   -2.1903389    0.0975941 
H     3.2602365    2.0283943    5.9329740 
H     2.8101960    3.0216164    4.5342950 
