105
Energy =
C     0.6841863   -2.4461768    1.5246864 
C     0.6321018   -2.6964061    0.1322386 
C     1.5412874   -2.0755047   -0.7657810 
H    -0.2069818   -3.2749148   -0.2722728 
Pd    0.3433610   -0.5138137    0.3121219 
P     0.3518940    1.1987806   -1.2829896 
P    -0.7683023    0.9770164    1.7506751 
H     1.6462976   -2.1086288    1.9336884 
H     2.5011862   -1.7398418   -0.3450015 
C    -1.8984442   -4.2078567    4.4847671 
C    -2.2956073   -4.1933089    3.1368745 
C    -1.4761657   -3.6127173    2.1636846 
C    -0.2276417   -3.0474241    2.5135646 
C     0.1678825   -3.0889871    3.8709507 
C    -0.6610705   -3.6548570    4.8472493 
H    -2.5469100   -4.6556727    5.2444014 
H    -3.2539933   -4.6347941    2.8449938 
H    -1.8171386   -3.5909697    1.1233737 
H     1.1426600   -2.6788474    4.1574284 
H    -0.3360004   -3.6732652    5.8925249 
C     1.6837556   -2.6685440   -5.0326625 
C     2.7197612   -1.9994854   -4.3627704 
C     2.6593832   -1.8220749   -2.9752342 
C     1.5552939   -2.2910095   -2.2263761 
C     0.5219910   -2.9680989   -2.9154756 
C     0.5907065   -3.1601466   -4.2999626 
H     1.7311993   -2.8153446   -6.1163053 
H     3.5835785   -1.6245873   -4.9215940 
H     3.4818146   -1.3182406   -2.4555474 
H    -0.3483928   -3.3475712   -2.3709000 
H    -0.2170404   -3.6920080   -4.8130261 
C    -0.9031797    0.9845201   -2.6745721 
C     1.9595133    1.6360924   -2.1165881 
C    -2.4430573    0.5129621    2.4705173 
C     0.1392709    1.6838534    3.2539502 
C    -0.2002233    2.7545331   -0.3995122 
C    -1.2400268    2.4482852    0.6880965 
C    -0.2902481    0.4317156   -3.9806247 
C    -2.0675607    0.0887502   -2.1937972 
C     1.9287385    2.9864315   -2.8690226 
C     3.1742205    1.5725873   -1.1677736 
C    -3.3163753   -0.1999372    1.4164674 
C    -2.3761280   -0.3220827    3.7671170 
C     1.0054535    0.5866431    3.9209570 
C     0.9609374    2.9732794    3.0318403 
C    -1.3663645    0.2212204   -5.0621006 
C    -3.1331001   -0.1061378   -3.2851060 
C     3.2370811    3.1878710   -3.6579395 
C     4.4830854    1.7713622   -1.9545302 
C    -4.7292571   -0.4811662    1.9598059 
C    -3.7903286   -0.6034844    4.3106680 
C     2.3495551    0.3745712    3.2056372 
C     2.3085352    2.7293105    2.3398265 
C    -2.5116597   -0.6755481   -4.5688631 
C     4.4673736    3.0936591   -2.7402681 
C    -4.6807261   -1.2904232    3.2641529 
C     3.1465238    1.6798853    3.0831629 
H    -1.2960554    2.0022841   -2.8732422 
H     2.0765446    0.8204654   -2.8560297 
H    -2.9063526    1.4936618    2.7114722 
H    -0.6990147    1.9374318    3.9295343 
H    -0.5952033    3.4772193   -1.1352099 
H     0.7060633    3.2028440    0.0429405 
H    -2.2093733    2.1871783    0.2278867 
H    -1.4208031    3.3276984    1.3318225 
H     0.2072697   -0.5300433   -3.7714427 
H     0.4819459    1.1157265   -4.3700775 
H    -2.5278104    0.5156756   -1.2866894 
H    -1.6525508   -0.8952018   -1.8966168 
H     1.8154994    3.8088217   -2.1365479 
H     1.0597608    3.0428833   -3.5487380 
H     3.1838781    0.6128899   -0.6190222 
H     3.0907943    2.3705985   -0.4069726 
H    -2.8204872   -1.1484550    1.1320591 
H    -3.3910616    0.4058639    0.4962675 
H    -1.7881070    0.1979664    4.5426229 
H    -1.8655171   -1.2778585    3.5591948 
H     0.4460556   -0.3632871    3.9745224 
H     1.1956950    0.8975704    4.9664294 
H     1.1496874    3.4021338    4.0353091 
H     0.3709635    3.7344688    2.4906108 
H    -0.8907435   -0.2150777   -5.9587582 
H    -1.7761400    1.2045934   -5.3663330 
H    -3.6113929    0.8682816   -3.5064257 
H    -3.9306261   -0.7707812   -2.9063823 
H     3.2129212    4.1642218   -4.1738943 
H     3.3027681    2.4130678   -4.4470601 
H     4.6145129    0.9264922   -2.6593155 
H     5.3429183    1.7429691   -1.2615232 
H    -5.3200596   -1.0133763    1.1925302 
H    -5.2425968    0.4836282    2.1408918 
H    -4.2567607    0.3519101    4.6227565 
H    -3.7093403   -1.2290637    5.2175918 
H     2.1536493   -0.0072353    2.1801951 
H     2.9333635   -0.4030516    3.7304838 
H     2.8589892    3.6818555    2.2420454 
H     2.1280989    2.3582119    1.3136113 
H    -3.2803678   -0.7837470   -5.3544198 
H    -2.1176715   -1.6901344   -4.3640921 
H     5.3942426    3.1979450   -3.3314918 
H     4.4524824    3.9397077   -2.0249661 
H    -5.7003168   -1.4344411    3.6636411 
H    -4.2747642   -2.2966922    3.0514667 
H     3.4106065    2.0571174    4.0902812 
H     4.0977019    1.5016100    2.5502592 
