105
Energy =
C     1.6492530   -2.0564469    1.1329091 
C     1.2396422   -2.5815323   -0.1218222 
C     1.7900095   -2.0888732   -1.3355005 
H     0.3896842   -3.2747588   -0.1541960 
Pd    0.7605767   -0.4377383   -0.1412010 
P     0.1803544    1.1465698   -1.7606252 
P    -0.3742669    0.8985565    1.4056682 
H     2.6570563   -1.6155213    1.1784064 
H     2.7924268   -1.6424401   -1.2793070 
C     0.1274827   -3.2712612    4.9749423 
C    -0.7118605   -3.3161491    3.8479940 
C    -0.2291082   -2.9321540    2.5927382 
C     1.1034150   -2.4855918    2.4363130 
C     1.9371393   -2.4508581    3.5763123 
C     1.4559265   -2.8446491    4.8322103 
H    -0.2530020   -3.5708119    5.9565968 
H    -1.7498666   -3.6500969    3.9508060 
H    -0.8997644   -2.9574726    1.7273275 
H     2.9745539   -2.1136328    3.4728104 
H     2.1193464   -2.8121757    5.7024958 
C     0.7441448   -3.4414500   -5.2929162 
C     1.9084043   -2.6900590   -5.0739209 
C     2.2330928   -2.2589848   -3.7818648 
C     1.3953116   -2.5514279   -2.6797378 
C     0.2275382   -3.3131978   -2.9185543 
C    -0.0881026   -3.7584378   -4.2064344 
H     0.4918229   -3.7885620   -6.2999286 
H     2.5753067   -2.4530673   -5.9093515 
H     3.1636352   -1.7052641   -3.6149615 
H    -0.4428846   -3.5675112   -2.0911557 
H    -0.9917133   -4.3558644   -4.3651626 
C    -0.7072345    0.4918442   -3.2727429 
C     1.5653581    2.1988300   -2.5005910 
C    -2.0214725    0.1389823    1.8586158 
C     0.4034072    1.4448689    3.0305112 
C    -1.0378336    2.3183315   -0.9564186 
C    -0.7421958    2.5166346    0.5392345 
C    -1.8364164   -0.4795782   -2.8662914 
C    -1.2494429    1.5828117   -4.2246218 
C     1.9167764    3.5066243   -1.7577389 
C     2.8272677    1.3325405   -2.7255209 
C    -3.0447189    1.1268382    2.4598639 
C    -2.6639447   -0.6679734    0.7116761 
C    -0.0106597    0.5899209    4.2494157 
C     1.9423017    1.4732141    2.8814648 
C    -2.5139416   -1.0985541   -4.1012195 
C    -1.9203595    0.9504442   -5.4597265 
C     2.7594733    3.2841871   -0.4943684 
C     3.6440814    1.1273542   -1.4393921 
C    -4.2792972    0.3629052    2.9775686 
C    -3.8962937   -1.4360934    1.2212890 
C     0.6947644    1.0711549    5.5317407 
C     2.6306321    1.9607298    4.1677668 
C    -3.0433644   -0.0172511   -5.0555270 
C     4.0244161    2.4646563   -0.7888964 
C    -4.9201885   -0.4874551    1.8678021 
C     2.2224436    1.1015181    5.3738994 
H     0.0757534   -0.0948055   -3.7961569 
H     1.1516998    2.4769051   -3.4860321 
H    -1.7306252   -0.5874569    2.6422699 
H     0.0423295    2.4813982    3.1902211 
H    -2.0326866    1.8582345   -1.0920230 
H    -1.0540770    3.2831634   -1.4930529 
H    -1.5764365    3.0317761    1.0467234 
H     0.1552019    3.1440521    0.6803371 
H    -2.5988152    0.0713068   -2.2819176 
H    -1.4325430   -1.2657706   -2.2046038 
H    -0.4450984    2.2656824   -4.5512050 
H    -1.9943553    2.2001539   -3.6850895 
H     1.0077683    4.0911872   -1.5282790 
H     2.4981886    4.1261664   -2.4679455 
H     3.4578734    1.8464764   -3.4764719 
H     2.5449494    0.3621113   -3.1700095 
H    -3.3650725    1.8411441    1.6765523 
H    -2.5949931    1.7249914    3.2728119 
H    -1.9218279   -1.3580761    0.2687211 
H    -2.9733525    0.0196865   -0.0972578 
H     0.2506170   -0.4661882    4.0633368 
H    -1.1018790    0.6301855    4.4028953 
H     2.2349284    2.1105697    2.0292866 
H     2.2861634    0.4493035    2.6405010 
H    -3.3312482   -1.7677739   -3.7764592 
H    -1.7768019   -1.7288194   -4.6321729 
H    -1.1547053    0.4033595   -6.0438004 
H    -2.3104896    1.7494597   -6.1150810 
H     2.1567388    2.7302191    0.2508205 
H     3.0142279    4.2562355   -0.0363222 
H     4.5403146    0.5185961   -1.6556693 
H     3.0315105    0.5488959   -0.7114822 
H    -5.0136712    1.0780063    3.3890329 
H    -3.9697265   -0.2921300    3.8155165 
H    -3.5666744   -2.1871733    1.9665884 
H    -4.3593936   -1.9965094    0.3891739 
H     0.4047493    0.4121368    6.3696098 
H     0.3324953    2.0867128    5.7866351 
H     2.3509480    3.0164400    4.3533143 
H     3.7266589    1.9441127    4.0283502 
H    -3.4887271   -0.4827408   -5.9525570 
H    -3.8544696    0.5509233   -4.5580356 
H     4.6889488    3.0359351   -1.4659648 
H     4.5929731    2.2912948    0.1422934 
H    -5.7729079   -1.0618831    2.2709220 
H    -5.3326253    0.1842073    1.0889880 
H     2.6954552    1.4832015    6.2959759 
H     2.5935966    0.0684747    5.2280286 
