105
Energy =
C     1.0589263   -2.5255191    1.2749308 
C     0.7322654   -2.8772406   -0.0561036 
C     1.3612930   -2.2182305   -1.1511058 
H    -0.1144485   -3.5484585   -0.2445022 
Pd    0.2506969   -0.7268765    0.0783704 
P     0.0988547    0.9532666   -1.5269342 
P    -0.6329235    0.8174063    1.6062938 
H     2.0218651   -2.0155870    1.4283787 
H     2.3690736   -1.8198549   -0.9642134 
C    -0.5771387   -4.1906612    4.8891730 
C    -1.0436454   -4.6438499    3.6445576 
C    -0.5237176   -4.1156051    2.4580786 
C     0.4809735   -3.1206559    2.4895924 
C     0.9558256   -2.6904769    3.7513386 
C     0.4288938   -3.2129708    4.9374885 
H    -0.9876719   -4.6059254    5.8150428 
H    -1.8184939   -5.4160232    3.5988351 
H    -0.9038823   -4.4844800    1.5004087 
H     1.7507002   -1.9380340    3.7940655 
H     0.8103319   -2.8639288    5.9027685 
C     0.5243847   -2.7357834   -5.3442152 
C     1.6974757   -2.0947227   -4.9168524 
C     1.9603847   -1.9524406   -3.5487607 
C     1.0515025   -2.4336840   -2.5770695 
C    -0.1256474   -3.0771682   -3.0229068 
C    -0.3791219   -3.2336807   -4.3902788 
H     0.3179623   -2.8543483   -6.4126032 
H     2.4143540   -1.7137072   -5.6515798 
H     2.8846273   -1.4628052   -3.2199297 
H    -0.8566563   -3.4499497   -2.2980226 
H    -1.2906348   -3.7452545   -4.7160418 
C    -0.8039327    0.5071199   -3.0952238 
C     1.7851252    1.6086046   -2.0372827 
C    -2.4689659    0.7591842    2.0616672 
C     0.3072022    1.0490473    3.1985608 
C    -0.8270747    2.3758934   -0.7527802 
C    -0.4907489    2.4790451    0.7432848 
C    -2.2000639   -0.0641317   -2.7594691 
C    -0.8831624    1.6223676   -4.1599392 
C     1.8252442    3.1088959   -2.4093591 
C     2.8770345    1.3072035   -0.9839669 
C    -3.3164111    0.1673691    0.9072926 
C    -2.7898976    0.0162904    3.3783965 
C     1.8328196    1.0417425    2.9511286 
C    -0.1022836    2.2999095    4.0100170 
C    -2.9352625   -0.5353849   -4.0262478 
C    -1.6252601    1.1238670   -5.4158877 
C     3.2156454    3.4961796   -2.9497962 
C     4.2710569    1.6943294   -1.5088921 
C    -3.1714085   -1.3585544    0.7826326 
C    -2.6315710   -1.5034366    3.2519723 
C     2.6043566    1.1030096    4.2823228 
C     0.6658827    2.3527990    5.3447930 
C    -3.0229442    0.5849195   -5.0742152 
C     4.3240230    3.1701082   -1.9361376 
C    -3.4899431   -2.0656507    2.1087858 
C     2.1864150    2.3237921    5.1190419 
H    -0.1903127   -0.3186179   -3.5046136 
H     2.0099242    1.0113047   -2.9443429 
H    -2.7301408    1.8270814    2.1863433 
H     0.0562730    0.1405618    3.7821206 
H    -1.9014912    2.1711294   -0.8994269 
H    -0.6054237    3.3187587   -1.2801955 
H    -1.1372815    3.2195891    1.2464582 
H     0.5548281    2.8120014    0.8771179 
H    -2.8118286    0.7187749   -2.2695990 
H    -2.0977086   -0.8930254   -2.0353187 
H     0.1302704    1.9561849   -4.4418496 
H    -1.4136473    2.5013863   -3.7435372 
H     1.6155628    3.7092297   -1.5024532 
H     1.0466056    3.3621472   -3.1482215 
H     2.8529850    0.2408969   -0.7000899 
H     2.6577529    1.8779785   -0.0607179 
H    -3.0708562    0.6533381   -0.0520491 
H    -4.3746276    0.4155839    1.1180851 
H    -3.8424920    0.2573034    3.6260008 
H    -2.1855760    0.4039242    4.2160779 
H     2.1099606    1.9184362    2.3332359 
H     2.1198893    0.1467763    2.3699908 
H    -1.1905525    2.3147328    4.1960401 
H     0.1342811    3.2072141    3.4215737 
H    -3.9433587   -0.8963754   -3.7539190 
H    -2.3895335   -1.3956616   -4.4555922 
H    -1.0264714    0.3191139   -5.8855438 
H    -1.6924628    1.9445055   -6.1522515 
H     3.2258165    4.5713432   -3.2025937 
H     3.4011623    2.9468407   -3.8936068 
H     4.5175637    1.0499304   -2.3762544 
H     5.0315275    1.4862704   -0.7348974 
H    -2.1260965   -1.5958684    0.4819259 
H    -3.8238518   -1.7266967   -0.0293483 
H    -2.8897214   -1.9908956    4.2079500 
H    -1.5689350   -1.7433515    3.0616967 
H     3.6908270    1.1220310    4.0830576 
H     2.4031286    0.1782809    4.8584691 
H     0.3665825    1.4864543    5.9668602 
H     0.3747643    3.2596474    5.9040623 
H    -3.5239665    0.2163705   -5.9868551 
H    -3.6492433    1.4105907   -4.6814027 
H     5.3148146    3.4114253   -2.3598469 
H     4.1980415    3.8119262   -1.0416883 
H    -4.5618935   -1.9236880    2.3499277 
H    -3.3285545   -3.1536753    2.0121439 
H     2.7176817    2.3231607    6.0871033 
H     2.4935005    3.2483614    4.5910730 
