105
Energy =
C     1.1605251   -2.2376330    1.4149019 
C     0.8670692   -2.6485258    0.0978900 
C     1.4390370   -1.9647938   -1.0217408 
H     0.1001225   -3.4150508   -0.0706235 
Pd    0.2123048   -0.5389330    0.1502387 
P     0.2558854    1.2762414   -1.3094798 
P    -1.1164592    0.7604727    1.5824379 
H     2.0696297   -1.6310637    1.5490013 
H     2.4354421   -1.5268786   -0.8670530 
C    -0.2332213   -3.9881598    5.0865606 
C    -0.9641019   -4.1898043    3.9025669 
C    -0.5226953   -3.6370154    2.6967672 
C     0.6548572   -2.8555500    2.6500895 
C     1.3858746   -2.6715222    3.8465642 
C     0.9496313   -3.2352745    5.0517386 
H    -0.5811375   -4.4246669    6.0281832 
H    -1.8837789   -4.7836587    3.9220713 
H    -1.1057579   -3.8001287    1.7860471 
H     2.3072514   -2.0787330    3.8253670 
H     1.5318258   -3.0829619    5.9662174 
C     0.5680852   -2.9589929   -5.1242643 
C    -0.3927995   -3.2001809   -4.1276944 
C    -0.1283047   -2.8650366   -2.7959264 
C     1.1121145   -2.2943494   -2.4248094 
C     2.0657021   -2.0514329   -3.4395238 
C     1.7963406   -2.3784300   -4.7749678 
H     0.3579307   -3.2207108   -6.1661520 
H    -1.3578760   -3.6434782   -4.3939330 
H    -0.8984421   -3.0381170   -2.0358200 
H     3.0353413   -1.6172195   -3.1727747 
H     2.5531263   -2.1898429   -5.5434964 
C    -0.1132755    1.0695899   -3.1285802 
C     1.9244449    2.1377248   -1.2806533 
C    -2.9415251    0.2850277    1.7570608 
C    -0.5955617    1.1008792    3.3572700 
C    -0.9567322    2.5495419   -0.6618965 
C    -1.1106451    2.4978296    0.8694688 
C    -1.4886538    0.4215886   -3.3870433 
C     0.0473997    2.3658752   -3.9560930 
C     2.4114366    2.4142378    0.1572691 
C     2.9892692    1.3465784   -2.0711885 
C    -3.8731877    0.8129195    0.6458670 
C    -3.1102293   -1.2472643    1.9146418 
C    -1.0381879    0.0193189    4.3668735 
C     0.9298870    1.3270179    3.4329417 
C    -1.6927785    0.1448093   -4.8869811 
C    -0.1682375    2.0837160   -5.4560475 
C     3.7811994    3.1168870    0.1713145 
C     4.3504303    2.0656636   -2.0564936 
C    -3.7009571    0.0513548   -0.6733709 
C    -2.9788873   -2.0044710    0.5830224 
C    -0.5771121    0.3712405    5.7946852 
C     1.3788062    1.6813571    4.8621197 
C    -1.5310810    1.4251377   -5.7207501 
C     4.8320730    2.3251624   -0.6210185 
C    -3.9252467   -1.4556973   -0.4929381 
C     0.9387067    0.6095126    5.8700846 
H     0.6558862    0.3391638   -3.4494904 
H     1.7554412    3.1099858   -1.7853018 
H    -3.2255083    0.7783917    2.7058823 
H    -1.1095478    2.0506144    3.6168288 
H    -1.9193377    2.3317059   -1.1561678 
H    -0.6448686    3.5566528   -0.9914217 
H    -2.0212195    3.0318253    1.1951581 
H    -0.2586879    3.0028428    1.3558025 
H    -2.2891627    1.1017677   -3.0392020 
H    -1.5765318   -0.5142508   -2.8083971 
H     1.0455870    2.8128080   -3.8061573 
H    -0.6949874    3.1126239   -3.6122793 
H     2.4777282    1.4508402    0.7012242 
H     1.6766349    3.0364053    0.6966864 
H     2.6650436    1.1789396   -3.1125791 
H     3.1016475    0.3485907   -1.6078539 
H    -3.7429391    1.8996072    0.4957989 
H    -4.9115930    0.6841099    1.0089109 
H    -4.1191008   -1.4243599    2.3354103 
H    -2.3908867   -1.6492706    2.6474195 
H    -0.6084041   -0.9543570    4.0725786 
H    -2.1355180   -0.0946757    4.3620128 
H     1.2397333    2.1255663    2.7372761 
H     1.4369885    0.4012053    3.0980249 
H    -2.6912297   -0.3010288   -5.0456526 
H    -0.9518915   -0.6083097   -5.2133879 
H     0.6389322    1.4135352   -5.8115507 
H    -0.0728015    3.0258201   -6.0248458 
H     4.1071982    3.2625967    1.2168031 
H     3.6730608    4.1270222   -0.2698426 
H     4.2574953    3.0288726   -2.5952580 
H     5.0900854    1.4630448   -2.6133272 
H    -2.6676436    0.2005662   -1.0367136 
H    -4.3750601    0.4635597   -1.4449352 
H    -3.1562614   -3.0821819    0.7492848 
H    -1.9313903   -1.9022785    0.2187173 
H    -0.8749483   -0.4426447    6.4796856 
H    -1.1085957    1.2823683    6.1334331 
H     0.9404669    2.6581487    5.1461108 
H     2.4760650    1.8102437    4.8826348 
H    -1.6435901    1.1999852   -6.7961334 
H    -2.3383615    2.1384481   -5.4610430 
H     5.7945360    2.8663053   -0.6292551 
H     5.0179281    1.3556886   -0.1169170 
H    -4.9760699   -1.6431665   -0.1979066 
H    -3.7653975   -1.9836388   -1.4506719 
H     1.2294192    0.9034466    6.8941907 
H     1.4667797   -0.3372425    5.6484687 
