105
Energy =
C     1.0782662   -2.5087793    1.4783565 
C     1.0502697   -2.7628590    0.0786990 
C     1.9201507   -2.0813055   -0.8097390 
H     0.2358510   -3.3739154   -0.3306280 
Pd    0.6333055   -0.6125498    0.2921507 
P     0.1675137    0.8817998   -1.4319011 
P    -0.4259186    0.8943027    1.7436293 
H     2.0434800   -2.2095817    1.9119399 
H     2.8399979   -1.6565330   -0.3777486 
C    -1.7035992   -4.2922466    4.2486564 
C    -2.1073433   -4.0125144    2.9322183 
C    -1.2161317   -3.4206547    2.0310654 
C     0.1085651   -3.1086032    2.4182745 
C     0.5030229   -3.4084875    3.7423209 
C    -0.3941870   -3.9881632    4.6485875 
H    -2.4040715   -4.7506342    4.9540643 
H    -3.1245446   -4.2561013    2.6083049 
H    -1.5555270   -3.1858386    1.0162612 
H     1.5311817   -3.2016776    4.0571577 
H    -0.0645171   -4.2148108    5.6678226 
C     1.9838484   -2.3454222   -5.1085201 
C     2.8734408   -1.5008717   -4.4247035 
C     2.8579481   -1.4507696   -3.0263711 
C     1.9397683   -2.2252485   -2.2778438 
C     1.0672367   -3.0881625   -2.9791459 
C     1.0931206   -3.1481667   -4.3778474 
H     1.9971298   -2.3919931   -6.2020810 
H     3.5882009   -0.8876046   -4.9833051 
H     3.5613560   -0.7965924   -2.4995442 
H     0.3619282   -3.7220414   -2.4331819 
H     0.4150988   -3.8292341   -4.9023489 
C    -0.6136468    0.0646939   -2.9157378 
C     1.5917621    1.9061088   -2.1000540 
C    -2.0084710    0.2400555    2.4842297 
C     0.4956195    1.7699459    3.1366985 
C    -1.1471401    2.0324438   -0.7757097 
C    -0.9182712    2.3788562    0.7009018 
C    -1.7363874   -0.9002927   -2.4695144 
C    -1.0992757    1.0422787   -4.0087133 
C     1.2377433    3.3615118   -2.4795025 
C     2.8040551    1.8859503   -1.1429480 
C    -2.7656289    1.2202132    3.4072076 
C    -2.9407758   -0.2808494    1.3654614 
C     0.6638444    0.9442881    4.4318921 
C     1.8715721    2.2943279    2.6591839 
C    -2.3551053   -1.6393852   -3.6694537 
C    -1.7068701    0.2718032   -5.1974262 
C     2.4516482    4.0657866   -3.1165356 
C     4.0184363    2.5905970   -1.7712217 
C    -4.0238154    0.5497699    3.9945695 
C    -4.1945154   -0.9480260    1.9568078 
C     1.7155031   -0.1636369    4.2917072 
C     2.9109737    1.1730734    2.5037162 
C    -2.8446586   -0.6569871   -4.7453754 
C     3.6769405    4.0303816   -2.1888845 
C    -4.9487291    0.0118848    2.8911093 
C     3.0701959    0.3767500    3.8078891 
H     0.2100229   -0.5427785   -3.3371305 
H     1.8747010    1.3585951   -3.0219739 
H    -1.6714185   -0.6341201    3.0780910 
H    -0.1607718    2.6356313    3.3507455 
H    -2.0968536    1.4850127   -0.9023368 
H    -1.2145150    2.9434852   -1.3937830 
H    -1.8124386    2.8540253    1.1424696 
H    -0.0911450    3.1048407    0.7961514 
H    -2.5330103   -0.3321302   -1.9500796 
H    -1.3323268   -1.6204753   -1.7329457 
H    -0.2619237    1.6687678   -4.3623071 
H    -1.8628873    1.7253433   -3.5882786 
H     0.9410048    3.9118506   -1.5648354 
H     0.3757398    3.3953733   -3.1679170 
H     3.0551816    0.8468528   -0.8662748 
H     2.5269687    2.3984426   -0.2022907 
H    -3.0698833    2.1127633    2.8255515 
H    -2.1181490    1.5778083    4.2260440 
H    -2.3905092   -0.9805577    0.7099235 
H    -3.2564126    0.5713114    0.7316981 
H    -0.2988809    0.5158910    4.7609790 
H     0.9739000    1.6525895    5.2247047 
H     2.2275464    3.0195972    3.4159354 
H     1.7729500    2.8650207    1.7174181 
H    -3.1835878   -2.2817601   -3.3205789 
H    -1.5919156   -2.3085571   -4.1083643 
H    -0.9102276   -0.3289827   -5.6783130 
H    -2.0676176    0.9898119   -5.9552766 
H     2.1841591    5.1080334   -3.3659707 
H     2.6965448    3.5639239   -4.0731548 
H     4.3466733    2.0160845   -2.6604268 
H     4.8635852    2.5821287   -1.0596208 
H    -4.5614006    1.2725324    4.6338441 
H    -3.7099887   -0.2846562    4.6517871 
H    -3.8853982   -1.8461191    2.5234447 
H    -4.8526541   -1.2936494    1.1391914 
H     1.3373888   -0.9026998    3.5658279 
H     1.8275642   -0.6944646    5.2532815 
H     3.8772501    1.5996829    2.1803496 
H     2.5815166    0.4884920    1.6911812 
H    -3.2534278   -1.2102965   -5.6093655 
H    -3.6759181   -0.0474977   -4.3383139 
H     4.5443354    4.5031031   -2.6823682 
H     3.4638900    4.6305517   -1.2820668 
H    -5.8213450   -0.4962663    3.3382322 
H    -5.3461434    0.8614690    2.3009194 
H     3.5052372    1.0341748    4.5859234 
H     3.7847457   -0.4544620    3.6653819 
