105
Energy =
C     1.0680064   -2.5964893    1.2163283 
C     0.9298960   -2.9037926   -0.1618400 
C     1.7008286   -2.2049770   -1.1358559 
H     0.1143647   -3.5601220   -0.4900408 
Pd    0.4599408   -0.7661719    0.0342397 
P     0.4106593    1.0110606   -1.4642471 
P    -0.6636129    0.6191464    1.5401262 
H     2.0201708   -2.1378472    1.5255279 
H     2.6817954   -1.8283825   -0.8089850 
C    -1.1101319   -4.2961540    4.5172825 
C    -1.5548487   -4.5238899    3.2038996 
C    -0.8623808   -3.9796022    2.1169392 
C     0.3005578   -3.2008207    2.3194767 
C     0.7427564   -2.9898340    3.6464339 
C     0.0438249   -3.5275404    4.7337941 
H    -1.6571476   -4.7214848    5.3646331 
H    -2.4498095   -5.1293378    3.0274429 
H    -1.2368983   -4.1568840    1.1034707 
H     1.6463757   -2.3938497    3.8204766 
H     0.4030724   -3.3513774    5.7529246 
C     1.3239473   -2.4572768   -5.4223163 
C     0.2667554   -2.8926332   -4.6050819 
C     0.3777902   -2.8339094   -3.2118665 
C     1.5521870   -2.3385711   -2.5991939 
C     2.6170046   -1.9285375   -3.4352058 
C     2.5036543   -1.9821960   -4.8305031 
H     1.2319335   -2.5015083   -6.5122171 
H    -0.6511592   -3.2810071   -5.0584830 
H    -0.4634880   -3.1681152   -2.5959968 
H     3.5478518   -1.5717082   -2.9792861 
H     3.3421364   -1.6597730   -5.4566771 
C    -0.8101409    0.7785306   -2.8651366 
C     2.0595174    1.3900830   -2.2407760 
C    -2.3151955    0.1066182    2.2594679 
C     0.4085564    1.1227108    2.9802393 
C    -0.0803552    2.5263670   -0.4909139 
C    -1.1113560    2.1755471    0.5933425 
C    -1.9362425   -0.2056286   -2.4745691 
C    -1.4279772    2.0719356   -3.4423954 
C     2.1053107    2.6182282   -3.1756786 
C     3.1650011    1.4621468   -1.1623713 
C    -3.1422191   -0.6252145    1.1770550 
C    -2.1876650   -0.7610929    3.5293652 
C     1.8585533    1.4324039    2.5454088 
C    -0.1618666    2.2605173    3.8536596 
C    -2.8178952   -0.5394163   -3.6892654 
C    -2.3065776    1.7473136   -4.6667674 
C     3.5066444    2.7753459   -3.7992546 
C     4.5556886    1.6211959   -1.8025415 
C    -4.5230819   -1.0443030    1.7107618 
C    -3.5711176   -1.1884759    4.0530361 
C     2.7543251    1.6757887    3.7734809 
C     0.7387114    2.5024587    5.0811261 
C    -3.4084222    0.7329861   -4.3193080 
C     4.6061316    2.8471502   -2.7283336 
C    -4.3923981   -1.9097094    2.9733266 
C     2.1905994    2.7939276    4.6666235 
H    -0.1889704    0.2911224   -3.6451490 
H     2.2394793    0.4847305   -2.8537067 
H    -2.8304790    1.0536547    2.5223791 
H     0.4367659    0.1924570    3.5839426 
H    -0.4560925    3.3170295   -1.1626016 
H     0.8504909    2.9049295   -0.0334984 
H    -2.0950020    1.9697380    0.1331422 
H    -1.2560225    3.0138177    1.2972945 
H    -2.5593753    0.2570149   -1.6851800 
H    -1.5049242   -1.1224203   -2.0348572 
H    -0.6512269    2.8053566   -3.7164104 
H    -2.0573120    2.5476514   -2.6642924 
H     1.8498468    3.5315699   -2.6034315 
H     1.3564312    2.5175420   -3.9793291 
H     3.1298192    0.5586839   -0.5254815 
H     2.9771607    2.3254511   -0.4940167 
H    -2.5764696   -1.5208882    0.8509268 
H    -3.2621780    0.0129707    0.2832209 
H    -1.6472769   -0.2174563    4.3232175 
H    -1.5935701   -1.6597400    3.2938605 
H     1.8675721    2.3356569    1.9047206 
H     2.2539995    0.6028007    1.9294988 
H    -1.1933152    2.0320395    4.1765987 
H    -0.2117279    3.1906154    3.2545220 
H    -3.6238754   -1.2321170   -3.3865001 
H    -2.2015451   -1.0736356   -4.4383668 
H    -1.6638665    1.3364841   -5.4698015 
H    -2.7490415    2.6795444   -5.0607486 
H     3.5257688    3.6764706   -4.4376742 
H     3.6984846    1.9109460   -4.4651672 
H     4.7914399    0.7093870   -2.3860979 
H     5.3224619    1.6978818   -1.0110852 
H    -5.0748885   -1.5856608    0.9212612 
H    -5.1129367   -0.1360105    1.9434339 
H    -4.1239675   -0.2931362    4.4001303 
H    -3.4352884   -1.8404122    4.9344432 
H     3.7802973    1.9210610    3.4451573 
H     2.8236212    0.7364908    4.3573231 
H     0.7118283    1.6041743    5.7286806 
H     0.3323052    3.3365289    5.6803352 
H    -3.9926606    0.4793862   -5.2215196 
H    -4.1168578    1.1973009   -3.6048128 
H     5.5992659    2.9271628   -3.2045077 
H     4.4702557    3.7659844   -2.1240725 
H    -5.3916054   -2.1729345    3.3633068 
H    -3.8894236   -2.8604839    2.7117020 
H     2.8245676    2.9241259    5.5613330 
H     2.2254758    3.7533055    4.1130966 
