105
Energy =
C     1.0056275   -2.5921545    1.3191242 
C     1.0612399   -2.8576098   -0.0797495 
C     1.9633780   -2.1500014   -0.9177777 
H     0.2839220   -3.4820476   -0.5379999 
Pd    0.5987463   -0.7243758    0.1393925 
P     0.3583957    0.9602866   -1.4482215 
P    -0.5872027    0.6428693    1.5944251 
H     1.9332449   -2.2409760    1.7957700 
H     2.8780432   -1.7614670   -0.4432827 
C    -1.8509786   -4.2802331    4.0734871 
C    -2.1130233   -4.3058364    2.6934915 
C    -1.1988922   -3.7554673    1.7888820 
C     0.0130974   -3.1820801    2.2400750 
C     0.2691306   -3.1788175    3.6306638 
C    -0.6543327   -3.7137563    4.5375478 
H    -2.5706714   -4.7069939    4.7792913 
H    -3.0390413   -4.7551890    2.3202667 
H    -1.4351886   -3.7690463    0.7196489 
H     1.2105813   -2.7599962    4.0017161 
H    -0.4320438   -3.7009992    5.6096832 
C     2.2021382   -2.2320092   -5.2187937 
C     3.2703860   -1.7525490   -4.4464888 
C     3.1827401   -1.7557356   -3.0483320 
C     2.0260078   -2.2333268   -2.3900162 
C     0.9661388   -2.7324823   -3.1825019 
C     1.0537062   -2.7290890   -4.5785462 
H     2.2658437   -2.2297522   -6.3115978 
H     4.1765733   -1.3770846   -4.9331512 
H     4.0208255   -1.3803125   -2.4501835 
H     0.0585139   -3.1182289   -2.7077762 
H     0.2208749   -3.1186031   -5.1734488 
C    -0.8745531    0.4752348   -2.7751844 
C     1.9127582    1.4836844   -2.3266341 
C    -2.0737380   -0.1079178    2.4323568 
C     0.4476872    1.4023067    2.9520218 
C    -0.2991004    2.4706411   -0.5694282 
C    -1.2343834    2.0930103    0.5950220 
C    -1.8445041   -0.6210607   -2.2768900 
C    -1.6809574    1.6342234   -3.4027679 
C     1.7733440    2.6721104   -3.3029107 
C     3.0525517    1.7164268   -1.3084578 
C    -2.7924892    0.8395034    3.4183265 
C    -3.0537270   -0.6929139    1.3907566 
C     0.8932733    0.3192765    3.9577327 
C     1.6699479    2.1576918    2.3829607 
C    -2.7133754   -1.1490327   -3.4309155 
C    -2.5499001    1.1163617   -4.5662417 
C     3.1168880    2.9668671   -3.9990411 
C     4.3830793    2.0180612   -2.0215540 
C    -3.9841857    0.1295250    4.0894962 
C    -4.2468871   -1.3821423    2.0763236 
C     1.7697009    0.9100194    5.0760333 
C     2.5512066    2.7343910    3.5065060 
C    -3.4918243   -0.0104033   -4.1110146 
C     4.2445224    3.2085417   -2.9838363 
C    -4.9648839   -0.4333081    3.0488745 
C     2.9887279    1.6471536    4.5001744 
H    -0.2243411    0.0249456   -3.5531440 
H     2.1660962    0.5790456   -2.9148041 
H    -1.6444123   -0.9604586    2.9965453 
H    -0.2092262    2.1308572    3.4676329 
H    -0.8042542    3.1455245   -1.2811909 
H     0.5912707    3.0051858   -0.1963302 
H    -2.2196832    1.7822002    0.2042407 
H    -1.4070039    2.9570414    1.2612694 
H    -2.4957829   -0.1957743   -1.4898754 
H    -1.2780694   -1.4423415   -1.8013281 
H    -1.0191221    2.4431989   -3.7551377 
H    -2.3412995    2.0738990   -2.6292879 
H     1.4397928    3.5716764   -2.7492051 
H     1.0048154    2.4558853   -4.0644897 
H     3.1534766    0.8307497   -0.6532909 
H     2.7961872    2.5696806   -0.6500382 
H    -3.1587026    1.7309602    2.8715497 
H    -2.0922598    1.2015582    4.1917995 
H    -2.5171097   -1.4016599    0.7348156 
H    -3.4379003    0.1200545    0.7434041 
H     1.4713360   -0.4463803    3.4059531 
H     0.0193477   -0.1968077    4.3923592 
H     1.3416277    2.9763290    1.7185844 
H     2.2647036    1.4580959    1.7621663 
H    -3.4076066   -1.9214545   -3.0536633 
H    -2.0566739   -1.6443695   -4.1731854 
H    -1.8861662    0.7428670   -5.3703593 
H    -3.1280609    1.9536983   -4.9959908 
H     3.0010701    3.8386283   -4.6673412 
H     3.3809601    2.1051264   -4.6431100 
H     4.6980975    1.1219313   -2.5911397 
H     5.1707967    2.2115732   -1.2715617 
H    -4.4971762    0.8331407    4.7691381 
H    -3.5994379   -0.6981512    4.7169717 
H    -3.8760155   -2.2634538    2.6316859 
H    -4.9470842   -1.7575304    1.3083707 
H     2.0891943    0.1021929    5.7586037 
H     1.1635013    1.6129194    5.6802265 
H     1.9814033    3.5163207    4.0456140 
H     3.4307934    3.2344694    3.0628244 
H    -4.0678541   -0.3980536   -4.9697991 
H    -4.2307251    0.4012331   -3.3951291 
H     5.1992546    3.3896068   -3.5084000 
H     4.0245509    4.1255738   -2.4020268 
H    -5.7952708   -0.9595203    3.5520657 
H    -5.4185573    0.4040256    2.4821238 
H     3.5900518    2.0911820    5.3128998 
H     3.6445088    0.9193922    3.9816778 
