105
Energy =
C     0.7960746   -2.5401998    1.5497699 
C     0.9372585   -2.7316026    0.1497853 
C     1.9348328   -2.0234664   -0.5735561 
H     0.1890359   -3.3199705   -0.3963581 
Pd    0.5129455   -0.5864985    0.3838297 
P     0.4037318    1.0463726   -1.2787925 
P    -0.7380424    0.8793665    1.7233413 
H     1.6928818   -2.2171928    2.0955131 
H     2.8123495   -1.6917636    0.0027299 
C    -2.1388921   -4.4427541    4.0585523 
C    -0.9503720   -3.9331822    4.6026552 
C    -0.0051233   -3.3181322    3.7723574 
C    -0.2313447   -3.1892667    2.3823363 
C    -1.4356543   -3.7047533    1.8492605 
C    -2.3727070   -4.3310747    2.6771618 
H    -2.8782257   -4.9273248    4.7040472 
H    -0.7555284   -4.0217210    5.6763891 
H     0.9276597   -2.9343836    4.2008565 
H    -1.6475943   -3.6058450    0.7792042 
H    -3.2954353   -4.7316723    2.2448537 
C     2.6609566   -2.0772552   -4.8187339 
C     1.3948625   -2.4410290   -4.3274914 
C     1.1468341   -2.4533680   -2.9510441 
C     2.1575578   -2.0908409   -2.0306750 
C     3.4308879   -1.7470084   -2.5386545 
C     3.6812790   -1.7405231   -3.9171524 
H     2.8511364   -2.0672464   -5.8966917 
H     0.5962008   -2.7184058   -5.0236904 
H     0.1517988   -2.7321507   -2.5911354 
H     4.2300334   -1.4767307   -1.8394912 
H     4.6756269   -1.4704012   -4.2873578 
C    -0.8666926    0.5776415   -2.5850656 
C     1.9472733    1.4464798   -2.2416188 
C    -2.4144058    0.4173103    2.4376527 
C     0.1547901    1.6256488    3.2156874 
C    -0.1783204    2.6243932   -0.4708975 
C    -1.2192164    2.3191278    0.6175543 
C    -1.8289849   -0.5320149   -2.1065128 
C    -1.6827477    1.7512576   -3.1728635 
C     1.7997482    2.5647681   -3.2970515 
C     3.1439731    1.7126352   -1.3038910 
C    -3.2978475   -0.2800720    1.3818276 
C    -2.3422373   -0.4348885    3.7224273 
C     1.0258153    0.5519836    3.9181875 
C     0.9732447    2.9096665    2.9512354 
C    -2.7026098   -1.0359420   -3.2675956 
C    -2.5625401    1.2615670   -4.3403834 
C     3.1146637    2.7492092   -4.0807317 
C     4.4467973    1.9005907   -2.1023383 
C    -4.7082315   -0.5614837    1.9321715 
C    -3.7531385   -0.7164481    4.2741592 
C     2.3789302    0.3308048    3.2228325 
C     2.3203366    2.6456261    2.2641104 
C    -3.4935120    0.1166374   -3.9087852 
C     4.3033079    3.0199574   -3.1457123 
C    -4.6539909   -1.3869114    3.2262896 
C     3.1649766    1.6368959    3.0543759 
H    -0.2309524    0.1501626   -3.3870845 
H     2.1413418    0.4947576   -2.7742834 
H    -2.8712147    1.3976142    2.6923809 
H    -0.6860761    1.8956471    3.8820025 
H    -0.5833416    3.3217393   -1.2239019 
H     0.7185865    3.0995513   -0.0382264 
H    -2.1757564    2.0233441    0.1504307 
H    -1.4292289    3.2091537    1.2373877 
H    -2.4771581   -0.1268907   -1.3087589 
H    -1.2618556   -1.3611398   -1.6466656 
H    -1.0261080    2.5696346   -3.5132238 
H    -2.3341135    2.1711715   -2.3812428 
H     1.5311098    3.5160654   -2.7972243 
H     0.9851863    2.3255031   -4.0017217 
H     3.2441933    0.8841057   -0.5777622 
H     2.9544977    2.6312267   -0.7161241 
H    -2.8090103   -1.2280409    1.0857970 
H    -3.3782327    0.3375387    0.4693968 
H    -1.7448961    0.0722242    4.4995122 
H    -1.8379735   -1.3902902    3.4960535 
H     0.4766100   -0.4033401    3.9917068 
H     1.2029928    0.8928251    4.9565601 
H     1.1642158    3.3722460    3.9391650 
H     0.3792612    3.6508459    2.3871533 
H    -3.3892823   -1.8223898   -2.9058709 
H    -2.0505587   -1.5077622   -4.0296702 
H    -1.9055104    0.9152417   -5.1621251 
H    -3.1495565    2.1075849   -4.7401258 
H     2.9960034    3.5719014   -4.8082802 
H     3.3103879    1.8300659   -4.6670527 
H     4.6956984    0.9523541   -2.6157628 
H     5.2785273    2.1177057   -1.4083568 
H    -5.3061154   -1.0825411    1.1627192 
H    -5.2164720    0.4031208    2.1280856 
H    -4.2123597    0.2373233    4.6014821 
H    -3.6680829   -1.3533296    5.1727713 
H     2.1928961   -0.0893426    2.2092501 
H     2.9647829   -0.4235999    3.7782133 
H     2.8633679    3.5970267    2.1235381 
H     2.1427905    2.2260988    1.2556560 
H    -4.0755889   -0.2495882   -4.7728678 
H    -4.2278056    0.5031095   -3.1743775 
H     5.2348222    3.1200614   -3.7304232 
H     4.1498894    3.9872363   -2.6273699 
H    -5.6714423   -1.5311302    3.6310986 
H    -4.2531532   -2.3920159    2.9991359 
H     3.4190827    2.0570716    4.0470087 
H     4.1211952    1.4457265    2.5351140 
