105
Energy =
C     0.9654127   -2.3854428    1.4198091 
C     1.1460006   -2.5481495    0.0185690 
C     2.1186900   -1.7938701   -0.6845675 
H     0.4368659   -3.1604732   -0.5521049 
Pd    0.6268857   -0.4314154    0.3133479 
P     0.2462737    1.2322508   -1.2936669 
P    -0.6763633    0.8460265    1.7777807 
H     1.8428363   -2.0534948    1.9923197 
H     2.9714653   -1.4142422   -0.1004320 
C    -1.9695533   -4.4956263    3.7719635 
C    -0.8966436   -3.8353703    4.3886493 
C     0.0460527   -3.1478479    3.6139124 
C    -0.0669408   -3.0911540    2.2048975 
C    -1.1621827   -3.7534917    1.6006490 
C    -2.0937223   -4.4541841    2.3731194 
H    -2.7016126   -5.0430929    4.3741351 
H    -0.7828700   -3.8693558    5.4771729 
H     0.8951077   -2.6618035    4.1046784 
H    -1.2889530   -3.7274905    0.5132576 
H    -2.9269046   -4.9671378    1.8819569 
C     2.9002855   -2.0214953   -4.9114159 
C     1.6107190   -2.3027087   -4.4267989 
C     1.3426171   -2.2394563   -3.0557485 
C     2.3576471   -1.8838723   -2.1373882 
C     3.6498181   -1.6076022   -2.6379098 
C     3.9203281   -1.6812065   -4.0108133 
H     3.1068230   -2.0708866   -5.9852335 
H     0.8099810   -2.5703232   -5.1243569 
H     0.3296391   -2.4479792   -2.6954057 
H     4.4484117   -1.3329031   -1.9397766 
H     4.9287715   -1.4654751   -4.3781976 
C    -0.9286622    0.5838509   -2.5933344 
C     1.6117392    2.1258182   -2.2217572 
C    -2.0923939    0.0007795    2.6491098 
C     0.2128749    1.8459248    3.1107677 
C    -0.6144566    2.6457122   -0.4257369 
C    -1.4943675    2.1796352    0.7426332 
C    -1.9640120   -0.4116812   -2.0268543 
C    -1.6244802    1.6724047   -3.4383294 
C     2.8480964    2.2396139   -1.3005240 
C     1.9782656    1.4833416   -3.5765885 
C    -2.9305187    0.9305656    3.5564105 
C    -2.9933223   -0.7372370    1.6331254 
C     0.5832761    1.0364035    4.3757000 
C     1.4633756    2.5821428    2.5711961 
C    -2.7705639   -1.0575646   -3.1675495 
C    -2.4289373    1.0262003   -4.5834963 
C     4.0062475    2.9813283   -1.9893914 
C     3.1520112    2.2216960   -4.2467158 
C    -4.0493977    0.1407383    4.2632474 
C    -4.1116145   -1.5141150    2.3494733 
C     1.7921947    0.1145658    4.1614540 
C     2.6588083    1.6431454    2.3461917 
C    -3.4481507    0.0061730   -4.0482634 
C     4.3759014    2.3124475   -3.3222743 
C    -4.9459206   -0.5943401    3.2546074 
C     3.0146510    0.8761109    3.6279410 
H    -0.2488625    0.0092181   -3.2528116 
H     1.2165006    3.1448257   -2.4118054 
H    -1.5954763   -0.7698863    3.2726044 
H    -0.5472081    2.6010513    3.3870612 
H    -1.1987243    3.2305241   -1.1573701 
H     0.1956533    3.3047366   -0.0674624 
H    -2.4307926    1.7373423    0.3605776 
H    -1.7773254    3.0290563    1.3895691 
H    -2.6556383    0.1185641   -1.3449919 
H    -1.4540993   -1.1821250   -1.4174923 
H    -0.8903680    2.3917489   -3.8438297 
H    -2.3160131    2.2487582   -2.7935318 
H     3.1731996    1.2171207   -1.0254658 
H     2.5776509    2.7473345   -0.3572095 
H     1.1096786    1.4889585   -4.2565935 
H     2.2551547    0.4277951   -3.4188411 
H    -3.3844950    1.7300114    2.9387410 
H    -2.2956027    1.4286093    4.3096625 
H    -2.3799889   -1.4150263    1.0142700 
H    -3.4568825   -0.0015088    0.9466890 
H    -0.2799644    0.4571827    4.7475988 
H     0.8219162    1.7735825    5.1670150 
H     1.7415636    3.3441210    3.3248789 
H     1.2269694    3.1421197    1.6498902 
H    -3.5224902   -1.7506273   -2.7491393 
H    -2.0856578   -1.6683153   -3.7891408 
H    -1.7262594    0.5210091   -5.2749631 
H    -2.9393102    1.8118228   -5.1685198 
H     4.8784322    3.0134151   -1.3118187 
H     3.7088276    4.0323580   -2.1734604 
H     2.8288840    3.2436035   -4.5275494 
H     3.4133621    1.7023660   -5.1861779 
H    -4.6469817    0.8284617    4.8877981 
H    -3.5884060   -0.5954197    4.9506477 
H    -3.6537202   -2.3147076    2.9587887 
H    -4.7528318   -2.0120486    1.5997855 
H     1.5106098   -0.6625937    3.4299162 
H     2.0359732   -0.4063306    5.1043138 
H     3.5258592    2.2200992    1.9786465 
H     2.4006212    0.9163582    1.5420715 
H    -3.9833682   -0.4749882   -4.8858452 
H    -4.2135928    0.5381110   -3.4490426 
H     5.1905541    2.8689863   -3.8184456 
H     4.7596599    1.2922408   -3.1248124 
H    -5.7186829   -1.1783570    3.7851770 
H    -5.4830217    0.1492313    2.6326817 
H     3.3703000    1.5903263    4.3959940 
H     3.8488649    0.1764975    3.4384966 
