105
Energy =
C     1.6161863   -2.2296683    1.1451854 
C     1.1844988   -2.7182112   -0.1164307 
C     1.7511042   -2.2034327   -1.3156297 
H     0.3042650   -3.3709927   -0.1671374 
Pd    0.7890824   -0.5564760   -0.0931439 
P     0.2473622    1.1388855   -1.6113749 
P    -0.3613499    0.6708907    1.5241103 
H     2.6300618   -1.8012078    1.1845000 
H     2.7794835   -1.8218025   -1.2459237 
C     0.0433179   -3.1520217    5.0471768 
C     1.3112423   -2.5703986    4.8992199 
C     1.8136859   -2.2982448    3.6203679 
C     1.0612722   -2.5979893    2.4613488 
C    -0.2040117   -3.2080437    2.6265375 
C    -0.7072110   -3.4765745    3.9036678 
H    -0.3542996   -3.3633214    6.0449120 
H     1.9123288   -2.3284499    5.7818666 
H     2.8030604   -1.8401104    3.5115039 
H    -0.8084420   -3.4676630    1.7520967 
H    -1.6909631   -3.9460072    4.0094151 
C     0.5421783   -3.1806204   -5.3369275 
C     1.7138686   -2.4472804   -5.0953686 
C     2.0962428   -2.1448310   -3.7829630 
C     1.3088772   -2.5511972   -2.6796134 
C     0.1281742   -3.2848250   -2.9409677 
C    -0.2428592   -3.6038646   -4.2518031 
H     0.2465719   -3.4288877   -6.3612226 
H     2.3414829   -2.1227374   -5.9319139 
H     3.0245792   -1.5931991   -3.6036574 
H    -0.5081106   -3.6182884   -2.1146415 
H    -1.1534699   -4.1853548   -4.4289208 
C    -0.6321929    0.5665967   -3.1607139 
C     1.5487718    2.3520631   -2.2349945 
C    -2.0295568   -0.1033390    1.9137630 
C     0.4538360    0.9342656    3.1786361 
C    -0.9662755    2.2620345   -0.7193547 
C    -0.6798285    2.3546058    0.7915067 
C    -1.8571747   -0.3007930   -2.7950930 
C    -1.0144508    1.6949561   -4.1443265 
C     2.2328685    3.1719856   -1.1178035 
C     2.6104325    1.6920875   -3.1464430 
C    -3.1695496    0.8908526    2.2320369 
C    -2.4949413   -1.0818773    0.8128004 
C     1.9310593    1.3480677    3.0046601 
C    -0.2897365    1.8826374    4.1453384 
C    -2.5606495   -0.8434798   -4.0509558 
C    -1.7222210    1.1272618   -5.3901607 
C     3.2606553    2.3524703   -0.3248085 
C     3.6763149    0.9150711   -2.3562226 
C    -4.4322457    0.1321710    2.6869345 
C    -3.7482142   -1.8532532    1.2596135 
C     2.6479435    1.4504617    4.3628163 
C     0.4477237    1.9765954    5.4956357 
C    -2.9524413    0.2894307   -5.0111021 
C     4.3306985    1.7696100   -1.2602088 
C    -4.8884768   -0.8922386    1.6352245 
C     1.9119486    2.4051528    5.3158572 
H     0.1109617   -0.0992972   -3.6444088 
H     0.9403984    3.0464950   -2.8436305 
H    -1.8083466   -0.6969962    2.8239874 
H     0.4398830   -0.0852785    3.6126513 
H    -1.9710826    1.8351728   -0.8879264 
H    -0.9573653    3.2636932   -1.1855921 
H    -1.5037053    2.8639552    1.3197380 
H     0.2373081    2.9389906    0.9825213 
H    -2.5832402    0.3084989   -2.2213934 
H    -1.5388027   -1.1296654   -2.1378557 
H    -0.1196214    2.2594854   -4.4591740 
H    -1.6888033    2.4133126   -3.6368679 
H     1.4848720    3.6343823   -0.4502381 
H     2.7523646    4.0162193   -1.6117201 
H     3.1009383    2.5070820   -3.7131572 
H     2.1352936    1.0364881   -3.8986086 
H    -3.4074015    1.4718732    1.3192879 
H    -2.8685804    1.6186747    3.0041143 
H    -1.6775595   -1.7751733    0.5453612 
H    -2.7255375   -0.5078789   -0.1033303 
H     1.9852354    2.3285903    2.4926520 
H     2.4452599    0.6207233    2.3502291 
H    -1.3209336    1.5292670    4.3144683 
H    -0.3604993    2.8917966    3.6945101 
H    -3.4489879   -1.4279755   -3.7501978 
H    -1.8772505   -1.5422217   -4.5672472 
H    -1.0061155    0.4944977   -5.9502331 
H    -2.0056972    1.9578933   -6.0608772 
H     2.7412636    1.5199515    0.1944802 
H     3.7205731    2.9787390    0.4601070 
H     4.4380245    0.5185968   -3.0511475 
H     3.1948383    0.0443776   -1.8763188 
H    -5.2403805    0.8547718    2.8989263 
H    -4.2132779   -0.3875771    3.6401377 
H    -3.4891788   -2.4819311    2.1348001 
H    -4.0703203   -2.5415042    0.4573987 
H     3.6909057    1.7798318    4.2072662 
H     2.6952877    0.4432696    4.8203837 
H     0.4129443    0.9862414    5.9906144 
H    -0.0866693    2.6814661    6.1572430 
H    -3.4277073   -0.1245518   -5.9179530 
H    -3.7070868    0.9420342   -4.5282744 
H     4.9038860    2.5967789   -1.7226450 
H     5.0560981    1.1639717   -0.6878453 
H    -5.7621328   -1.4574009    2.0052087 
H    -5.2222389   -0.3544972    0.7256533 
H     2.4237879    2.4399872    6.2938164 
H     1.9458917    3.4333688    4.9041813 
