105
Energy =
C     1.0602230   -2.5588933    1.3560157 
C     0.9803682   -2.8914742   -0.0288801 
C     1.8123397   -2.2511678   -0.9824974 
H     0.1442821   -3.5124680   -0.3749362 
Pd    0.5873452   -0.7390252    0.1242507 
P     0.1769238    0.8296040   -1.5453878 
P    -0.4025718    0.7442832    1.6138036 
H     2.0421303   -2.2441210    1.7405488 
H     2.7590687   -1.8286363   -0.6107508 
C    -1.6443673   -4.0686712    4.3569171 
C    -0.3189650   -3.7470764    4.6855565 
C     0.5535217   -3.2653294    3.7015089 
C     0.1195229   -3.0835218    2.3691866 
C    -1.2198614   -3.4119140    2.0535711 
C    -2.0878468   -3.9053255    3.0339457 
H    -2.3265540   -4.4494049    5.1237274 
H     0.0405876   -3.8812690    5.7110662 
H     1.5919016   -3.0344077    3.9644367 
H    -1.5924295   -3.2589626    1.0344825 
H    -3.1186918   -4.1605961    2.7670296 
C     1.6428186   -2.5717119   -5.2748097 
C     2.6129593   -1.7733468   -4.6479129 
C     2.6699593   -1.7060651   -3.2511687 
C     1.7482206   -2.4182442   -2.4471135 
C     0.7884319   -3.2306029   -3.0921772 
C     0.7415919   -3.3085989   -4.4893715 
H     1.5992347   -2.6325177   -6.3668690 
H     3.3335043   -1.2097363   -5.2497248 
H     3.4350144   -1.0873444   -2.7685850 
H     0.0708132   -3.8102882   -2.5032887 
H    -0.0024613   -3.9521272   -4.9699204 
C    -0.6608810    0.1091237   -3.0470885 
C     1.6654202    1.7757989   -2.1858768 
C    -2.0129063    0.1330628    2.3223086 
C     0.6304595    1.3271064    3.0551401 
C    -1.0461909    2.0478395   -0.8284603 
C    -0.7840623    2.3150420    0.6628366 
C    -1.8469280   -0.7867666   -2.6220597 
C    -1.0766331    1.1434299   -4.1160462 
C     1.4073509    3.2604672   -2.5272530 
C     2.8747011    1.6518192   -1.2315156 
C    -2.6784168    1.0751195    3.3482943 
C    -2.9978392   -0.2455932    1.1927818 
C     0.8016153    0.2052449    4.1007169 
C     2.0117357    1.8315024    2.5791209 
C    -2.5145935   -1.4520858   -3.8386761 
C    -1.7372265    0.4463430   -5.3215531 
C     2.6636092    3.8998217   -3.1503770 
C     4.1315446    2.2902065   -1.8479390 
C    -3.9608819    0.4340752    3.9152003 
C    -4.2768637   -0.8790329    1.7678856 
C     1.6698993    0.6659705    5.2843980 
C     2.8811189    2.2893172    3.7643982 
C    -2.9359071   -0.4124821   -4.8893725 
C     3.8854274    3.7595831   -2.2281243 
C    -4.9438778    0.0467816    2.7984841 
C     3.0401722    1.1748744    4.8105295 
H     0.1204170   -0.5454033   -3.4807235 
H     1.9126220    1.2348128   -3.1219616 
H    -1.7187324   -0.8045131    2.8356341 
H     0.0775601    2.1736664    3.5104374 
H    -2.0356301    1.5789865   -0.9677563 
H    -1.0500908    2.9867489   -1.4072420 
H    -1.6385097    2.8359828    1.1306459 
H     0.0973121    2.9697815    0.7835766 
H    -2.6028880   -0.1778867   -2.0879732 
H    -1.4918424   -1.5517775   -1.9054027 
H    -0.1975514    1.7182056   -4.4563836 
H    -1.7898813    1.8683242   -3.6770411 
H     1.1501477    3.8051085   -1.5973859 
H     0.5475069    3.3687585   -3.2106878 
H     3.0574156    0.5906599   -0.9845277 
H     2.6335128    2.1562995   -0.2767329 
H    -2.9359703    2.0350616    2.8587157 
H    -1.9839151    1.3117857    4.1733075 
H    -2.5055807   -0.9308756    0.4778634 
H    -3.2747764    0.6661216    0.6271779 
H     1.2841425   -0.6562382    3.6048927 
H    -0.1762186   -0.1535346    4.4655699 
H     1.8989270    2.6625867    1.8595100 
H     2.5203240    1.0081780    2.0379585 
H    -3.3850697   -2.0447026   -3.5041944 
H    -1.7984557   -2.1609310   -4.2943332 
H    -0.9843902   -0.1963118   -5.8187693 
H    -2.0479479    1.2058339   -6.0609190 
H     2.4648581    4.9636050   -3.3714714 
H     2.8732183    3.4082506   -4.1206243 
H     4.4175435    1.7178528   -2.7529644 
H     4.9770053    2.2080470   -1.1415271 
H    -4.4377786    1.1303879    4.6277707 
H    -3.6822988   -0.4703340    4.4907200 
H    -4.0125196   -1.8379929    2.2520208 
H    -4.9768726   -1.1155943    0.9464232 
H     1.7898918   -0.1694178    5.9973089 
H     1.1432967    1.4736680    5.8294307 
H     2.4101521    3.1733653    4.2368795 
H     3.8678184    2.6180858    3.3919566 
H    -3.3821899   -0.9151717   -5.7655861 
H    -3.7230384    0.2427452   -4.4659263 
H     4.7814917    4.1859912   -2.7125212 
H     3.7142628    4.3493274   -1.3057013 
H    -5.8368149   -0.4405711    3.2282794 
H    -5.2994976    0.9648336    2.2897590 
H     3.6346301    1.5367431    5.6679385 
H     3.6075446    0.3338424    4.3641728 
