105
Energy =
C     0.9203341   -2.4252951    1.2528601 
C     0.6319657   -2.7529344   -0.0933221 
C     1.2783549   -2.0843487   -1.1678791 
H    -0.1921779   -3.4415135   -0.3151309 
Pd    0.1238389   -0.6078529    0.0751421 
P     0.0037649    1.1527777   -1.4581209 
P    -0.6080738    0.9114845    1.7148175 
H     1.8823696   -1.9286176    1.4454334 
H     2.2624265   -1.6420488   -0.9524506 
C    -0.7867398   -4.2471571    4.7581422 
C     0.2562657   -3.3144839    4.8669890 
C     0.8050260   -2.7390322    3.7154329 
C     0.3153842   -3.0686451    2.4297678 
C    -0.7291623   -4.0186614    2.3372099 
C    -1.2698301   -4.6013643    3.4877306 
H    -1.2144527   -4.7036484    5.6564315 
H     0.6506724   -3.0433478    5.8518669 
H     1.6322817   -2.0267186    3.8048895 
H    -1.1295361   -4.3043644    1.3595986 
H    -2.0759504   -5.3363100    3.3941410 
C     0.7079037   -2.9534321   -5.3460211 
C     1.8861718   -2.3408367   -4.8934771 
C     2.0538580   -2.0620504   -3.5310935 
C     1.0454982   -2.3833800   -2.5935804 
C    -0.1373883   -2.9991169   -3.0646512 
C    -0.2997404   -3.2856890   -4.4241099 
H     0.5744738   -3.1743002   -6.4097415 
H     2.6794625   -2.0845044   -5.6031379 
H     2.9819806   -1.5952235   -3.1810293 
H    -0.9451864   -3.2412182   -2.3658440 
H    -1.2205789   -3.7659472   -4.7706038 
C    -1.0930707    1.0873149   -2.9788143 
C     1.7073353    1.6344508   -2.0479389 
C    -2.4187449    0.9785630    2.2582575 
C     0.4023519    0.9852681    3.2820543 
C    -0.6940363    2.6285197   -0.5459101 
C    -0.3533155    2.6048000    0.9494851 
C    -0.4165817    0.4983925   -4.2337634 
C    -2.3877694    0.3128872   -2.6425636 
C     1.7791858    2.9664047   -2.8262007 
C     2.7507779    1.6189424   -0.9082025 
C    -3.3719946    0.6110393    1.0954138 
C    -2.7523043    0.1122671    3.4927401 
C     1.9165438    0.9323352    2.9755002 
C     0.0766462    2.1938348    4.1905902 
C    -1.3916398    0.4754418   -5.4255986 
C    -3.3562966    0.2886745   -3.8378463 
C     3.1969190    3.1788631   -3.3929506 
C     4.1684091    1.8287522   -1.4700116 
C    -3.3551732   -0.8914602    0.7676951 
C    -2.7235321   -1.3864791    3.1744794 
C     2.7425973    0.8844502    4.2742720 
C     0.9000551    2.1325765    5.4915823 
C    -2.6814439   -0.2895852   -5.0909754 
C     4.2612750    3.1306213   -2.2839935 
C    -3.6628692   -1.7407449    2.0113120 
C     2.4075853    2.0658244    5.1992639 
H    -1.3546019    2.1464348   -3.1825961 
H     1.9564569    0.8059048   -2.7419182 
H    -2.5637252    2.0438835    2.5192557 
H     0.1307853    0.0511551    3.8131676 
H    -1.7872898    2.5894879   -0.6973640 
H    -0.3400552    3.5589974   -1.0234094 
H    -0.9448573    3.3553399    1.5028182 
H     0.7119719    2.8511226    1.1029933 
H    -0.0850560   -0.5292210   -4.0175332 
H     0.4831354    1.0758093   -4.5057079 
H    -2.8868095    0.7563115   -1.7630621 
H    -2.1116389   -0.7215506   -2.3598102 
H     1.5357167    3.8021867   -2.1418005 
H     1.0344716    2.9933745   -3.6411516 
H     2.6866095    0.6706739   -0.3422093 
H     2.5214377    2.4301280   -0.1897641 
H    -3.1420332    1.2073303    0.1952564 
H    -4.3935313    0.9057214    1.4041762 
H    -3.7699833    0.4047471    3.8186310 
H    -2.0836377    0.3430692    4.3396005 
H     2.2091111    1.8301074    2.3963806 
H     2.1442530    0.0617076    2.3350530 
H    -1.0009772    2.2340497    4.4268475 
H     0.3223350    3.1298541    3.6530262 
H    -0.8856601    0.0175805   -6.2944586 
H    -1.6432594    1.5152100   -5.7142385 
H    -3.7014565    1.3205710   -4.0457986 
H    -4.2546339   -0.2973296   -3.5721862 
H     3.2411483    4.1433778   -3.9292614 
H     3.4052769    2.3897449   -4.1420202 
H     4.4272272    0.9677944   -2.1180509 
H     4.9018001    1.8349374   -0.6437987 
H    -2.3489145   -1.1624284    0.3748309 
H    -4.0746854   -1.1035478   -0.0432928 
H    -2.9820322   -1.9708116    4.0742783 
H    -1.6904131   -1.6747022    2.9083544 
H     3.8197811    0.8750003    4.0293069 
H     2.5296791   -0.0650242    4.8039190 
H     0.5943301    1.2384110    6.0696518 
H     0.6652218    3.0106026    6.1191473 
H    -3.3771552   -0.2629157   -5.9483214 
H    -2.4337916   -1.3535839   -4.9122045 
H     5.2708039    3.2385300   -2.7183052 
H     4.1167024    3.9935666   -1.6040954 
H    -4.7123142   -1.5667755    2.3207143 
H    -3.5790192   -2.8157569    1.7708410 
H     2.9782496    1.9870223    6.1413717 
H     2.7269022    3.0097286    4.7146008 
