105
Energy =
C     1.0646988   -2.5514555    0.9888339 
C     0.6917399   -2.8446008   -0.3411721 
C     1.3081765   -2.1822836   -1.4463838 
H    -0.1807163   -3.4840491   -0.5240387 
Pd    0.3333858   -0.6778195   -0.1230937 
P     0.2710662    1.1577741   -1.5518831 
P    -0.7616202    0.6878935    1.4286471 
H     2.0471734   -2.0759155    1.1353020 
H     2.3569664   -1.8765034   -1.3186023 
C    -0.4803795   -4.3401804    4.5841531 
C    -1.1318786   -4.5708294    3.3608043 
C    -0.6503928   -3.9924449    2.1818897 
C     0.5053223   -3.1771110    2.1981788 
C     1.1625558   -2.9715928    3.4338366 
C     0.6723851   -3.5403484    4.6148959 
H    -0.8640680   -4.7910460    5.5048284 
H    -2.0222207   -5.2070119    3.3275968 
H    -1.1821938   -4.1764631    1.2430070 
H     2.0679003   -2.3555685    3.4619841 
H     1.1949421   -3.3656822    5.5609908 
C     0.0875845   -2.7374826   -5.5466463 
C    -0.8342818   -2.9446327   -4.5069079 
C    -0.4511450   -2.7576552   -3.1744789 
C     0.8721360   -2.3796360   -2.8455429 
C     1.7917423   -2.1910713   -3.9021477 
C     1.4027828   -2.3599821   -5.2372868 
H    -0.2164720   -2.8768576   -6.5889392 
H    -1.8607426   -3.2478825   -4.7374799 
H    -1.1941908   -2.8921211   -2.3808072 
H     2.8278069   -1.9219129   -3.6716592 
H     2.1339928   -2.2099111   -6.0384254 
C    -0.5986910    0.8964565   -3.1765713 
C     1.9422382    1.9108256   -1.9124654 
C    -2.2056923    0.0217200    2.4089208 
C     0.3787071    1.6615031    2.5429140 
C    -0.6558864    2.5461174   -0.6967283 
C    -1.5873080    2.0151211    0.4014534 
C    -2.0663291    0.4810333   -2.9180975 
C    -0.5145217    2.0902802   -4.1522235 
C     2.7287135    2.1507131   -0.6026057 
C     2.7689563    1.0395105   -2.8795668 
C    -3.0780713   -0.8671814    1.4895874 
C    -1.8165933   -0.7503489    3.6870148 
C    -0.3260104    2.5677001    3.5759999 
C     1.4593619    0.7712033    3.1953002 
C    -2.8004875    0.1834161   -4.2374163 
C    -1.2520557    1.7676211   -5.4665681 
C     4.1094547    2.7719128   -0.8823495 
C     4.1433594    1.6710282   -3.1644360 
C    -4.3384040   -1.3517382    2.2286877 
C    -3.0728402   -1.2460367    4.4277547 
C     0.7076519    3.4105074    4.3484425 
C     2.4737377    1.6264521    3.9747376 
C    -2.7145168    1.3710423   -5.2094280 
C     4.9256333    1.9166064   -1.8644196 
C    -3.9750133   -2.0987328    3.5215749 
C     1.7756140    2.5238873    5.0100565 
H    -0.0733009    0.0299804   -3.6241579 
H     1.7356308    2.8899432   -2.3905249 
H    -2.7918132    0.9180722    2.6997630 
H     0.9009607    2.3184566    1.8175266 
H    -1.2150242    3.1297132   -1.4489742 
H     0.1027990    3.2247874   -0.2696693 
H    -2.4806361    1.5442642   -0.0440799 
H    -1.9409641    2.8299727    1.0586096 
H    -2.5938368    1.3040679   -2.3960910 
H    -2.0932727   -0.3977780   -2.2462740 
H     0.5377890    2.3464877   -4.3668693 
H    -0.9745834    2.9851953   -3.6883135 
H     2.8516083    1.1794047   -0.0811328 
H     2.1607606    2.8062703    0.0824575 
H     2.2231568    0.8661290   -3.8230440 
H     2.9147294    0.0485857   -2.4117949 
H    -2.4699619   -1.7366677    1.1698111 
H    -3.3650694   -0.3259944    0.5690784 
H    -1.2184388   -0.1145004    4.3610619 
H    -1.1842401   -1.6112377    3.4132422 
H    -0.8929115    1.9436776    4.2912008 
H    -1.0594264    3.2298969    3.0807081 
H     1.9698488    0.1806504    2.4120748 
H     0.9825149    0.0440979    3.8781214 
H    -3.8544053   -0.0714322   -4.0251299 
H    -2.3413030   -0.7063627   -4.7060296 
H    -0.7280840    0.9343716   -5.9743896 
H    -1.1979049    2.6391367   -6.1430569 
H     4.6552146    2.8999889    0.0697453 
H     3.9688621    3.7856339   -1.3056611 
H     3.9987634    2.6308178   -3.6978661 
H     4.7163004    1.0155280   -3.8445163 
H    -4.9341089   -1.9993710    1.5604337 
H    -4.9733349   -0.4766138    2.4697061 
H    -3.6435469   -0.3722288    4.7998198 
H    -2.7635228   -1.8256819    5.3160006 
H     0.1906753    4.0264602    5.1055844 
H     1.1973516    4.1149067    3.6470768 
H     3.0358988    2.2596555    3.2592695 
H     3.2149229    0.9706794    4.4660526 
H    -3.2156785    1.1213940   -6.1613621 
H    -3.2591795    2.2371778   -4.7835777 
H     5.8924878    2.4031819   -2.0828053 
H     5.1612847    0.9423295   -1.3914798 
H    -4.8911904   -2.3939700    4.0631986 
H    -3.4423896   -3.0323249    3.2609913 
H     2.5178530    3.1494827    5.5365558 
H     1.2956524    1.8875290    5.7796882 
