105
Energy =
C     1.1639971    1.1175324    2.5532650 
C     2.2361844    0.8103457    1.6852406 
C     2.4538064    1.5510503    0.4843004 
H     2.8231727   -0.0989562    1.8662573 
Pd    0.4279892    0.6156661    0.4443897 
P    -0.0710432    0.7545280   -1.8259146 
P    -1.5847943   -0.5575911    0.6348668 
H     0.7475430    2.1351844    2.4897414 
H     2.1555040    2.6097156    0.4934658 
C     0.2122874   -0.8835443    6.2420606 
C    -0.1801245    0.4448256    6.0232406 
C     0.1345274    1.0800747    4.8150937 
C     0.8580556    0.4048933    3.8059849 
C     1.2639276   -0.9280426    4.0492088 
C     0.9391292   -1.5652096    5.2501771 
H    -0.0393993   -1.3851428    7.1819066 
H    -0.7362643    0.9874240    6.7944439 
H    -0.1815201    2.1157700    4.6468238 
H     1.8202349   -1.4790404    3.2849048 
H     1.2531544   -2.6008906    5.4167379 
C     5.4985742    0.5644895   -2.4086221 
C     4.9792485   -0.4351619   -1.5691980 
C     3.9842447   -0.1274877   -0.6351941 
C     3.4969794    1.1941241   -0.5011222 
C     4.0432197    2.1917990   -1.3403362 
C     5.0260164    1.8799083   -2.2885751 
H     6.2718341    0.3201427   -3.1438879 
H     5.3495761   -1.4625739   -1.6469109 
H     3.5735180   -0.9273212   -0.0094628 
H     3.7022504    3.2272215   -1.2370829 
H     5.4345836    2.6706376   -2.9263617 
C    -2.8245697   -0.3309580    2.0102337 
C    -1.2201293   -2.3755673    0.3787195 
C    -0.3606203    2.4911992   -2.4505968 
C     1.1423463   -0.0583389   -2.9802678 
C    -2.5913656   -0.1394264   -0.8829820 
C    -1.7132181   -0.0968735   -2.1431816 
C    -2.4665394   -1.0732577    3.3154754 
C    -3.0133262    1.1818256    2.2770625 
C    -0.0583130   -2.8782706    1.2635425 
C    -2.4475532   -3.3097077    0.4457759 
C    -1.4254140    3.2153179   -1.5942216 
C     0.9451920    3.3068709   -2.5083386 
C     1.3369340   -1.5418582   -2.5884676 
C     0.7941404    0.0922127   -4.4772234 
C    -3.5324381   -0.8215403    4.3986252 
C    -4.0889336    1.4228907    3.3513751 
C     0.3193388   -4.3239958    0.8965360 
C    -2.0459116   -4.7525898    0.0814385 
C    -1.6644913    4.6520613   -2.0950443 
C     0.6919249    4.7362293   -3.0195292 
C     2.3850181   -2.2221614   -3.4866002 
C     1.8559012   -0.5971476   -5.3559917 
C    -3.7530160    0.6781945    4.6528884 
C    -0.8987825   -5.2597978    0.9711418 
C    -0.3573318    5.4575052   -2.1589456 
C     2.0301674   -2.0759015   -4.9749303 
H    -3.7751302   -0.7452577    1.6151987 
H    -0.8459617   -2.3837817   -0.6653555 
H    -0.7571909    2.3705819   -3.4789952 
H     2.0950824    0.4694021   -2.7748356 
H    -3.0498324    0.8450842   -0.6894353 
H    -3.4157606   -0.8662023   -0.9950095 
H    -2.2305811    0.4132327   -2.9749200 
H    -1.4853590   -1.1199588   -2.4894273 
H    -1.4833222   -0.7262429    3.6750982 
H    -2.3764042   -2.1571950    3.1330808 
H    -3.2806126    1.7169470    1.3470524 
H    -2.0445238    1.5984251    2.6158282 
H    -0.3456575   -2.8257223    2.3295155 
H     0.8107246   -2.2048500    1.1358520 
H    -3.2462959   -2.9576665   -0.2321807 
H    -2.8686864   -3.2970183    1.4679537 
H    -1.0812036    3.2353622   -0.5399224 
H    -2.3783524    2.6570289   -1.6083258 
H     1.6973657    2.8014213   -3.1390564 
H     1.3674391    3.3567205   -1.4881166 
H     0.3761065   -2.0837154   -2.6962559 
H     1.6263200   -1.6119460   -1.5234104 
H     0.7166705    1.1589893   -4.7526104 
H    -0.1959049   -0.3646392   -4.6740834 
H    -3.2267003   -1.3288017    5.3311841 
H    -4.4877675   -1.2850090    4.0821110 
H    -5.0679274    1.0760083    2.9663910 
H    -4.1891424    2.5071231    3.5385188 
H     1.1241810   -4.6806471    1.5643264 
H     0.7310107   -4.3381699   -0.1327017 
H    -1.7287567   -4.7824531   -0.9798435 
H    -2.9260112   -5.4144130    0.1674482 
H    -2.3993778    5.1526248   -1.4395288 
H    -2.1184890    4.6094573   -3.1043635 
H     0.3430069    4.6912180   -4.0696914 
H     1.6428253    5.2986624   -3.0270325 
H     2.4732896   -3.2879874   -3.2085722 
H     3.3701627   -1.7572496   -3.2978312 
H     2.8211941   -0.0688833   -5.2303902 
H     1.5744596   -0.4994014   -6.4196019 
H    -4.5567578    0.8252860    5.3960136 
H    -2.8322586    1.1095706    5.0888178 
H    -0.6126644   -6.2849416    0.6766196 
H    -1.2495281   -5.3184133    2.0204428 
H    -0.5513849    6.4694424   -2.5558827 
H     0.0411996    5.5908204   -1.1333623 
H     1.0892676   -2.6221721   -5.1860666 
H     2.8118172   -2.5419552   -5.6005788 
