105
Energy =
C     1.1728199    0.0567776    2.6995662 
C     2.1834853    0.3113926    1.7345815 
C     2.1864618    1.4866224    0.9422426 
H     2.8924014   -0.4898832    1.4935751 
Pd    0.2813660    0.3284414    0.6162077 
P    -0.1476051    0.7376508   -1.6471282 
P    -1.8066216   -0.7304164    0.7036163 
H     0.6859604    0.9307383    3.1552894 
H     1.6405377    2.3583545    1.3349011 
C     1.0038287   -3.5357922    5.0812455 
C     1.6829099   -3.5427906    3.8512631 
C     1.7274446   -2.3894706    3.0620997 
C     1.1074213   -1.1907165    3.4884762 
C     0.4410904   -1.1971818    4.7358930 
C     0.3836893   -2.3568303    5.5195006 
H     0.9669349   -4.4410573    5.6956064 
H     2.1760876   -4.4560167    3.5028314 
H     2.2499475   -2.4242895    2.1002084 
H    -0.0171836   -0.2747110    5.1059338 
H    -0.1340141   -2.3339776    6.4840713 
C     5.0820149    2.5036677   -2.0833450 
C     4.0817813    3.4140968   -1.7079853 
C     3.1570543    3.0712668   -0.7143108 
C     3.1961839    1.8046866   -0.0864859 
C     4.2172373    0.9029070   -0.4678346 
C     5.1509997    1.2517994   -1.4500803 
H     5.8108167    2.7714569   -2.8548644 
H     4.0286084    4.3991074   -2.1833655 
H     2.3896658    3.7933112   -0.4138636 
H     4.2882775   -0.0823569    0.0031989 
H     5.9354426    0.5402299   -1.7273842 
C    -3.2779873    0.2005036    1.4425672 
C    -1.8715315   -2.4445984    1.4344600 
C    -0.0421695    2.4770577   -2.3026492 
C     0.8861650   -0.3397919   -2.7948202 
C    -2.3368753   -0.9658172   -1.0801169 
C    -1.9099162    0.2048899   -1.9784853 
C    -3.4278438    0.0526812    2.9740972 
C    -3.2788321    1.7016823    1.0620526 
C    -3.2547279   -3.1292749    1.3433238 
C    -0.7788968   -3.3439707    0.8134484 
C    -0.6648340    2.6649817   -3.7048895 
C    -0.6181643    3.5004712   -1.3012586 
C     2.1066998    0.3997826   -3.3860552 
C     1.3250000   -1.6227914   -2.0493148 
C    -2.3786922    0.8617142    3.7476164 
C    -2.2265809    2.5121527    1.8349104 
C    -3.2222652   -4.5126605    2.0221737 
C    -0.7532254   -4.7236900    1.4941505 
C    -0.4351200    4.1039329   -4.2055973 
C    -0.4039010    4.9386858   -1.8076546 
C     2.9631583   -0.5347642   -4.2603056 
C     2.1730972   -2.5431538   -2.9429693 
C    -2.3903965    2.3466646    3.3529774 
C    -2.1267908   -5.4099361    1.4244977 
C    -0.9942863    5.1371148   -3.2135423 
C     3.3953101   -1.7978719   -3.5002141 
H    -4.1419378   -0.2895425    0.9552319 
H    -1.6071808   -2.2855212    2.4997579 
H     1.0480699    2.6566349   -2.3704603 
H     0.2088386   -0.6243629   -3.6252070 
H    -3.4292836   -1.1218032   -1.1263944 
H    -1.8609919   -1.9020167   -1.4210743 
H    -2.5435563    1.0893726   -1.7915992 
H    -2.0231093   -0.0527526   -3.0462523 
H    -3.3991706   -1.0070872    3.2804011 
H    -4.4404689    0.4195725    3.2323472 
H    -4.2859597    2.0964208    1.2984964 
H    -3.1485397    1.8354437   -0.0255845 
H    -3.5275863   -3.2542160    0.2773075 
H    -4.0406933   -2.5058793    1.8038500 
H     0.2040940   -2.8474424    0.8897436 
H    -0.9867150   -3.4842943   -0.2658418 
H    -1.7535551    2.4722878   -3.6514502 
H    -0.2471256    1.9373119   -4.4237298 
H    -0.1494759    3.3631889   -0.3105204 
H    -1.7025769    3.3201961   -1.1655031 
H     2.7255937    0.7968542   -2.5637008 
H     1.7825785    1.2638556   -3.9897940 
H     0.4440564   -2.1668091   -1.6658998 
H     1.9154391   -1.3230313   -1.1598950 
H    -1.3850583    0.4346890    3.5268094 
H    -2.5409786    0.7450335    4.8336507 
H    -2.2849694    3.5761133    1.5449091 
H    -1.2144088    2.1587452    1.5345315 
H    -4.2127649   -4.9923747    1.9281437 
H    -3.0362468   -4.3754949    3.1054922 
H    -0.4587683   -4.5921445    2.5519377 
H     0.0222827   -5.3544230    1.0230862 
H    -0.9004804    4.2294759   -5.1993840 
H     0.6520111    4.2692611   -4.3402455 
H     0.6833494    5.1508407   -1.8341695 
H    -0.8492009    5.6550937   -1.0942447 
H     3.8463915    0.0221900   -4.6213631 
H     2.3838524   -0.8281337   -5.1579023 
H     1.5512728   -2.9129001   -3.7819106 
H     2.4852136   -3.4320377   -2.3653763 
H    -3.3479022    2.8039252    3.6703778 
H    -1.5906521    2.8920663    3.8864369 
H    -2.0973140   -6.3794475    1.9526248 
H    -2.3738361   -5.6330768    0.3675940 
H    -0.7906149    6.1615540   -3.5720496 
H    -2.0963821    5.0337286   -3.1633483 
H     4.0600170   -1.5094923   -2.6620835 
H     3.9830058   -2.4605827   -4.1598075 
