105
Energy =
C     1.3828581    0.6372405    2.5290947 
C     2.3673914    0.3016999    1.5825616 
C     2.5008209    1.0373454    0.3557045 
H     2.9495873   -0.6191345    1.7196316 
Pd    0.4915883    0.1269576    0.4150169 
P    -0.2266624    0.7707121   -1.6904834 
P    -1.5241976   -1.0670088    0.6426444 
H     0.8832848    1.6119073    2.4109001 
H     2.2977830    2.1163589    0.4051258 
C     0.6358771   -1.2626034    6.3075508 
C    -0.2706715   -0.3267166    5.7833667 
C    -0.0028007    0.2975046    4.5609137 
C     1.1654589   -0.0151698    3.8257216 
C     2.0796092   -0.9435546    4.3769234 
C     1.8152374   -1.5590143    5.6048939 
H     0.4321890   -1.7474654    7.2676665 
H    -1.1830420   -0.0771900    6.3350857 
H    -0.7060820    1.0341115    4.1572896 
H     3.0093169   -1.1773470    3.8489000 
H     2.5356995   -2.2709362    6.0204054 
C     5.1635414   -0.1790442   -2.8175215 
C     4.5463531   -1.1466055   -2.0072316 
C     3.6828838   -0.7583393   -0.9774883 
C     3.4228339    0.6091742   -0.7221207 
C     4.0650691    1.5701880   -1.5349881 
C     4.9203778    1.1810340   -2.5743622 
H     5.8334951   -0.4839843   -3.6277760 
H     4.7326595   -2.2108868   -2.1850329 
H     3.1862942   -1.5271155   -0.3758613 
H     3.9038213    2.6357058   -1.3403619 
H     5.4083148    1.9444621   -3.1892960 
C    -2.7196773   -0.3918532    1.9044746 
C    -1.5348242   -2.9417993    0.8857335 
C    -0.3189944    2.6172414   -1.9895014 
C     0.6957917    0.0374698   -3.1305146 
C    -2.3690923   -0.9848194   -1.0335785 
C    -2.0244771    0.2695290   -1.8450367 
C    -2.8102379    1.1476377    1.8149837 
C    -4.1277884   -1.0252383    1.8965679 
C    -0.4233902   -3.6145418    0.0438154 
C    -1.4390491   -3.4079567    2.3530377 
C    -0.9456437    3.3383263   -0.7738545 
C     1.0432949    3.2479436   -2.3394816 
C     0.7532213   -1.5018653   -3.0141197 
C     0.1875126    0.4724937   -4.5219857 
C    -3.6725124    1.7177579    2.9554498 
C    -4.9856810   -0.4530264    3.0423477 
C     0.9771608   -3.3843534    0.6336793 
C    -0.0455827   -3.1669179    2.9440203 
C    -1.0773830    4.8513815   -1.0260952 
C     0.9040460    4.7587095   -2.6018552 
C     1.6203024   -2.1064538   -4.1320939 
C     1.0665011   -0.1379295   -5.6315399 
C    -5.0719034    1.0804012    2.9724570 
C     1.0558639   -3.8302020    2.1024320 
C     0.2739253    5.4804766   -1.4002455 
C     1.1306011   -1.6700411   -5.5224908 
H    -2.2225157   -0.6428906    2.8639154 
H    -2.5213461   -3.2374272    0.4788510 
H    -0.9996285    2.7306054   -2.8584988 
H     1.7266760    0.4209357   -2.9858120 
H    -3.4604477   -1.0858153   -0.8994798 
H    -2.0301172   -1.8883970   -1.5694957 
H    -2.6048275    1.1352456   -1.4816385 
H    -2.2799425    0.1373250   -2.9114864 
H    -3.2639782    1.4290283    0.8442506 
H    -1.7956149    1.5874615    1.8294503 
H    -4.0693890   -2.1244707    1.9813771 
H    -4.6232634   -0.8037464    0.9311353 
H    -0.4589446   -3.2733465   -1.0061462 
H    -0.6391295   -4.7001579    0.0216168 
H    -1.6656640   -4.4922276    2.3609584 
H    -2.2134702   -2.9302242    2.9780132 
H    -0.3006887    3.1596423    0.1100929 
H    -1.9346243    2.9122390   -0.5294322 
H     1.5025199    2.7515087   -3.2111710 
H     1.7294616    3.0906324   -1.4893054 
H    -0.2732589   -1.9126897   -3.0912480 
H     1.1460916   -1.7846243   -2.0211372 
H     0.1769613    1.5728281   -4.6134787 
H    -0.8571055    0.1294279   -4.6572528 
H    -3.7457515    2.8155809    2.8555500 
H    -3.1677445    1.5199567    3.9219298 
H    -4.5390918   -0.7547961    4.0101914 
H    -5.9952281   -0.8995392    3.0071552 
H     1.2087720   -2.2970105    0.5704958 
H     1.7338632   -3.9048702    0.0196595 
H    -0.0070701   -3.5246395    3.9872294 
H     0.1369977   -2.0778699    2.9858801 
H    -1.4994544    5.3394705   -0.1293879 
H    -1.8014707    5.0179609   -1.8475251 
H     0.2747307    4.9147466   -3.4998275 
H     1.8964997    5.1846648   -2.8343453 
H     1.6202325   -3.2081323   -4.0469698 
H     2.6651816   -1.7729315   -3.9867364 
H     2.0885405    0.2807040   -5.5482722 
H     0.6773219    0.1655485   -6.6197066 
H    -5.6595192    1.4700885    3.8223664 
H    -5.6156660    1.3730418    2.0524031 
H     0.9474193   -4.9313322    2.1550294 
H     2.0497272   -3.5913645    2.5223898 
H     0.1487153    6.5555564   -1.6190960 
H     0.9609154    5.4120673   -0.5331742 
H     0.1222871   -2.0915091   -5.7064104 
H     1.7911641   -2.0809098   -6.3063858 
