105
Energy =
C     1.1340027   -0.0875553    2.7341887 
C     2.1442097    0.0743794    1.7549719 
C     2.2051058    1.2363393    0.9402525 
H     2.8083246   -0.7694958    1.5327581 
Pd    0.2490314    0.1758369    0.6251489 
P    -0.2091269    0.7997484   -1.5825744 
P    -1.8510761   -0.8772312    0.6493574 
H     0.6703352    0.8282687    3.1258774 
H     1.7339590    2.1466589    1.3405911 
C     0.7315280   -3.4623795    5.3770341 
C     0.1362050   -2.2305121    5.6875982 
C     0.2797835   -1.1424164    4.8180487 
C     1.0072139   -1.2647404    3.6112473 
C     1.6037334   -2.5123538    3.3138231 
C     1.4743389   -3.5935985    4.1913217 
H     0.6257853   -4.3136616    6.0569085 
H    -0.4335862   -2.1138188    6.6151405 
H    -0.1696010   -0.1772428    5.0768743 
H     2.1658554   -2.6449800    2.3834595 
H     1.9516907   -4.5485127    3.9486126 
C     5.1635515    2.0559842   -2.0854533 
C     4.2802479    3.0563642   -1.6509082 
C     3.3297247    2.7729368   -0.6627592 
C     3.2256594    1.4805016   -0.0984302 
C     4.1271411    0.4849942   -0.5427304 
C     5.0880766    0.7729910   -1.5185098 
H     5.9128253    2.2759640   -2.8524387 
H     4.3396999    4.0642691   -2.0747163 
H     2.6583355    3.5643751   -0.3117919 
H     4.0814841   -0.5264920   -0.1269554 
H     5.7806794   -0.0101846   -1.8433507 
C    -3.2500068   -0.1359296    1.6875205 
C    -1.9857325   -2.7107999    1.0465147 
C     0.0011652    2.5842564   -2.0750676 
C     0.7181739   -0.2094020   -2.8792405 
C    -2.4475023   -0.8596248   -1.1282672 
C    -2.0116966    0.3999963   -1.8903030 
C    -2.6956256    0.3829589    3.0376548 
C    -4.1347199    0.9336105    1.0090115 
C    -0.8552634   -3.5093134    0.3637563 
C    -2.0386164   -3.0348847    2.5549993 
C    -0.6734697    2.9483137   -3.4179309 
C    -0.4249559    3.5731569   -0.9700821 
C     1.9343916    0.5239878   -3.4880173 
C     1.1461754   -1.5666720   -2.2756505 
C    -2.0438275    1.7698713    2.9175947 
C    -3.4740229    2.3163284    0.9286916 
C    -1.0224003   -5.0224825    0.5945205 
C    -2.2040409   -4.5494359    2.7857037 
C    -0.3137268    4.3910894   -3.8220655 
C    -0.0650430    5.0158631   -1.3708484 
C     2.6752962   -0.3679004   -4.5021573 
C     1.8783158   -2.4461529   -3.3026583 
C    -3.0007218    2.8015702    2.3058877 
C    -1.0988416   -5.3592028    2.0910141 
C    -0.6959604    5.3948428   -2.7215511 
C     3.0936401   -1.7133559   -3.8901230 
H    -3.8871506   -1.0194900    1.8789193 
H    -2.9549213   -3.0074363    0.5913754 
H     1.0982161    2.6750474   -2.1927416 
H    -0.0198131   -0.3954848   -3.6857065 
H    -3.5446309   -0.9867197   -1.1533821 
H    -2.0128432   -1.7597457   -1.5977966 
H    -2.5904221    1.2781444   -1.5557314 
H    -2.1857823    0.2893596   -2.9751555 
H    -1.9793376   -0.3418899    3.4615604 
H    -3.5420455    0.4399232    3.7491345 
H    -5.0538245    1.0148867    1.6214510 
H    -4.4717750    0.5986266    0.0117239 
H     0.1148756   -3.1653897    0.7720948 
H    -0.8325298   -3.3053727   -0.7215111 
H    -2.8714136   -2.5017463    3.0447256 
H    -1.1066799   -2.6901431    3.0343024 
H    -1.7718639    2.8651720   -3.3079101 
H    -0.3789277    2.2426375   -4.2153293 
H     0.0454612    3.3002656   -0.0078113 
H    -1.5180089    3.5074833   -0.8163918 
H     2.6290853    0.8117394   -2.6808670 
H     1.6198399    1.4542114   -3.9893108 
H     0.2685192   -2.1003402   -1.8736851 
H     1.8108105   -1.3699658   -1.4109886 
H    -1.1523238    1.6910763    2.2574843 
H    -1.6803037    2.0991574    3.9077850 
H    -4.1715538    3.0395649    0.4700355 
H    -2.5914482    2.2596926    0.2643425 
H    -0.1861783   -5.5629249    0.1153361 
H    -1.9484330   -5.3621174    0.0902302 
H    -3.1930868   -4.8699884    2.4026264 
H    -2.2035152   -4.7497757    3.8721288 
H    -0.8172553    4.6472494   -4.7712167 
H     0.7756760    4.4483795   -4.0145517 
H     1.0368937    5.1082179   -1.4415102 
H    -0.3919869    5.7152675   -0.5806927 
H     3.5587786    0.1775906   -4.8797224 
H     2.0181812   -0.5510205   -5.3751327 
H     1.1782072   -2.7150292   -4.1181125 
H     2.1850843   -3.3939380   -2.8243157 
H    -3.8737314    2.9472041    2.9714054 
H    -2.5021045    3.7833487    2.2154046 
H    -1.2702363   -6.4411897    2.2317966 
H    -0.1281544   -5.1241097    2.5655526 
H    -0.3913842    6.4156589   -3.0124134 
H    -1.7986512    5.4133045   -2.6139688 
H     3.8335240   -1.5331168   -3.0860295 
H     3.5930424   -2.3414001   -4.6489329 
