105
Energy =
C     1.6021438    0.4005726    2.7062512 
C     2.6342691    0.4807438    1.7304687 
C     2.6492898    1.5618587    0.8029217 
H     3.2948999   -0.3798947    1.5680820 
Pd    0.7283152    0.4269400    0.6531054 
P     0.0611189    0.8360175   -1.5331921 
P    -1.2546100   -0.7579046    0.9136907 
H     1.1404755    1.3526534    3.0094877 
H     2.1961439    2.5065378    1.1405647 
C     0.7065884   -2.8430941    5.3952546 
C    -0.0062854   -1.6351229    5.4562460 
C     0.3184014   -0.5845460    4.5901539 
C     1.3515028   -0.7200365    3.6321057 
C     2.0642133   -1.9394445    3.5870865 
C     1.7483994   -2.9841440    4.4639647 
H     0.4612133   -3.6643110    6.0761023 
H    -0.8110887   -1.5084943    6.1879353 
H    -0.2379453    0.3584537    4.6466461 
H     2.8737003   -2.0785048    2.8633132 
H     2.3214710   -3.9161366    4.4221447 
C     5.1246755    2.0263110   -2.6934797 
C     5.0886194    0.7885172   -2.0292541 
C     4.3083540    0.6229726   -0.8798465 
C     3.5429982    1.6944759   -0.3641214 
C     3.6122380    2.9419215   -1.0279280 
C     4.3887780    3.1057784   -2.1819004 
H     5.7343882    2.1507036   -3.5940609 
H     5.6759182   -0.0537515   -2.4096405 
H     4.2929814   -0.3531726   -0.3843615 
H     3.0491627    3.7923500   -0.6259589 
H     4.4254149    4.0811083   -2.6784951 
C    -2.5316784    0.1048320    1.9860507 
C    -1.0576698   -2.4744841    1.6098214 
C     0.1542642    2.6233037   -2.0396717 
C     1.0336867   -0.1454283   -2.7978259 
C    -1.9792034   -0.9473204   -0.8016497 
C    -1.7310712    0.3183565   -1.6429130 
C    -2.2082423    1.6061868    2.1681388 
C    -3.9988628   -0.0727473    1.5349397 
C    -2.3662838   -3.2819083    1.7497312 
C     0.0165370   -3.2556278    0.8198083 
C    -0.3997985    2.9690658   -3.4387099 
C    -0.4675353    3.5253387   -0.9486636 
C     1.6582125   -1.4127419   -2.1689667 
C     0.2720357   -0.5216035   -4.0884400 
C    -3.1721174    2.2612094    3.1731714 
C    -4.9619632    0.5749927    2.5485852 
C    -2.0883691   -4.6665786    2.3671514 
C     0.2644659   -4.6447796    1.4335159 
C    -0.1984683    4.4657849   -3.7491322 
C    -0.2580935    5.0147308   -1.2753528 
C     2.6037740   -2.1080413   -3.1625210 
C     1.2178977   -1.2119039   -5.0908745 
C    -4.6394774    2.0630668    2.7593726 
C    -1.0404933   -5.4468729    1.5582499 
C    -0.8147415    5.3638742   -2.6650791 
C     1.8829788   -2.4541658   -4.4759858 
H    -2.3998372   -0.3926300    2.9686278 
H    -0.6556465   -2.2797083    2.6242442 
H     1.2483724    2.8021156   -2.0454689 
H     1.8620082    0.5477364   -3.0531952 
H    -3.0533993   -1.1927734   -0.7523856 
H    -1.4689785   -1.8158962   -1.2551270 
H    -2.3210658    1.1660823   -1.2490154 
H    -2.0358223    0.1698034   -2.6929680 
H    -2.2895997    2.1167137    1.1887695 
H    -1.1611988    1.7312010    2.4977753 
H    -4.2484733   -1.1393386    1.4009943 
H    -4.1346667    0.4156566    0.5499854 
H    -2.8329701   -3.4109519    0.7531908 
H    -3.0903457   -2.7354559    2.3789327 
H     0.9534454   -2.6684849    0.7891407 
H    -0.3156233   -3.3850295   -0.2292226 
H    -1.4793216    2.7242302   -3.4809782 
H     0.1013809    2.3627150   -4.2122541 
H    -0.0343441    3.2756452    0.0382319 
H    -1.5547677    3.3233641   -0.8776782 
H     0.8495695   -2.1111731   -1.8804313 
H     2.1911749   -1.1481516   -1.2385675 
H    -0.1950915    0.3625137   -4.5541304 
H    -0.5489910   -1.2195648   -3.8311082 
H    -2.9369652    3.3364507    3.2686552 
H    -3.0070919    1.8107614    4.1721721 
H    -4.8831585    0.0378434    3.5141060 
H    -6.0027386    0.4489595    2.2008115 
H    -3.0324916   -5.2360087    2.4344944 
H    -1.7231514   -4.5272176    3.4035268 
H     0.7113009   -4.5153116    2.4366526 
H     1.0026149   -5.1924876    0.8203739 
H    -0.6311752    4.6977753   -4.7385345 
H     0.8877404    4.6709600   -3.8219563 
H     0.8260274    5.2415143   -1.2450755 
H    -0.7341148    5.6370843   -0.4966589 
H     3.0262947   -3.0185163   -2.7003485 
H     3.4550353   -1.4318550   -3.3731577 
H     1.9977144   -0.4901879   -5.4031591 
H     0.6550500   -1.4845536   -6.0013802 
H    -5.3137237    2.4974917    3.5183669 
H    -4.8290607    2.6134651    1.8164041 
H    -0.8433549   -6.4251502    2.0313424 
H    -1.4416210   -5.6600117    0.5473145 
H    -0.6267114    6.4270435   -2.8969061 
H    -1.9149247    5.2312673   -2.6608580 
H     1.1070245   -3.2193343   -4.2747272 
H     2.5901444   -2.9044977   -5.1948572 
