105
Energy =
C     1.3094524    0.5745584    2.4103831 
C     2.3081003    0.0689576    1.5513712 
C     2.6164346    0.7155558    0.3137472 
H     2.7700500   -0.9017305    1.7729801 
Pd    0.4806376    0.0480938    0.3066585 
P    -0.2437929    0.5373757   -1.8628281 
P    -1.6556663   -0.8097458    0.6977933 
H     0.9888358    1.6138466    2.2382003 
H     2.4893199    1.8054541    0.2795505 
C     0.0609047   -0.9396005    6.2379196 
C    -0.4857184    0.2432910    5.7161734 
C    -0.0555835    0.7229318    4.4745391 
C     0.9185766    0.0290926    3.7180541 
C     1.4879819   -1.1393717    4.2772547 
C     1.0578283   -1.6195319    5.5183810 
H    -0.2707449   -1.3185519    7.2099037 
H    -1.2416945    0.7972588    6.2824839 
H    -0.4715633    1.6546914    4.0776101 
H     2.2827351   -1.6724284    3.7478335 
H     1.5112584   -2.5251116    5.9343808 
C     5.6100237   -0.8189145   -2.3790591 
C     4.8063017   -1.7093440   -1.6472051 
C     3.8209494   -1.2212971   -0.7826048 
C     3.6205363    0.1696106   -0.6239880 
C     4.4320553    1.0525037   -1.3710098 
C     5.4171973    0.5637275   -2.2389595 
H     6.3795171   -1.2020763   -3.0567277 
H     4.9442121   -2.7898986   -1.7588248 
H     3.1842861   -1.9266868   -0.2366579 
H     4.2937314    2.1339249   -1.2583217 
H     6.0398217    1.2648907   -2.8042158 
C    -2.6096756   -0.1526496    2.1636682 
C    -1.8054075   -2.6834826    0.8265752 
C    -0.5418386    2.3816777   -2.0807850 
C     0.6124299   -0.0001987   -3.4436261 
C    -2.7239352   -0.4064487   -0.7884420 
C    -1.9138509   -0.2807544   -2.0883845 
C    -2.7086530    1.3888564    2.0999435 
C    -4.0011019   -0.7916855    2.3714464 
C    -1.2552539   -3.4299562   -0.4117173 
C    -1.1829066   -3.2530121    2.1224309 
C    -1.8784793    2.8726737   -1.4848227 
C     0.6274780    3.2016315   -1.4889905 
C     1.7884150    0.9033957   -3.8672617 
C     1.0627632   -1.4728618   -3.3390910 
C    -3.4189507    1.9631442    3.3397960 
C    -4.6960956   -0.2035773    3.6148746 
C     0.2794573   -3.4759327   -0.4535624 
C     0.3503882   -3.3253659    2.0595707 
C    -2.0687416    4.3833915   -1.7230108 
C     0.4433731    4.7072053   -1.7442363 
C     2.4175911    0.4056544   -5.1825859 
C     1.6912783   -1.9622082   -4.6559115 
C    -4.8041933    1.3267689    3.5342196 
C     0.8471511   -4.0972045    0.8296458 
C    -0.8928666    5.2037980   -1.1702891 
C     2.8605605   -1.0617296   -5.0823532 
H    -1.9667990   -0.4105564    3.0286422 
H    -2.9011002   -2.8324917    0.8591752 
H    -0.5739780    2.5349547   -3.1786819 
H    -0.1823042    0.0782492   -4.2157608 
H    -3.2235578    0.5479842   -0.5539274 
H    -3.5156610   -1.1702669   -0.8894309 
H    -2.4832282    0.2604516   -2.8656088 
H    -1.6871418   -1.2798616   -2.4988179 
H    -3.2859166    1.6840363    1.2024030 
H    -1.6991681    1.8257501    1.9828591 
H    -3.9146213   -1.8864349    2.4833681 
H    -4.6299361   -0.6056337    1.4785009 
H    -1.6652656   -3.0034116   -1.3441456 
H    -1.6433673   -4.4658467   -0.3606458 
H    -1.5908411   -4.2735800    2.2575983 
H    -1.5016198   -2.6738122    3.0078636 
H    -1.8826327    2.6677022   -0.3968965 
H    -2.7305505    2.3261061   -1.9257280 
H     1.5957244    2.8541795   -1.8885162 
H     0.6502322    3.0163484   -0.3963832 
H     2.5541776    0.8975361   -3.0715322 
H     1.4525894    1.9471770   -3.9952895 
H     0.2132933   -2.1236499   -3.0650463 
H     1.8053417   -1.5524251   -2.5238557 
H    -3.5023256    3.0603687    3.2418927 
H    -2.8031527    1.7682089    4.2380437 
H    -4.1152923   -0.4844884    4.5154079 
H    -5.6959325   -0.6592528    3.7269903 
H     0.6711424   -2.4399372   -0.5559005 
H     0.6165266   -4.0308169   -1.3468318 
H     0.7384813   -3.7699584    2.9917918 
H     0.7459372   -2.2929147    2.0089353 
H    -3.0198617    4.7099361   -1.2653730 
H    -2.1636280    4.5644137   -2.8114869 
H     0.4748143    4.8989836   -2.8347173 
H     1.2881255    5.2643864   -1.3010459 
H     3.2756499    1.0517236   -5.4411354 
H     1.6798071    0.5150249   -6.0019587 
H     0.9178960   -1.9688776   -5.4491206 
H     2.0291401   -3.0072559   -4.5344186 
H    -5.2837180    1.7263139    4.4452230 
H    -5.4589501    1.6042324    2.6844341 
H     0.5323400   -5.1568213    0.8993396 
H     1.9522903   -4.0992606    0.8008409 
H    -1.0356781    6.2755397   -1.3946891 
H    -0.8703534    5.1117588   -0.0659126 
H     3.6724474   -1.1433041   -4.3351156 
H     3.2757056   -1.4031127   -6.0472536 
