105
Energy =
C     1.4243315    0.3101651    2.7389681 
C     2.3487301    0.6171205    1.7016603 
C     2.1910249    1.7972844    0.9280072 
H     3.0855705   -0.1337728    1.3908256 
Pd    0.3758590    0.4971047    0.7402575 
P    -0.1279723    0.7559178   -1.5232170 
P    -1.5888961   -0.7572363    0.9243809 
H     0.9266518    1.1644105    3.2193182 
H     1.6411020    2.6255173    1.4020225 
C     1.3676878   -3.2860573    5.1164644 
C     0.5684596   -2.1845602    5.4582926 
C     0.6035009   -1.0214138    4.6797175 
C     1.4240796   -0.9352197    3.5301722 
C     2.2187413   -2.0567028    3.1963787 
C     2.1979739   -3.2115015    3.9859824 
H     1.3514438   -4.1926057    5.7297511 
H    -0.0736878   -2.2253191    6.3443316 
H    -0.0057300   -0.1590094    4.9685406 
H     2.8672010   -2.0299318    2.3145142 
H     2.8326384   -4.0617984    3.7159515 
C     4.4483482    3.0496974   -2.5195680 
C     3.6584361    3.9617489   -1.8040212 
C     2.9490561    3.5392488   -0.6725185 
C     3.0098834    2.1970800   -0.2319466 
C     3.8307043    1.2958340   -0.9491890 
C     4.5366197    1.7170695   -2.0808145 
H     5.0020847    3.3752527   -3.4059266 
H     3.5946120    5.0061612   -2.1265002 
H     2.3306145    4.2555173   -0.1201754 
H     3.9133529    0.2526551   -0.6294763 
H     5.1637600    1.0021758   -2.6239229 
C    -3.1136904   -0.0635933    1.7900865 
C    -1.3796084   -2.4677806    1.6527228 
C    -0.0164158    2.4612047   -2.2658639 
C     0.9765797   -0.3234882   -2.5949193 
C    -2.2006786   -1.0221797   -0.8322599 
C    -1.8823913    0.1708164   -1.7532854 
C    -2.9317129    0.0916534    3.3185479 
C    -3.6422037    1.2517882    1.1741115 
C    -2.6801032   -3.2965314    1.7459685 
C    -0.2715878   -3.2405793    0.9030841 
C    -0.5139229    2.5882347   -3.7228899 
C    -0.6864264    3.5048216   -1.3461601 
C     1.6467695   -1.4602727   -1.7919236 
C     0.3113781   -0.9119873   -3.8599478 
C    -2.1181820    1.3391759    3.7006399 
C    -2.7822544    2.4684802    1.5445844 
C    -2.4107339   -4.6809737    2.3672932 
C    -0.0295190   -4.6265391    1.5254629 
C    -0.3226739    4.0264862   -4.2434867 
C    -0.4987873    4.9331096   -1.8882240 
C     2.7018931   -2.1843967   -2.6450482 
C     1.3579439   -1.6377986   -4.7287966 
C    -2.6824407    2.6210758    3.0698271 
C    -1.3258566   -5.4472762    1.5958324 
C    -1.0073880    5.0570090   -3.3329022 
C     2.0850435   -2.7390152   -3.9399003 
H    -3.8633743   -0.8543917    1.6003935 
H    -1.0051721   -2.2652618    2.6765477 
H     1.0748213    2.6534949   -2.2531204 
H     1.7707540    0.3857071   -2.9055171 
H    -3.2850672   -1.2336990   -0.8198742 
H    -1.6972241   -1.9316998   -1.2054357 
H    -2.5183184    1.0388539   -1.5060053 
H    -2.0773041   -0.0822111   -2.8093094 
H    -2.4755715   -0.8138331    3.7580716 
H    -3.9451061    0.1707376    3.7575148 
H    -4.6656628    1.4029929    1.5694316 
H    -3.7577983    1.1591531    0.0800636 
H    -3.1064908   -3.4282821    0.7315555 
H    -3.4387501   -2.7678842    2.3488484 
H     0.6585919   -2.6447959    0.9048501 
H    -0.5682358   -3.3776599   -0.1555846 
H    -1.5871450    2.3192021   -3.7739888 
H     0.0287365    1.8859238   -4.3779700 
H    -0.2696557    3.4215785   -0.3258055 
H    -1.7696186    3.2884111   -1.2648181 
H     0.8717707   -2.1830147   -1.4770620 
H     2.0934607   -1.0620235   -0.8632536 
H    -0.1942439   -0.1311740   -4.4525095 
H    -0.4681591   -1.6370873   -3.5535418 
H    -1.0802874    1.2057933    3.3466641 
H    -2.0732596    1.4302991    4.8006133 
H    -3.1983393    3.3810868    1.0823380 
H    -1.7624436    2.3355770    1.1259879 
H    -3.3517913   -5.2586069    2.3972138 
H    -2.0863714   -4.5440400    3.4174855 
H     0.3755112   -4.4923546    2.5451409 
H     0.7420434   -5.1608383    0.9420497 
H    -0.7113847    4.0978890   -5.2749334 
H     0.7619271    4.2457368   -4.2958221 
H     0.5778252    5.1900067   -1.8573055 
H    -1.0174749    5.6508717   -1.2277333 
H     3.1651674   -2.9974919   -2.0574282 
H     3.5114852   -1.4703671   -2.8958407 
H     2.0945458   -0.8963479   -5.0955880 
H     0.8654471   -2.0627942   -5.6214999 
H    -3.6877045    2.8312594    3.4844049 
H    -2.0459734    3.4855660    3.3308855 
H    -1.1346763   -6.4244998    2.0735171 
H    -1.6864835   -5.6616581    0.5700266 
H    -0.8347286    6.0791996   -3.7135825 
H    -2.1031656    4.8933300   -3.3517259 
H     1.3622138   -3.5383842   -3.6822563 
H     2.8634681   -3.2085451   -4.5669064 
