105
Energy =
C     1.3643920    0.3112526    2.6764928 
C     2.4059837    0.1734786    1.7288916 
C     2.5369287    1.1054161    0.6595941 
H     3.0190665   -0.7359268    1.7296901 
Pd    0.5563297    0.0919151    0.5271754 
P     0.1156395    0.5550299   -1.7121973 
P    -1.6302311   -0.7472256    0.6608445 
H     0.9091170    1.3088491    2.7678134 
H     2.1551404    2.1190983    0.8490459 
C     0.5453694   -2.2478187    6.0373277 
C     1.6102848   -2.5557373    5.1751530 
C     1.8926685   -1.7357986    4.0773656 
C     1.1156664   -0.5827671    3.8178169 
C     0.0597856   -0.2745371    4.7081993 
C    -0.2274603   -1.1000558    5.8008749 
H     0.3270065   -2.8929902    6.8942224 
H     2.2260204   -3.4418020    5.3607649 
H     2.7272968   -1.9971058    3.4195145 
H    -0.5372257    0.6275820    4.5362738 
H    -1.0504643   -0.8429432    6.4758901 
C     5.3547512    0.9659788   -2.5950375 
C     4.6424531    2.1406666   -2.3078730 
C     3.7438776    2.1713274   -1.2342189 
C     3.5254423    1.0261612   -0.4324936 
C     4.2497728   -0.1497031   -0.7344510 
C     5.1599930   -0.1740715   -1.7971837 
H     6.0631338    0.9397496   -3.4290878 
H     4.7951385    3.0383958   -2.9158779 
H     3.1997907    3.0953361   -1.0056987 
H     4.0953035   -1.0578466   -0.1427365 
H     5.7206806   -1.0905438   -2.0078936 
C    -2.6959109   -0.0869844    2.0395601 
C    -1.9396847   -2.6126685    0.5798066 
C    -0.0367893    2.3986693   -2.0461651 
C     1.3455110   -0.1158431   -2.9411767 
C    -2.4714066   -0.1375934   -0.9032704 
C    -1.5357433   -0.2109815   -2.1203104 
C    -2.4676377    1.4277819    2.2444340 
C    -4.2043986   -0.3900810    1.8866854 
C    -0.8299978   -3.3328217   -0.2270684 
C    -2.1195340   -3.3033933    1.9506069 
C    -1.0384677    2.7865026   -3.1585024 
C    -0.3484501    3.2057309   -0.7639444 
C     1.5443759   -1.6320982   -2.7187247 
C     1.0579518    0.2121498   -4.4222314 
C    -3.2516263    1.9395743    3.4668877 
C    -4.9840110    0.1164597    3.1155189 
C     0.4880090   -3.4615890    0.5547331 
C    -0.8049826   -3.4179561    2.7312037 
C    -0.9716284    4.2994366   -3.4448949 
C    -0.2904358    4.7192154   -1.0373830 
C     2.6299023   -2.2001152   -3.6495247 
C     2.1592344   -0.3691929   -5.3309344 
C    -4.7508635    1.6181497    3.3486623 
C     0.2736053   -4.1448854    1.9138872 
C    -1.2402787    5.1243937   -2.1761451 
C     2.3290572   -1.8819138   -5.1224270 
H    -2.3107192   -0.6100114    2.9377492 
H    -2.8919395   -2.6845205    0.0211038 
H     0.9864060    2.6670145   -2.3796578 
H     2.2844816    0.3942062   -2.6507759 
H    -2.7663151    0.9104429   -0.7114857 
H    -3.3983380   -0.7117104   -1.0787061 
H    -1.9846991    0.2762544   -3.0019144 
H    -1.3378740   -1.2602137   -2.3991145 
H    -2.8057652    1.9767905    1.3436448 
H    -1.3882187    1.6384514    2.3517180 
H    -4.3806582   -1.4706263    1.7430748 
H    -4.5870507    0.1197179    0.9815474 
H    -0.6527853   -2.8281368   -1.1915920 
H    -1.2079685   -4.3444199   -0.4714375 
H    -2.5127056   -4.3178290    1.7413509 
H    -2.8914672   -2.7993394    2.5567030 
H    -2.0632120    2.5323259   -2.8234368 
H    -0.8535604    2.2161621   -4.0840885 
H     0.3530070    2.9312697    0.0427787 
H    -1.3588419    2.9341566   -0.4005936 
H     0.5940336   -2.1634305   -2.9227896 
H     1.7987788   -1.8218326   -1.6596279 
H     1.0005501    1.3043852   -4.5690731 
H     0.0766674   -0.2098829   -4.7163307 
H    -3.0951823    3.0271503    3.5813590 
H    -2.8459859    1.4622899    4.3808180 
H    -4.6579005   -0.4526670    4.0082332 
H    -6.0605214   -0.0921848    2.9830878 
H     0.9092061   -2.4440180    0.7175091 
H     1.2263145   -4.0137154   -0.0540444 
H    -0.9795641   -3.9345792    3.6906933 
H    -0.4456819   -2.4042883    2.9889560 
H    -1.6986078    4.5567410   -4.2356521 
H     0.0316701    4.5466033   -3.8441541 
H     0.7486419    4.9933353   -1.3083275 
H    -0.5326113    5.2742372   -0.1133227 
H     2.7143252   -3.2907317   -3.4940491 
H     3.6044317   -1.7581147   -3.3716152 
H     3.1146314    0.1421920   -5.1016500 
H     1.9209681   -0.1449634   -6.3859622 
H    -5.2857268    1.9527992    4.2549539 
H    -5.1790179    2.1886232    2.5007315 
H    -0.0360296   -5.1957830    1.7493615 
H     1.2207939   -4.1788155    2.4802437 
H    -1.1426364    6.2029934   -2.3917287 
H    -2.2870951    4.9607423   -1.8515533 
H     1.4001935   -2.4018439   -5.4307766 
H     3.1361273   -2.2685374   -5.7696414 
