105
Energy =
C     1.3239688    0.0934329    2.6237709 
C     2.3807517    0.2805348    1.6888392 
C     2.4324096    1.4188289    0.8459582 
H     3.0734261   -0.5495644    1.5035688 
Pd    0.5029543    0.2846024    0.5383427 
P    -0.0560471    0.7334227   -1.6845381 
P    -1.5724774   -0.7445611    0.7348500 
H     0.8490677    0.9997008    3.0283172 
H     1.9020394    2.3205303    1.1895593 
C     0.8266766   -3.4091582    5.0907553 
C     1.5805752   -3.4891921    3.9079853 
C     1.7405786   -2.3633831    3.0932317 
C     1.1670689   -1.1207602    3.4513625 
C     0.4275290   -1.0525127    4.6542266 
C     0.2517128   -2.1841619    5.4604581 
H     0.6973897   -4.2934127    5.7229007 
H     2.0438700   -4.4376267    3.6172542 
H     2.3116843   -2.4561664    2.1633952 
H    -0.0035303   -0.0953401    4.9659128 
H    -0.3246263   -2.1052897    6.3881155 
C     5.3316310    2.2071598   -2.2413177 
C     4.3908262    3.1803204   -1.8703477 
C     3.4679877    2.9128421   -0.8519298 
C     3.4517880    1.6620709   -0.1923301 
C     4.4141348    0.6961186   -0.5693999 
C     5.3444378    0.9685466   -1.5784557 
H     6.0574512    2.4150376   -3.0338670 
H     4.3818325    4.1544772   -2.3703399 
H     2.7447248    3.6819024   -0.5571890 
H     4.4350413   -0.2824336   -0.0794605 
H     6.0813186    0.2072908   -1.8545510 
C    -2.8459099    0.2097532    1.7153252 
C    -1.5773040   -2.4777583    1.4222590 
C     0.0568976    2.5023925   -2.2480816 
C     0.8680215   -0.2949362   -2.9522883 
C    -2.3029823   -0.8789889   -0.9852381 
C    -1.8575683    0.2701619   -1.9070407 
C    -2.4912058    0.2251375    3.2161481 
C    -3.0154919    1.6492072    1.1807039 
C    -2.9843335   -3.0997113    1.5630029 
C    -0.6338124   -3.3911174    0.6071309 
C    -0.5598165    2.7691235   -3.6394338 
C    -0.5143633    3.4727376   -1.1908897 
C     2.1739919    0.3880746   -3.4137933 
C     1.1487531   -1.7004194   -2.3693713 
C    -3.5304509    1.0120715    4.0338860 
C    -4.0443669    2.4410128    2.0090377 
C    -2.8982492   -4.5161341    2.1640260 
C    -0.5717011   -4.8059721    1.2093427 
C    -0.3299655    4.2340978   -4.0583175 
C    -0.2895595    4.9351698   -1.6171805 
C     2.9791742   -0.5087838   -4.3707750 
C     1.9525290   -2.5775299   -3.3441100 
C    -3.6883271    2.4456490    3.5037354 
C    -1.9725424   -5.4243794    1.3395803 
C    -0.8826573    5.2125410   -3.0087471 
C     3.2618636   -1.8883361   -3.7573080 
H    -3.8011239   -0.3342176    1.5730340 
H    -1.1334727   -2.3568802    2.4308872 
H     1.1491834    2.6764620   -2.3041275 
H     0.1869978   -0.3960842   -3.8213986 
H    -3.4044278   -0.9256382   -0.9152570 
H    -1.9645197   -1.8483660   -1.3899214 
H    -2.4307208    1.1863584   -1.6834357 
H    -2.0457528    0.0219858   -2.9663721 
H    -1.5000936    0.7025887    3.3308931 
H    -2.3951793   -0.8018381    3.6095594 
H    -3.3306789    1.6335561    0.1226563 
H    -2.0324434    2.1597539    1.2162675 
H    -3.4646639   -3.1540746    0.5660709 
H    -3.6292020   -2.4660481    2.1971624 
H     0.3736270   -2.9391840    0.5601575 
H    -0.9997667   -3.4677641   -0.4355830 
H    -1.6482083    2.5693281   -3.6025576 
H    -0.1347185    2.0848237   -4.3954693 
H    -0.0479593    3.2759376   -0.2073339 
H    -1.6002600    3.2936084   -1.0678907 
H     2.7915321    0.6194680   -2.5293466 
H     1.9552584    1.3482570   -3.9107165 
H     0.2021886   -2.2009269   -2.0994056 
H     1.7186036   -1.5780873   -1.4257547 
H    -3.2321598    1.0205555    5.0976383 
H    -4.5052576    0.4887039    3.9832690 
H    -5.0444465    1.9853742    1.8713664 
H    -4.1119291    3.4732244    1.6209935 
H    -3.9119130   -4.9498341    2.2310102 
H    -2.5130357   -4.4416627    3.1998525 
H    -0.1038325   -4.7472215    2.2093666 
H     0.0803579   -5.4437809    0.5857193 
H    -0.7977058    4.4163918   -5.0421511 
H     0.7571086    4.4044695   -4.1868989 
H     0.7990024    5.1412734   -1.6344267 
H    -0.7288784    5.6148795   -0.8652751 
H     3.9236134    0.0026234   -4.6299252 
H     2.4160462   -0.6365892   -5.3162539 
H     1.3409241   -2.7781590   -4.2456124 
H     2.1552943   -3.5573058   -2.8751619 
H    -4.4599834    2.9867199    4.0791557 
H    -2.7380960    2.9966044    3.6520907 
H    -1.9067157   -6.4245395    1.8032669 
H    -2.4069098   -5.5715391    0.3307815 
H    -0.6760145    6.2544406   -3.3107207 
H    -1.9850577    5.1107888   -2.9609482 
H     3.9079844   -1.7651531   -2.8652275 
H     3.8205860   -2.5196017   -4.4707079 
