105
Energy =
C     1.4027025    0.0376384    2.5270876 
C     2.4417074    0.0813198    1.5646504 
C     2.5553136    1.1716853    0.6607324 
H     3.0802890   -0.7996836    1.4269198 
Pd    0.5618824    0.1628764    0.4091133 
P     0.0185097    0.8128812   -1.7688587 
P    -1.6066857   -0.7154764    0.5370526 
H     0.9689286    1.0026921    2.8277594 
H     2.1229814    2.1296529    0.9868268 
C     0.7823652   -3.0810677    5.4284882 
C     0.2522212   -1.7973979    5.6280308 
C     0.4651145   -0.7939324    4.6750306 
C     1.2031349   -1.0535930    3.4972190 
C     1.7331797   -2.3515329    3.3110764 
C     1.5304257   -3.3496785    4.2695957 
H     0.6200974   -3.8671650    6.1727197 
H    -0.3236967   -1.5754183    6.5323204 
H     0.0573521    0.2092608    4.8412892 
H     2.2977995   -2.5892114    2.4033005 
H     1.9542920   -4.3466964    4.1116647 
C     5.5513076    1.6294077   -2.4009110 
C     4.7700943    2.7199281   -1.9889937 
C     3.8059253    2.5544472   -0.9869795 
C     3.5897362    1.2934921   -0.3842869 
C     4.3870312    0.2046889   -0.8083680 
C     5.3600659    0.3740155   -1.7994204 
H     6.3095922    1.7566264   -3.1799752 
H     4.9191810    3.7050007   -2.4430951 
H     3.2118091    3.4142509   -0.6561360 
H     4.2405509   -0.7883224   -0.3712203 
H     5.9694979   -0.4803210   -2.1113915 
C    -2.8085082    0.4557561    1.3709765 
C    -1.9316533   -2.4664367    1.1037184 
C     0.2158089    2.6279082   -2.1231161 
C     0.8438090   -0.1338894   -3.1629320 
C    -2.2566300   -0.7574120   -1.2172822 
C    -1.8087812    0.4822398   -2.0007273 
C    -4.2531068   -0.0819492    1.4836566 
C    -2.2845421    0.9841378    2.7243336 
C    -0.8864035   -3.4131791    0.4665775 
C    -1.9598458   -2.6522664    2.6351502 
C    -0.4176544    3.0915435   -3.4543006 
C    -0.2954669    3.4831073   -0.9412118 
C     2.1409445    0.5386147   -3.6627999 
C     1.1143068   -1.5891716   -2.7098836 
C    -5.1893627    0.9888763    2.0764895 
C    -3.2415603    2.0348396    3.3154359 
C    -1.1772794   -4.8805075    0.8301370 
C    -2.2459494   -4.1203461    3.0026302 
C    -0.1274036    4.5854637   -3.6960998 
C    -0.0146813    4.9768457   -1.1883070 
C     2.8230610   -0.3008262   -4.7583161 
C     1.7949524   -2.4121922   -3.8170973 
C    -4.6751278    1.4927558    3.4346418 
C    -1.2364451   -5.0794143    2.3526940 
C    -0.6165596    5.4498779   -2.5222494 
C     3.0922449   -1.7393184   -4.2907448 
H    -2.8178707    1.3170294    0.6702636 
H    -2.9334988   -2.7147006    0.6960190 
H     1.3138544    2.7589087   -2.1852097 
H     0.1069514   -0.1477076   -3.9913195 
H    -3.3575268   -0.8453170   -1.1992917 
H    -1.8667953   -1.6785256   -1.6831082 
H    -2.3397294    1.3808506   -1.6372515 
H    -2.0370525    0.3852974   -3.0766311 
H    -4.2651778   -0.9731871    2.1377888 
H    -4.6294378   -0.4068750    0.4967074 
H    -1.2793046    1.4192358    2.5811506 
H    -2.1689465    0.1442762    3.4339195 
H     0.1169094   -3.1235334    0.8362152 
H    -0.8645032   -3.2969204   -0.6322729 
H    -2.7227384   -2.0015122    3.0945089 
H    -0.9862598   -2.3501749    3.0548164 
H    -1.5132478    2.9380387   -3.4116226 
H    -0.0434804    2.4871519   -4.2996873 
H     0.1745099    3.1474040    0.0019327 
H    -1.3869916    3.3332211   -0.8184469 
H     2.8350491    0.6607415   -2.8152073 
H     1.9303353    1.5485588   -4.0530814 
H     0.1740672   -2.0779900   -2.3979341 
H     1.7643885   -1.5598890   -1.8123248 
H    -6.2079041    0.5732649    2.1753182 
H    -5.2609243    1.8401163    1.3707986 
H    -3.2419314    2.9297968    2.6616297 
H    -2.8670076    2.3644970    4.3011871 
H    -0.4052119   -5.5320693    0.3826832 
H    -2.1436936   -5.1787203    0.3782036 
H    -3.2709874   -4.3846083    2.6750706 
H    -2.2252840   -4.2278802    4.1020027 
H    -0.6035420    4.9079169   -4.6390769 
H     0.9638578    4.7227493   -3.8280242 
H     1.0817044    5.1371753   -1.2019380 
H    -0.4117584    5.5753653   -0.3490545 
H     3.7660124    0.1938317   -5.0528604 
H     2.1788139   -0.3217807   -5.6594616 
H     1.0994764   -2.5173570   -4.6729478 
H     1.9960324   -3.4332711   -3.4459321 
H    -5.3474862    2.2732296    3.8324866 
H    -4.6918574    0.6586410    4.1637669 
H    -1.4940991   -6.1264373    2.5918322 
H    -0.2345370   -4.8901131    2.7813940 
H    -0.3667838    6.5110355   -2.6982084 
H    -1.7215812    5.3915989   -2.4632224 
H     3.8189749   -1.7198201   -3.4551400 
H     3.5553416   -2.3269671   -5.1030548 
