105
Energy =
C     1.3397920    0.3654022    2.6499766 
C     2.3790347    0.2836098    1.6916537 
C     2.4584053    1.2111560    0.6143065 
H     3.0414141   -0.5904672    1.6914056 
Pd    0.5203945    0.1041613    0.5162816 
P     0.0611174    0.5615658   -1.7173029 
P    -1.6660854   -0.7233446    0.6904713 
H     0.8456993    1.3417832    2.7626051 
H     2.0090183    2.2018004    0.7831981 
C     0.6767463   -2.2800286    5.9797214 
C    -0.1253856   -1.1437463    5.7914724 
C     0.1128199   -0.2886464    4.7096286 
C     1.1474405   -0.5550347    3.7820586 
C     1.9531976   -1.6985904    3.9920844 
C     1.7207241   -2.5474636    5.0792424 
H     0.4968279   -2.9480785    6.8280010 
H    -0.9328191   -0.9180993    6.4959635 
H    -0.5064650    0.6050022    4.5763750 
H     2.7693696   -1.9322391    3.3014272 
H     2.3582233   -3.4255061    5.2255175 
C     5.3337066    1.1810032   -2.5977265 
C     4.6039034    2.3405276   -2.2968935 
C     3.6871495    2.3374240   -1.2378900 
C     3.4633795    1.1721602   -0.4671294 
C     4.2176207    0.0162750   -0.7752217 
C     5.1445359    0.0241691   -1.8227155 
H     6.0559799    1.1807356   -3.4202530 
H     4.7594083    3.2549990   -2.8787255 
H     3.1463256    3.2577983   -0.9883923 
H     4.0761620   -0.9022153   -0.1962892 
H     5.7235991   -0.8795421   -2.0386247 
C    -2.6919684   -0.0809514    2.1095773 
C    -2.0025691   -2.5814624    0.5965515 
C     0.0786238    2.4145703   -1.9545906 
C     1.1856292   -0.1986664   -3.0017409 
C    -2.5500692   -0.0677471   -0.8313664 
C    -1.6623189   -0.0569450   -2.0871590 
C    -2.4694186    1.4331500    2.3240870 
C    -4.2019093   -0.3964043    1.9994392 
C    -0.9569283   -3.2948530   -0.2954462 
C    -2.0898191   -3.2908908    1.9663401 
C    -0.1711709    2.9545262   -3.3779367 
C    -0.8501550    3.0998443   -0.9254708 
C     1.6644921   -1.5920644   -2.5329594 
C     0.5947139   -0.2998522   -4.4287295 
C    -3.2259288    1.9296641    3.5700888 
C    -4.9512785    0.0959172    3.2526101 
C     0.4137408   -3.4297090    0.3892918 
C    -0.7241572   -3.4075249    2.6529224 
C    -0.0373675    4.4911529   -3.4079497 
C    -0.6921822    4.6295209   -0.9651920 
C     2.6916653   -2.1873922   -3.5106645 
C     1.6376629   -0.8780463   -5.4052730 
C    -4.7251146    1.5980520    3.4882368 
C     0.2980028   -4.1222997    1.7558711 
C    -0.9509044    5.1743589   -2.3788197 
C     2.1379171   -2.2554140   -4.9427197 
H    -2.2749609   -0.6100753    2.9897146 
H    -2.9918667   -2.6350724    0.1041479 
H     1.1243119    2.6579235   -1.6844405 
H     2.0605417    0.4829746   -3.0122448 
H    -2.8624260    0.9595065   -0.5748942 
H    -3.4700291   -0.6527582   -1.0072433 
H    -2.1167354    0.5470992   -2.8924981 
H    -1.5426793   -1.0804239   -2.4839170 
H    -2.8298400    1.9905537    1.4373129 
H    -1.3891309    1.6474978    2.4115906 
H    -4.3725546   -1.4778225    1.8561903 
H    -4.6159186    0.1140967    1.1085880 
H    -0.8536363   -2.7803077   -1.2670611 
H    -1.3523350   -4.3038103   -0.5221394 
H    -2.4935878   -4.3040651    1.7717993 
H    -2.8198872   -2.7963132    2.6296022 
H    -1.1840602    2.6631151   -3.7186808 
H     0.5506129    2.5157605   -4.0865245 
H    -0.6424774    2.7091102    0.0890957 
H    -1.9026311    2.8446575   -1.1583892 
H     0.7907598   -2.2693060   -2.4688684 
H     2.0870094   -1.5232920   -1.5159122 
H     0.2394770    0.6779460   -4.7905198 
H    -0.2857547   -0.9708326   -4.4095522 
H    -3.0740342    3.0174777    3.6885053 
H    -2.7939670    1.4487849    4.4699018 
H    -4.5952814   -0.4753327    4.1324514 
H    -6.0290719   -0.1220047    3.1486294 
H     0.8451890   -2.4127941    0.5298654 
H     1.1085282   -3.9749859   -0.2741660 
H    -0.8287944   -3.9325316    3.6179561 
H    -0.3521625   -2.3942007    2.8937121 
H    -0.2564558    4.8577715   -4.4265151 
H     1.0166330    4.7589795   -3.1959904 
H     0.3357257    4.8951286   -0.6475232 
H    -1.3793995    5.0939012   -0.2353828 
H     2.9948647   -3.1912245   -3.1619386 
H     3.5996334   -1.5554399   -3.4968962 
H     2.4924888   -0.1770569   -5.4753542 
H     1.1968707   -0.9438885   -6.4159890 
H    -5.2389968    1.9233259    4.4099452 
H    -5.1793331    2.1697833    2.6548361 
H    -0.0156653   -5.1744486    1.6077484 
H     1.2835409   -4.1529815    2.2535185 
H    -0.8021075    6.2683161   -2.4025297 
H    -2.0098042    4.9933331   -2.6501897 
H     1.2985764   -2.9779549   -4.9783073 
H     2.9103934   -2.6352241   -5.6346678 
