105
Energy =
C     1.3310323   -0.0712180    2.4015770 
C     2.3918120    0.3072187    1.5218842 
C     2.3673815    1.5271355    0.8159180 
H     3.1696394   -0.4288119    1.2829040 
Pd    0.5204615    0.1815776    0.3464804 
P    -0.1172596    0.5811140   -1.8751685 
P    -1.5730582   -0.7782133    0.6555069 
H     0.8022336    0.7444487    2.9148341 
H     1.6716066    2.3019501    1.1733090 
C     1.1859135   -3.8615113    4.4543407 
C     1.8634949   -3.7547029    3.2280552 
C     1.9044752   -2.5336302    2.5472905 
C     1.2854623   -1.3812191    3.0863205 
C     0.6145054   -1.5027806    4.3243882 
C     0.5601357   -2.7300385    4.9981866 
H     1.1497201   -4.8198432    4.9821143 
H     2.3541876   -4.6325408    2.7951814 
H     2.4126145   -2.4780972    1.5782974 
H     0.1439618   -0.6201986    4.7700861 
H     0.0381462   -2.7991812    5.9582347 
C     5.3749900    2.9956975   -1.8874433 
C     4.1804004    3.7054491   -1.6867770 
C     3.2205698    3.2217127   -0.7913643 
C     3.4200201    2.0085949   -0.0918615 
C     4.6388958    1.3171413   -0.2886253 
C     5.6032590    1.8068604   -1.1754939 
H     6.1314762    3.3750547   -2.5818452 
H     4.0021208    4.6446306   -2.2209959 
H     2.2990773    3.7883714   -0.6239388 
H     4.8415820    0.3915744    0.2590706 
H     6.5418049    1.2595211   -1.3102535 
C    -2.7184249    0.2710925    1.7011343 
C    -1.6734355   -2.5035261    1.3545516 
C     0.0555444    2.3147026   -2.5380011 
C     0.5712310   -0.5636145   -3.2132193 
C    -2.4248815   -0.8644171   -1.0095914 
C    -1.9607995    0.2445521   -1.9684311 
C    -2.3446537    0.2149309    3.1965741 
C    -2.7596371    1.7338047    1.2049109 
C    -3.1156339   -3.0099038    1.5821009 
C    -0.8598022   -3.4970033    0.4959813 
C    -0.5863282    2.5376196   -3.9266676 
C    -0.4730356    3.3497079   -1.5188003 
C     1.8934557   -0.0778699   -3.8450861 
C     0.7407168   -2.0119316   -2.6906802 
C    -3.3006291    1.0713121    4.0462730 
C    -3.7008637    2.5961588    2.0661684 
C    -3.1047159   -4.4201294    2.2038622 
C    -0.8682272   -4.9036656    1.1201485 
C    -0.3355133    3.9768966   -4.4165965 
C    -0.2313420    4.7871636   -2.0153778 
C     3.0753347   -0.2017116   -2.8771687 
C     1.9423334   -2.1669299   -1.7430824 
C    -3.3306339    2.5272221    3.5557443 
C    -2.3012262   -5.4104827    1.3463915 
C    -0.8503328    5.0130127   -3.4045305 
C     3.2429795   -1.6428205   -2.3714249 
H    -3.7243196   -0.1748294    1.5657936 
H    -1.1626613   -2.4159131    2.3341250 
H     1.1522823    2.4537071   -2.6201876 
H    -0.2203567   -0.5521135   -3.9860214 
H    -3.5192184   -0.8282072   -0.8636789 
H    -2.1892077   -1.8582819   -1.4272004 
H    -2.4514992    1.1999131   -1.7151979 
H    -2.2396650    0.0050000   -3.0095757 
H    -1.3148625    0.5998137    3.3132911 
H    -2.3384044   -0.8262125    3.5632396 
H    -3.0855571    1.7748988    0.1510117 
H    -1.7321322    2.1485517    1.2374950 
H    -3.6519892   -3.0414350    0.6131805 
H    -3.6759449   -2.3202227    2.2375983 
H     0.1739481   -3.1290119    0.3792147 
H    -1.3006306   -3.5589685   -0.5185099 
H    -1.6776943    2.3655726   -3.8556153 
H    -0.1958916    1.8143548   -4.6640180 
H     0.0019786    3.1865594   -0.5338501 
H    -1.5602005    3.2012507   -1.3689972 
H     1.8038441    0.9561657   -4.2203537 
H     2.0740936   -0.7113955   -4.7357218 
H     0.8875047   -2.6622341   -3.5745786 
H    -0.1817496   -2.3656268   -2.1983958 
H    -2.9938460    1.0238470    5.1065038 
H    -4.3197179    0.6408205    3.9925087 
H    -4.7407281    2.2400435    1.9298163 
H    -3.6752383    3.6401777    1.7055900 
H    -4.1433536   -4.7719884    2.3364076 
H    -2.6557553   -4.3605421    3.2146810 
H    -0.3341514   -4.8659729    2.0876020 
H    -0.3062636   -5.5983940    0.4701546 
H    -0.8175653    4.1220103   -5.3996833 
H     0.7520555    4.1198138   -4.5719798 
H     0.8591983    4.9742016   -2.0688536 
H    -0.6412156    5.5069168   -1.2843827 
H     2.9031346    0.4699602   -2.0159854 
H     4.0023763    0.1520991   -3.3603502 
H     2.0460991   -3.2252528   -1.4438467 
H     1.7315810   -1.5945878   -0.8100639 
H    -4.0428604    3.1212805    4.1550159 
H    -2.3319528    2.9837132    3.7066392 
H    -2.2837260   -6.4046362    1.8270717 
H    -2.8058472   -5.5410194    0.3684903 
H    -0.6319173    6.0360853   -3.7581819 
H    -1.9529673    4.9333464   -3.3297092 
H     4.0683853   -1.6961734   -1.6383132 
H     3.5304674   -2.2973206   -3.2175738 
