105
Energy =
C     1.2901914    0.4191164    2.5806121 
C     2.3073397    0.1313693    1.6506201 
C     2.4879444    0.9304974    0.4766988 
H     2.8924326   -0.7904734    1.7626494 
Pd    0.4809883   -0.0071052    0.4030075 
P    -0.1720058    0.7607636   -1.6942940 
P    -1.6459028   -0.9773342    0.6093105 
H     0.8119718    1.4077661    2.5089114 
H     2.2248428    1.9945925    0.5591247 
C     0.4548561   -1.6239015    6.2676822 
C    -0.3797115   -0.5901732    5.8134501 
C    -0.0832947    0.0734249    4.6183883 
C     1.0397922   -0.2933205    3.8394561 
C     1.8823901   -1.3229708    4.3218597 
C     1.5916905   -1.9781517    5.5224995 
H     0.2301640   -2.1405977    7.2062517 
H    -1.2562349   -0.2936888    6.3990234 
H    -0.7247513    0.8922233    4.2754244 
H     2.7757759   -1.6115067    3.7592121 
H     2.2576614   -2.7688517    5.8828313 
C     5.4297939    0.0863756   -2.5551785 
C     5.0627098    1.4087985   -2.2641154 
C     4.1101647    1.6726571   -1.2710004 
C     3.5037817    0.6196185   -0.5504798 
C     3.8845657   -0.7090576   -0.8532026 
C     4.8388375   -0.9710255   -1.8419808 
H     6.1716130   -0.1215288   -3.3327975 
H     5.5221561    2.2386217   -2.8110510 
H     3.8315020    2.7084414   -1.0446719 
H     3.4030819   -1.5453549   -0.3337755 
H     5.1167856   -2.0058451   -2.0675123 
C    -2.7092787   -0.2484884    1.9575708 
C    -1.8499889   -2.8480690    0.7418806 
C     0.1481898    2.5889553   -1.8891385 
C     0.4088867   -0.0413487   -3.2846299 
C    -2.5467795   -0.6441724   -1.0039610 
C    -2.0384751    0.6069287   -1.7348245 
C    -2.6869554    1.2962100    1.8932268 
C    -4.1597035   -0.7760499    2.0141643 
C    -0.8917234   -3.5833304   -0.2265620 
C    -1.6753204   -3.4035065    2.1712436 
C    -0.4643685    3.2081726   -3.1658811 
C    -0.2876329    3.3806594   -0.6353738 
C     1.8182349    0.4284621   -3.7027556 
C     0.3570821   -1.5796516   -3.1553288 
C    -3.4585574    1.9155423    3.0727735 
C    -4.9182983   -0.1542312    3.2032085 
C     0.5739734   -3.5268581    0.2350578 
C    -0.2158766   -3.3385520    2.6370652 
C    -0.0737229    4.6943079   -3.2874025 
C     0.1072790    4.8633708   -0.7608083 
C     2.2901831   -0.2783686   -4.9856412 
C     0.8472892   -2.2795290   -4.4354686 
C    -4.8984864    1.3815376    3.1442139 
C     0.7336414   -4.0595092    1.6677610 
C    -0.4780058    5.4913778   -2.0365727 
C     2.2546823   -1.8059624   -4.8288913 
H    -2.1835694   -0.5574997    2.8837294 
H    -2.8936183   -3.0149439    0.4116647 
H     1.2529838    2.6461004   -1.9595680 
H    -0.3224972    0.2766290   -4.0553440 
H    -3.6318214   -0.5763736   -0.8101127 
H    -2.3922712   -1.5424946   -1.6264295 
H    -2.4249213    1.5186117   -1.2464856 
H    -2.3890793    0.6245104   -2.7820527 
H    -3.1554776    1.6279670    0.9457091 
H    -1.6422146    1.6587672    1.8718426 
H    -4.1772108   -1.8770438    2.0914903 
H    -4.6849203   -0.5120440    1.0754637 
H    -0.9875241   -3.1912056   -1.2534850 
H    -1.2200124   -4.6397852   -0.2704327 
H    -2.0158976   -4.4572985    2.1518835 
H    -2.3323824   -2.8824017    2.8892059 
H    -1.5675057    3.1229066   -3.1191251 
H    -0.1380808    2.6587399   -4.0663536 
H     0.1559343    2.9321910    0.2727057 
H    -1.3864209    3.3080792   -0.5140978 
H     2.5255676    0.2021498   -2.8887416 
H     1.8396438    1.5215324   -3.8516564 
H    -0.6722513   -1.9076806   -2.9255799 
H     0.9909908   -1.8808360   -2.2989044 
H    -3.4549273    3.0166201    2.9827462 
H    -2.9327427    1.6735152    4.0173972 
H    -4.4478958   -0.4942401    4.1467702 
H    -5.9572763   -0.5286595    3.2147780 
H     0.9208409   -2.4676535    0.1961917 
H     1.2106662   -4.0898437   -0.4706489 
H    -0.1238089   -3.7534491    3.6554485 
H     0.0816621   -2.2769116    2.7100752 
H    -0.5407639    5.1265107   -4.1901543 
H     1.0222518    4.7653957   -3.4325432 
H     1.2125103    4.9405195   -0.7839780 
H    -0.2301358    5.4159250    0.1343149 
H     3.3125375    0.0630935   -5.2270319 
H     1.6431949    0.0217585   -5.8335631 
H     0.1414398   -2.0628234   -5.2611332 
H     0.8298625   -3.3738604   -4.2836669 
H    -5.4205719    1.8060155    4.0198167 
H    -5.4574506    1.7193721    2.2490622 
H     0.5172513   -5.1457353    1.6784899 
H     1.7798726   -3.9440474    2.0052582 
H    -0.1511023    6.5419958   -2.1303478 
H    -1.5830822    5.5102670   -1.9577352 
H     2.9756278   -2.1057690   -4.0431336 
H     2.5771956   -2.2978497   -5.7636185 
