105
Energy =
C     1.4698411    0.3183195    2.6662522 
C     2.5241132    0.2953348    1.7123034 
C     2.6218872    1.3196626    0.7315254 
H     3.1485676   -0.6016210    1.6204887 
Pd    0.6475172    0.2856600    0.5709491 
P     0.1704963    0.6213781   -1.6830461 
P    -1.5062424   -0.5765869    0.7861888 
H     1.0455149    1.3041076    2.9099883 
H     2.1906551    2.2960170    0.9994587 
C     0.5566456   -2.6950358    5.6051922 
C     1.4951466   -2.9721835    4.5970234 
C     1.8081351   -2.0050481    3.6354317 
C     1.1962068   -0.7302285    3.6665180 
C     0.2655626   -0.4607795    4.6968520 
C    -0.0558093   -1.4331672    5.6515641 
H     0.3109074   -3.4558037    6.3528430 
H     1.9816776   -3.9521935    4.5572271 
H     2.5269657   -2.2519050    2.8474054 
H    -0.2086237    0.5265539    4.7440302 
H    -0.7809433   -1.2034528    6.4392256 
C     5.2808386    1.5234905   -2.6508777 
C     5.2635566    0.3676894   -1.8528690 
C     4.4147383    0.2832813   -0.7429463 
C     3.5714465    1.3632333   -0.3964689 
C     3.6171293    2.5303162   -1.1956872 
C     4.4549657    2.6076864   -2.3144653 
H     5.9425268    1.5822886   -3.5208752 
H     5.9179479   -0.4751350   -2.0980382 
H     4.4089232   -0.6343800   -0.1461229 
H     2.9810957    3.3835670   -0.9327221 
H     4.4715218    3.5197272   -2.9201722 
C    -2.5489994    0.2060633    2.1127391 
C    -1.6590301   -2.4329283    1.0001393 
C    -0.0664766    2.4210784   -2.1641054 
C     1.4391145   -0.0746094   -2.8562965 
C    -2.3824759   -0.1915308   -0.8263335 
C    -1.4301548   -0.2769227   -2.0314545 
C    -2.3763514    1.7407799    2.1383100 
C    -4.0433318   -0.1829436    2.0643992 
C    -0.5494302   -3.1449989    0.1898358 
C    -1.6051563   -2.8473029    2.4876294 
C    -1.1338252    2.6773558   -3.2521702 
C    -0.3413585    3.3167222   -0.9339370 
C     1.7531268   -1.5441802   -2.4945995 
C     1.1100267    0.0892198   -4.3558570 
C    -3.1348838    2.3524452    3.3303944 
C    -4.7987566    0.4329158    3.2580904 
C    -0.5991599   -4.6720881    0.3678184 
C    -1.6373265   -4.3770912    2.6533757 
C    -1.1526493    4.1647211   -3.6552195 
C    -0.3683033    4.8038781   -1.3284371 
C     2.8660116   -2.1166896   -3.3900206 
C     2.2403094   -0.4922210   -5.2278149 
C    -4.6217807    1.9595143    3.3106935 
C    -0.5200276   -5.0610904    1.8515753 
C    -1.3955261    5.0740845   -2.4398922 
C     2.5248463   -1.9617144   -4.8805065 
H    -2.1044308   -0.1942557    3.0454149 
H    -2.6471189   -2.7120133    0.5815264 
H     0.9280102    2.6957521   -2.5709640 
H     2.3394989    0.5295579   -2.6295375 
H    -2.7783022    0.8359935   -0.7252773 
H    -3.2487189   -0.8644687   -0.9539059 
H    -1.9074530    0.1114119   -2.9467295 
H    -1.1529336   -1.3259221   -2.2340440 
H    -2.7705911    2.1743176    1.1979917 
H    -1.3021186    2.0012315    2.1804228 
H    -4.1643314   -1.2810336    2.0621879 
H    -4.4868666    0.1902764    1.1209139 
H     0.4325454   -2.7619409    0.5332993 
H    -0.6283245   -2.8886353   -0.8811220 
H    -2.4458690   -2.4023020    3.0463795 
H    -0.6774011   -2.4534965    2.9369291 
H    -2.1295884    2.4029213   -2.8518312 
H    -0.9598425    2.0455037   -4.1399374 
H     0.4193465    3.1369108   -0.1538294 
H    -1.3151844    3.0332735   -0.4893502 
H     0.8422296   -2.1612945   -2.6223744 
H     2.0359214   -1.6107113   -1.4270084 
H     0.9649236    1.1552822   -4.6027772 
H     0.1607142   -0.4321361   -4.5893368 
H    -3.0236863    3.4514688    3.3197492 
H    -2.6713192    1.9952983    4.2714574 
H    -4.4151969   -0.0163313    4.1952224 
H    -5.8695263    0.1692430    3.1958151 
H     0.2256240   -5.1349688   -0.2035429 
H    -1.5417062   -5.0599224   -0.0660587 
H    -2.6200829   -4.7625647    2.3170360 
H    -1.5500050   -4.6214361    3.7273155 
H    -1.9292343    4.3283775   -4.4234450 
H    -0.1831269    4.4229939   -4.1245066 
H     0.6407580    5.0986906   -1.6795998 
H    -0.5861590    5.4218622   -0.4389881 
H     3.0339965   -3.1787792   -3.1361815 
H     3.8086144   -1.5804961   -3.1735920 
H     3.1574753    0.1075948   -5.0669655 
H     1.9727293   -0.3882231   -6.2944657 
H    -5.1377273    2.3737564    4.1948139 
H    -5.1051771    2.4128213    2.4225446 
H    -0.5806796   -6.1579163    1.9655230 
H     0.4620895   -4.7501999    2.2589443 
H    -1.3628514    6.1355362   -2.7425420 
H    -2.4145301    4.8892418   -2.0455846 
H     1.6335899   -2.5748341   -5.1211003 
H     3.3506743   -2.3486946   -5.5034215 
