105
Energy =
C     1.3916113    0.2408403    2.7352876 
C     2.4220843    0.4966712    1.7850214 
C     2.3791812    1.6536964    0.9627037 
H     3.1556663   -0.2891956    1.5647034 
Pd    0.5375427    0.4161405    0.6653965 
P     0.0792503    0.7909119   -1.5856970 
P    -1.4768581   -0.7358827    0.7603415 
H     0.8774375    1.1170512    3.1583176 
H     1.8348643    2.5237251    1.3620892 
C     1.0160155   -3.3317811    5.1208062 
C     1.8260520   -3.3411899    3.9729604 
C     1.9517249   -2.1918515    3.1854963 
C     1.2849982   -0.9947464    3.5371139 
C     0.4868724   -0.9972133    4.7042537 
C     0.3470491   -2.1529138    5.4827633 
H     0.9154375   -4.2343175    5.7319924 
H     2.3613039   -4.2528553    3.6880866 
H     2.5729420   -2.2302599    2.2843705 
H    -0.0206845   -0.0757514    5.0086619 
H    -0.2754748   -2.1287167    6.3832658 
C     4.9520485    2.6498369   -2.3463546 
C     4.1659132    3.6305381   -1.7236368 
C     3.3532848    3.2912363   -0.6341332 
C     3.3036994    1.9656299   -0.1445466 
C     4.1181932    0.9931027   -0.7699738 
C     4.9293418    1.3318597   -1.8580992 
H     5.5874336    2.9103313   -3.1987980 
H     4.1869516    4.6641505   -2.0845280 
H     2.7416451    4.0619680   -0.1513410 
H     4.1134670   -0.0412897   -0.4121260 
H     5.5512083    0.5631248   -2.3288326 
C    -2.8316536    0.1582245    1.6853805 
C    -1.4252467   -2.4650647    1.4552058 
C     0.2392124    2.5494018   -2.1718220 
C     1.1833844   -0.2478641   -2.6892120 
C    -2.1067457   -0.9040324   -0.9990735 
C    -1.6908150    0.2819398   -1.8900451 
C    -2.5128425    0.2036592    3.1949044 
C    -3.0564125    1.5826079    1.1295392 
C    -2.8024989   -3.1603460    1.5294348 
C    -0.3926780   -3.3295120    0.6973915 
C    -0.1772430    2.8174675   -3.6346852 
C    -0.4771371    3.5087742   -1.1936181 
C     1.7388494   -1.4806159   -1.9392480 
C     0.5650885   -0.6938968   -4.0333452 
C    -3.5993494    0.9577170    3.9814874 
C    -4.1337721    2.3381385    1.9294827 
C    -2.6729158   -4.5679269    2.1430143 
C    -0.2886260   -4.7371132    1.3105929 
C     0.0535305    4.2959201   -4.0052631 
C    -0.2439230    4.9792214   -1.5847940 
C     2.7942117   -2.2089691   -2.7884122 
C     1.6177363   -1.4189246   -4.8953724 
C    -3.8049652    2.3769417    3.4298067 
C    -1.6595978   -5.4285308    1.3722122 
C    -0.6690791    5.2458513   -3.0376400 
C     2.2234511   -2.6227578   -4.1551445 
H    -3.7549801   -0.4333462    1.5252888 
H    -1.0387514   -2.3156977    2.4837689 
H     1.3292032    2.7292419   -2.0821546 
H     2.0321948    0.4371385   -2.8916547 
H    -3.2043478   -1.0283654   -0.9912945 
H    -1.6762119   -1.8422715   -1.3920817 
H    -2.2969365    1.1743916   -1.6589997 
H    -1.8513298    0.0516308   -2.9569718 
H    -1.5420852    0.7184086    3.3266945 
H    -2.3881435   -0.8155222    3.6007477 
H    -3.3529833    1.5387140    0.0668760 
H    -2.0982148    2.1381659    1.1736687 
H    -3.2279988   -3.2436069    0.5098163 
H    -3.5110852   -2.5587785    2.1258173 
H     0.5902354   -2.8251581    0.7071635 
H    -0.6959337   -3.4271186   -0.3638857 
H    -1.2477068    2.5666252   -3.7689649 
H     0.3963464    2.1725298   -4.3218633 
H    -0.1257612    3.3197399   -0.1617426 
H    -1.5656486    3.3033951   -1.1999538 
H     0.9048990   -2.1726943   -1.7149480 
H     2.1596223   -1.1745135   -0.9639882 
H     0.1445981    0.1614013   -4.5887563 
H    -0.2738460   -1.3887332   -3.8312683 
H    -3.3230029    0.9911697    5.0506481 
H    -4.5510304    0.3946907    3.9185406 
H    -5.1102516    1.8370327    1.7808651 
H    -4.2397830    3.3613681    1.5265371 
H    -3.6643421   -5.0545673    2.1613823 
H    -2.3452090   -4.4696987    3.1964908 
H     0.1234037   -4.6493400    2.3329047 
H     0.4281170   -5.3418178    0.7261299 
H    -0.2791976    4.4708165   -5.0438749 
H     1.1412894    4.5037709   -3.9803726 
H     0.8315941    5.2166861   -1.4689056 
H    -0.7925865    5.6397633   -0.8898194 
H     3.1698053   -3.0927478   -2.2417093 
H     3.6595022   -1.5332761   -2.9370967 
H     2.4205977   -0.7027388   -5.1582805 
H     1.1570979   -1.7415652   -5.8460510 
H    -4.6080918    2.8933914    3.9843897 
H    -2.8805111    2.9678474    3.5871571 
H    -1.5651101   -6.4223396    1.8445258 
H    -2.0333046   -5.6016949    0.3433991 
H    -0.4652225    6.2966955   -3.3090345 
H    -1.7639107    5.1019829   -3.1309903 
H     1.4369778   -3.3883617   -4.0025576 
H     3.0078688   -3.0958044   -4.7719335 
