105
Energy =
C     1.1991619    0.0116870    2.8347807 
C     2.1787980    0.3531663    1.8654155 
C     2.0830885    1.5768837    1.1490477 
H     2.9328212   -0.3877875    1.5710748 
Pd    0.2791551    0.3111582    0.7559425 
P    -0.0884271    0.8203242   -1.4906904 
P    -1.7518857   -0.8610463    0.6894338 
H     0.6661219    0.8455886    3.3111400 
H     1.5254036    2.3882877    1.6416129 
C     1.1157682   -3.6119609    5.1566159 
C     0.4431311   -2.4615147    5.5952301 
C     0.4818975   -1.2902992    4.8285935 
C     1.1839123   -1.2459012    3.6016990 
C     1.8549077   -2.4143152    3.1717771 
C     1.8272682   -3.5792418    3.9450429 
H     1.0908197   -4.5279812    5.7552502 
H    -0.1070629   -2.4741023    6.5417055 
H    -0.0334446   -0.3906140    5.1835732 
H     2.3952099   -2.4169266    2.2190163 
H     2.3601268   -4.4712822    3.5998964 
C     4.6485097    3.0042442   -2.0027015 
C     3.8920679    3.8966269   -1.2288907 
C     3.0776930    3.4141568   -0.1960756 
C     3.0007926    2.0313718    0.0867587 
C     3.7891696    1.1470120   -0.6855134 
C     4.5982297    1.6279909   -1.7200934 
H     5.2821812    3.3768762   -2.8137880 
H     3.9349937    4.9721430   -1.4294732 
H     2.4850345    4.1153892    0.4019234 
H     3.7606404    0.0711710   -0.4877665 
H     5.1964871    0.9255403   -2.3101023 
C    -3.1847318   -0.1368688    1.6910113 
C    -1.8656345   -2.6965959    1.0784583 
C     0.2145645    2.5644362   -2.0708701 
C     0.9920890   -0.2478705   -2.5996432 
C    -2.3016792   -0.8545168   -1.1063085 
C    -1.8675963    0.4060884   -1.8703220 
C    -2.6798052    0.3757753    3.0647333 
C    -4.0390546    0.9392676    0.9838847 
C    -0.7237601   -3.4813732    0.3991571 
C    -1.9169231   -3.0232171    2.5860669 
C    -0.0961300    2.8324255   -3.5602295 
C    -0.4858617    3.5928183   -1.1572654 
C     1.5696809   -1.4751196   -1.8605525 
C     0.3423328   -0.7022913   -3.9264063 
C    -2.0341627    1.7685065    2.9824579 
C    -3.3652270    2.3174933    0.9305292 
C    -0.8761110   -4.9968275    0.6259980 
C    -2.0696353   -4.5394692    2.8142391 
C     0.2693000    4.2816389   -3.9393244 
C    -0.1145228    5.0337366   -1.5526269 
C     2.6128864   -2.1962950   -2.7303700 
C     1.3778317   -1.4248912   -4.8109556 
C    -2.9628462    2.8004968    2.3306714 
C    -0.9550857   -5.3377603    2.1215904 
C    -0.4325780    5.3037480   -3.0319106 
C     2.0124945   -2.6201654   -4.0812591 
H    -3.8283961   -1.0217204    1.8542748 
H    -2.8301574   -3.0034109    0.6201544 
H     1.3072777    2.6715115   -1.9229440 
H     1.8356285    0.4339688   -2.8318275 
H    -3.3949575   -1.0040227   -1.1606252 
H    -1.8352094   -1.7478126   -1.5590798 
H    -2.4621386    1.2818950   -1.5587978 
H    -2.0160033    0.2836753   -2.9567238 
H    -1.9712113   -0.3450821    3.5093539 
H    -3.5516224    0.4197137    3.7457450 
H    -4.9794699    1.0267770    1.5621612 
H    -4.3416867    0.6070437   -0.0252232 
H     0.2398965   -3.1290833    0.8145621 
H    -0.6989402   -3.2753379   -0.6860026 
H    -2.7548085   -2.4976825    3.0755306 
H    -0.9873521   -2.6707437    3.0656115 
H    -1.1732826    2.6606652   -3.7527688 
H     0.4655180    2.1339622   -4.2036073 
H    -0.2260616    3.3956798   -0.1003822 
H    -1.5831994    3.4751950   -1.2433837 
H     0.7460961   -2.1722764   -1.6223345 
H     2.0022702   -1.1713559   -0.8904051 
H    -0.0939640    0.1491629   -4.4755794 
H    -0.4893673   -1.3986809   -3.7018471 
H    -1.1128361    1.6971430    2.3620696 
H    -1.7159284    2.0923167    3.9897433 
H    -4.0339751    3.0435605    0.4350448 
H    -2.4482482    2.2544795    0.3142992 
H    -0.0316151   -5.5270080    0.1497907 
H    -1.7959991   -5.3454179    0.1165681 
H    -3.0549164   -4.8675955    2.4278948 
H    -2.0704104   -4.7419529    3.9002315 
H     0.0120457    4.4597954   -4.9986653 
H     1.3666015    4.4055619   -3.8521940 
H     0.9670311    5.1895186   -1.3770346 
H    -0.6511329    5.7465801   -0.9011660 
H     3.0086831   -3.0749721   -2.1897598 
H     3.4698505   -1.5149738   -2.9024053 
H     2.1680730   -0.7038067   -5.0979514 
H     0.8958002   -1.7555225   -5.7481961 
H    -3.8680420    2.9413606    2.9528168 
H    -2.4623885    3.7835831    2.2693361 
H    -1.1174714   -6.4215799    2.2589024 
H     0.0112777   -5.0946325    2.6007035 
H    -0.1315623    6.3299985   -3.3072430 
H    -1.5278712    5.2427569   -3.1884579 
H     1.2367722   -3.3917930   -3.9055524 
H     2.7849979   -3.0892554   -4.7158255 
