105
Energy =
C     1.4595971    0.3255121    2.6669465 
C     2.5037435    0.3705383    1.7077537 
C     2.5478848    1.4171947    0.7411020 
H     3.1804963   -0.4867603    1.6050029 
Pd    0.6288413    0.2916805    0.5635398 
P     0.0484861    0.8554746   -1.6161364 
P    -1.4272541   -0.8029893    0.7093902 
H     0.9597018    1.2797661    2.8950958 
H     2.1089384    2.3811362    1.0396657 
C     0.7845990   -2.6682021    5.6852141 
C     0.0916213   -1.4481826    5.7113246 
C     0.3317143   -0.4839931    4.7252056 
C     1.2623665   -0.7198291    3.6863339 
C     1.9554472   -1.9524605    3.6750882 
C     1.7213200   -2.9115068    4.6664599 
H     0.6025601   -3.4230341    6.4567361 
H    -0.6340303   -1.2456006    6.5057936 
H    -0.2085690    0.4696639    4.7528436 
H     2.6787621   -2.1705292    2.8826536 
H     2.2716380   -3.8577435    4.6450437 
C     5.2207528    1.7386577   -2.6250886 
C     5.0445505    0.4953949   -1.9940600 
C     4.1938730    0.3754364   -0.8900669 
C     3.4981796    1.4989486   -0.3864523 
C     3.7072704    2.7484042   -1.0157762 
C     4.5539465    2.8671706   -2.1254999 
H     5.8842737    1.8276267   -3.4911878 
H     5.5751961   -0.3871349   -2.3662653 
H     4.0634067   -0.6059413   -0.4224322 
H     3.2034047    3.6376201   -0.6193721 
H     4.6997424    3.8453509   -2.5955970 
C    -2.6216172    0.0594954    1.8525323 
C    -1.5025708   -2.6250658    1.1368929 
C     0.2698391    2.6621580   -2.0079512 
C     0.9875553   -0.1048246   -2.9208570 
C    -2.1654285   -0.7697965   -1.0149256 
C    -1.7724474    0.4899767   -1.8026446 
C    -2.5540229    1.5968404    1.7138636 
C    -4.0799165   -0.4398285    1.7705362 
C    -0.3130886   -3.3573692    0.4736113 
C    -1.5337244   -2.8971994    2.6557422 
C    -0.1928909    3.1166440   -3.4094216 
C    -0.3533552    3.5397422   -0.8981301 
C     1.5024655   -1.4531213   -2.3676136 
C     0.2399041   -0.3418444   -4.2524114 
C    -3.4232917    2.2784446    2.7859210 
C    -4.9469124    0.2460255    2.8446913 
C    -0.3419727   -4.8662544    0.7732046 
C    -1.5502051   -4.4083024    2.9510066 
C     0.1086062    4.6135675   -3.6233510 
C    -0.0432488    5.0296082   -1.1288366 
C     2.4333283   -2.1409338   -3.3799230 
C     1.1689094   -1.0231327   -5.2766462 
C    -4.8766815    1.7780166    2.7321954 
C    -0.3698928   -5.1327802    2.2859291 
C    -0.5094606    5.4866250   -2.5203673 
C     1.7348745   -2.3458568   -4.7345459 
H    -2.2139851   -0.1995598    2.8511616 
H    -2.4461976   -2.9965318    0.6864756 
H     1.3707089    2.7764753   -1.9556981 
H     1.8685141    0.5437934   -3.1074800 
H    -3.2622887   -0.8813546   -0.9552252 
H    -1.7781660   -1.6733065   -1.5203635 
H    -2.2992854    1.3758253   -1.4067597 
H    -2.0456575    0.4000907   -2.8679250 
H    -2.9159993    1.8938767    0.7103972 
H    -1.5039387    1.9374033    1.7857432 
H    -4.1288558   -1.5375494    1.8845563 
H    -4.4913114   -0.2025360    0.7700744 
H     0.6276348   -2.9151067    0.8585137 
H    -0.3149276   -3.1903815   -0.6185758 
H    -2.4149274   -2.4233461    3.1212492 
H    -0.6423123   -2.4445603    3.1215352 
H    -1.2806717    2.9384935   -3.5184162 
H     0.3134708    2.5262476   -4.1916047 
H     0.0151031    3.2131569    0.0920243 
H    -1.4522677    3.4000330   -0.8865296 
H     0.6359058   -2.1106784   -2.1615853 
H     2.0142791   -1.2974418   -1.4014577 
H    -0.1575277    0.5993242   -4.6677552 
H    -0.6303216   -1.0009299   -4.0628726 
H    -3.3852222    3.3749619    2.6564052 
H    -2.9947699    2.0616446    3.7846122 
H    -4.5929159   -0.0681084    3.8461637 
H    -5.9915342   -0.1013965    2.7551939 
H     0.5343181   -5.3516579    0.3069150 
H    -1.2394347   -5.3127286    0.3015665 
H    -2.5020299   -4.8423604    2.5859231 
H    -1.5297882   -4.5601444    4.0450947 
H    -0.2595205    4.9239723   -4.6173608 
H     1.2070435    4.7572154   -3.6328710 
H     1.0490743    5.1903374   -1.0351585 
H    -0.5214465    5.6353908   -0.3385143 
H     2.7792229   -3.1078129   -2.9717719 
H     3.3336869   -1.5111493   -3.5175290 
H     2.0018632   -0.3342390   -5.5181695 
H     0.6168573   -1.1952536   -6.2177638 
H    -5.4722814    2.2477409    3.5347376 
H    -5.3343681    2.0938983    1.7737147 
H    -0.4251600   -6.2180015    2.4834728 
H     0.5751825   -4.7724914    2.7359330 
H    -0.2502387    6.5478178   -2.6820751 
H    -1.6141707    5.4192302   -2.5748529 
H     0.9064235   -3.0712696   -4.6105692 
H     2.4350180   -2.7895364   -5.4643383 
