105
Energy =
C     1.3777152    0.1636410    2.6436813 
C     2.3305782    0.3629683    1.6090453 
C     2.2911383    1.5159999    0.7848481 
H     3.0048110   -0.4585849    1.3393802 
Pd    0.3550216    0.3718023    0.6308118 
P    -0.2683784    0.7167002   -1.5989360 
P    -1.6697182   -0.7644555    0.9279742 
H     0.9361795    1.0668130    3.0877628 
H     1.7803648    2.4033277    1.1905377 
C     1.0994824   -3.3225126    5.1671655 
C     0.4032578   -2.1466845    5.4853387 
C     0.5099915   -1.0209018    4.6597444 
C     1.2974363   -1.0470575    3.4845197 
C     1.9910108   -2.2409200    3.1775743 
C     1.9015875   -3.3584792    4.0147305 
H     1.0276914   -4.2007791    5.8165365 
H    -0.2130334   -2.1000739    6.3892047 
H    -0.0141142   -0.1000042    4.9322610 
H     2.6114538   -2.3027167    2.2776558 
H     2.4608573   -4.2660839    3.7653907 
C     4.9383960    2.4167932   -2.4928814 
C     3.9687840    3.3415607   -2.0742447 
C     3.1261234    3.0370282   -0.9986495 
C     3.2188004    1.7952427   -0.3280751 
C     4.2085848    0.8788885   -0.7542021 
C     5.0601938    1.1894925   -1.8205323 
H     5.6030814    2.6546296   -3.3293722 
H     3.8755627    4.3075759   -2.5813518 
H     2.3814653    3.7693728   -0.6669941 
H     4.3185614   -0.0877193   -0.2528917 
H     5.8216633    0.4673976   -2.1324948 
C    -3.1344788   -0.0300047    1.8629204 
C    -1.4827427   -2.4864382    1.6423930 
C    -0.2418202    2.4400568   -2.3040479 
C     0.6620663   -0.3551324   -2.8363038 
C    -2.3795039   -1.0090092   -0.7921497 
C    -2.0488167    0.1613253   -1.7349284 
C    -2.8835798    0.1325391    3.3804956 
C    -3.6787329    1.2845181    1.2587941 
C    -2.8070152   -3.2630076    1.8170446 
C    -0.4583026   -3.3003340    0.8198265 
C    -0.9668455    2.5761663   -3.6627457 
C    -0.7537417    3.4929922   -1.3003603 
C     1.8557044    0.3765626   -3.4893778 
C     1.1221505   -1.6633247   -2.1529043 
C    -2.0596344    1.3846570    3.7236568 
C    -2.8056050    2.5017105    1.5939135 
C    -2.5542033   -4.6619106    2.4125226 
C    -0.2346320   -4.7012244    1.4152994 
C    -0.7843105    3.9979567   -4.2280427 
C    -0.5795301    4.9138860   -1.8677862 
C     2.6414381   -0.5510475   -4.4343166 
C     1.9012988   -2.5747884   -3.1156711 
C    -2.6552472    2.6617613    3.1137460 
C    -1.5574243   -5.4669542    1.5656707 
C    -1.2717155    5.0639652   -3.2329199 
C     3.1002329   -1.8355512   -3.7280812 
H    -3.9022781   -0.8120412    1.7147399 
H    -1.0379503   -2.3047060    2.6413856 
H     0.8387728    2.6268785   -2.4571423 
H    -0.0761903   -0.6055196   -3.6249138 
H    -3.4715598   -1.1619014   -0.7225144 
H    -1.9478306   -1.9469864   -1.1815469 
H    -2.6563801    1.0474780   -1.4788670 
H    -2.2796619   -0.0990257   -2.7829135 
H    -2.4049072   -0.7699956    3.8017873 
H    -3.8762637    0.2102110    3.8647412 
H    -4.6880151    1.4401087    1.6874003 
H    -3.8314210    1.1875853    0.1696151 
H    -3.3054953   -3.3698917    0.8329734 
H    -3.5012724   -2.7094704    2.4727733 
H     0.4944610   -2.7436344    0.7588605 
H    -0.8287400   -3.4187107   -0.2172104 
H    -2.0471700    2.3790183   -3.5219426 
H    -0.5972052    1.8268513   -4.3855074 
H    -0.2184154    3.3900165   -0.3385156 
H    -1.8253979    3.3152581   -1.0879294 
H     2.5311313    0.7460923   -2.6995480 
H     1.5104178    1.2583412   -4.0544594 
H     0.2546833   -2.2033663   -1.7378596 
H     1.7665622   -1.3979193   -1.2903678 
H    -1.0369693    1.2570703    3.3258674 
H    -1.9690067    1.4791217    4.8205498 
H    -3.2371181    3.4120511    1.1413914 
H    -1.8005139    2.3657703    1.1448155 
H    -3.5146356   -5.1998579    2.5036588 
H    -2.1538300   -4.5457887    3.4387490 
H     0.2405924   -4.5957268    2.4074016 
H     0.4728523   -5.2613616    0.7774150 
H    -1.3240098    4.0878997   -5.1875196 
H     0.2886954    4.1611490   -4.4503762 
H     0.5024795    5.1256559   -1.9796753 
H    -0.9746468    5.6536136   -1.1487267 
H     3.5088682    0.0017299   -4.8376827 
H     2.0035320   -0.8172930   -5.3000987 
H     1.2251820   -2.9151934   -3.9244847 
H     2.2316161   -3.4815336   -2.5772650 
H    -3.6467328    2.8658900    3.5630856 
H    -2.0154627    3.5307877    3.3499508 
H    -1.3772116   -6.4558657    2.0231226 
H    -1.9938828   -5.6560673    0.5646774 
H    -1.0980606    6.0756467   -3.6401809 
H    -2.3668167    4.9618590   -3.0981057 
H     3.8174679   -1.5740426   -2.9248996 
H     3.6381792   -2.4918159   -4.4348930 
