105
Energy =
C     1.3729507    0.7256558    2.4933880 
C     2.3750895    0.4899427    1.5237953 
C     2.5804947    1.3871377    0.4362541 
H     2.9077073   -0.4688469    1.5348275 
Pd    0.4834019    0.5761482    0.3888376 
P    -0.1770436    0.8816826   -1.8322510 
P    -1.4171189   -0.7488228    0.6632932 
H     1.0104128    1.7609436    2.5942268 
H     2.3450874    2.4445413    0.6193918 
C     0.4767630   -1.7283990    5.9166309 
C     0.0224359   -0.4029063    5.8419123 
C     0.3266873    0.3808982    4.7230994 
C     1.0864443   -0.1404055    3.6504341 
C     1.5551377   -1.4712928    3.7512307 
C     1.2509945   -2.2551660    4.8691285 
H     0.2404758   -2.3445480    6.7900224 
H    -0.5668540    0.0234010    6.6602687 
H    -0.0256051    1.4172596    4.6757411 
H     2.1595408   -1.9034522    2.9478240 
H     1.6233823   -3.2832843    4.9273419 
C     5.3773428    0.7022921   -2.7774482 
C     4.9531882   -0.3712620   -1.9771034 
C     4.0356769   -0.1638103   -0.9415750 
C     3.5374847    1.1302872   -0.6596669 
C     3.9886160    2.2032889   -1.4634868 
C     4.8886126    1.9908852   -2.5154581 
H     6.0902045    0.5357261   -3.5912715 
H     5.3382459   -1.3789674   -2.1642112 
H     3.7017804   -1.0224128   -0.3493987 
H     3.6380266    3.2176703   -1.2514196 
H     5.2226976    2.8389702   -3.1222060 
C    -2.9354089   -0.1341049    1.5567560 
C    -0.9932458   -2.3850928    1.4595430 
C    -0.6658673    2.5740187   -2.5060671 
C     1.0199040    0.1599881   -3.0742061 
C    -1.9899380   -1.2030036   -1.0596705 
C    -1.7753846   -0.0757175   -2.0822105 
C    -2.5785969    0.2234094    3.0137321 
C    -3.5833055    1.0677488    0.8389444 
C    -2.1714576   -3.3807915    1.5428170 
C     0.2359712   -3.0238763    0.7721248 
C    -1.7787056    3.2600195   -1.6779193 
C     0.5213959    3.5433882   -2.7228030 
C     1.1950787   -1.3509338   -2.7900054 
C     0.6585381    0.4130884   -4.5540997 
C    -3.8001176    0.7531866    3.7840790 
C    -4.8030296    1.5952431    1.6176360 
C    -1.7369370   -4.6858254    2.2381932 
C     0.6484094   -4.3357711    1.4641523 
C    -1.2643409    3.8836702   -0.3720784 
C     0.9944492    4.2246904   -1.4287480 
C     2.2119089   -1.9949312   -3.7482494 
C     1.6959813   -0.2371696   -5.4905203 
C    -4.4346706    1.9546285    3.0659132 
C    -0.5265693   -5.3239164    1.5386017 
C    -0.1498439    4.8997477   -0.6596161 
C     1.8397609   -1.7420397   -5.2171637 
H    -3.6550589   -0.9763797    1.5505277 
H    -0.6916850   -2.1063990    2.4881299 
H    -1.0873498    2.3091251   -3.4947560 
H     1.9812675    0.6627876   -2.8487438 
H    -3.0499664   -1.5125817   -1.0283440 
H    -1.4011599   -2.0922253   -1.3426886 
H    -2.5885607    0.6649390   -2.0085133 
H    -1.7983457   -0.4692130   -3.1140585 
H    -1.7911634    1.0009574    2.9929204 
H    -2.1453866   -0.6456398    3.5386774 
H    -3.8906302    0.7872721   -0.1846258 
H    -2.8312330    1.8735238    0.7471964 
H    -2.5328354   -3.6138931    0.5219440 
H    -3.0193621   -2.9341780    2.0912219 
H     1.0746681   -2.3019198    0.7628721 
H     0.0000819   -3.2412582   -0.2879634 
H    -2.6114475    2.5645176   -1.4768220 
H    -2.2043158    4.0618792   -2.3118003 
H     0.1758506    4.3178314   -3.4345158 
H     1.3695994    3.0307631   -3.2108433 
H     0.2203051   -1.8617668   -2.9179943 
H     1.5007987   -1.4981027   -1.7375838 
H     0.6008977    1.4949435   -4.7635735 
H    -0.3416806   -0.0113479   -4.7728454 
H    -3.4964466    1.0269782    4.8105446 
H    -4.5490649   -0.0570029    3.8814829 
H    -5.5939322    0.8199057    1.6203701 
H    -5.2222884    2.4724034    1.0929448 
H    -2.5873185   -5.3902183    2.2640465 
H    -1.4767980   -4.4607485    3.2911138 
H     0.9975069   -4.1099718    2.4894250 
H     1.5026621   -4.7849350    0.9264071 
H    -0.8682436    3.0819554    0.2893562 
H    -2.1020068    4.3565356    0.1707908 
H     1.7906260    4.9523941   -1.6666646 
H     1.4445004    3.4589797   -0.7750843 
H     2.2772297   -3.0785284   -3.5415597 
H     3.2106683   -1.5673914   -3.5467562 
H     2.6743390    0.2592000   -5.3386722 
H     1.4055797   -0.0570691   -6.5409040 
H    -5.3284554    2.3030885    3.6128517 
H    -3.7162883    2.7987212    3.0612412 
H    -0.2192590   -6.2435677    2.0672446 
H    -0.8148761   -5.6297409    0.5133109 
H    -0.5622931    5.7370890   -1.2555574 
H     0.2300797    5.3376253    0.2808572 
H     0.8830609   -2.2505313   -5.4506938 
H     2.6014913   -2.1816138   -5.8852007 
