105
Energy =
C     1.1146264    0.9122746    2.5596710 
C     2.1820161    0.5684447    1.7018741 
C     2.4128608    1.2951539    0.4932012 
H     2.7586910   -0.3435299    1.9008562 
Pd    0.3849498    0.3786906    0.4345762 
P    -0.1067417    0.6157622   -1.8242082 
P    -1.6762554   -0.7082654    0.6392886 
H     0.7035034    1.9282106    2.4493885 
H     2.1229280    2.3560921    0.4975963 
C     0.1048361   -0.8855509    6.3353581 
C    -0.3306085    0.4084341    6.0140786 
C     0.0072027    0.9744783    4.7788657 
C     0.7907708    0.2635383    3.8403911 
C     1.2421670   -1.0305263    4.1895276 
C     0.8974768   -1.5989759    5.4194662 
H    -0.1619936   -1.3343177    7.2974881 
H    -0.9367336    0.9777248    6.7261650 
H    -0.3376747    1.9848099    4.5314967 
H     1.8555723   -1.6052019    3.4887174 
H     1.2491966   -2.6055969    5.6683772 
C     5.4978655    0.3180676   -2.3574440 
C     4.9793344   -0.6817895   -1.5174609 
C     3.9686547   -0.3795085   -0.5988725 
C     3.4641562    0.9370584   -0.4819474 
C     4.0026009    1.9337166   -1.3278183 
C     5.0031763    1.6270958   -2.2591676 
H     6.2849373    0.0777101   -3.0792363 
H     5.3602123   -1.7060075   -1.5856330 
H     3.5601407   -1.1787001    0.0292080 
H     3.6414502    2.9638747   -1.2419543 
H     5.4077467    2.4168248   -2.9007344 
C    -2.9520295   -0.1831431    1.9071904 
C    -1.5013416   -2.5694103    0.8044675 
C    -0.4760084    2.3868214   -2.3006097 
C     1.1288485   -0.0154399   -3.0677911 
C    -2.6139798   -0.4164827   -0.9564840 
C    -1.7017976   -0.2966157   -2.1891361 
C    -2.7902362   -0.8499287    3.2897883 
C    -2.9501637    1.3576874    2.0328719 
C    -1.2222426   -3.2832732   -0.5351694 
C    -0.3867114   -2.8935196    1.8238366 
C    -1.5430013    3.0073553   -1.3704929 
C     0.7991764    3.2535543   -2.3237016 
C     1.4190707   -1.5162608   -2.8422058 
C     0.7487615    0.2676357   -4.5385168 
C    -3.8712355   -0.3544155    4.2697013 
C    -4.0361012    1.8410508    3.0107426 
C    -1.0537590   -4.8012213   -0.3315031 
C    -0.2202358   -4.4083970    2.0255588 
C    -1.8464864    4.4670137   -1.7558848 
C     0.4824234    4.7068674   -2.7198402 
C     2.5029165   -2.0229550   -3.8100422 
C     1.8424816   -0.2501164   -5.4928987 
C    -3.8818999    1.1779366    4.3884836 
C     0.0478049   -5.1213353    0.6912734 
C    -0.5708286    5.3230740   -1.7857420 
C     2.1235000   -1.7448698   -5.2731407 
H    -3.9241694   -0.5041890    1.4775340 
H    -2.4750299   -2.9272050    1.1960967 
H    -0.8924082    2.3327334   -3.3266221 
H     2.0531839    0.5432666   -2.8194065 
H    -3.1705601    0.5228405   -0.7957756 
H    -3.3666250   -1.2143771   -1.0909567 
H    -2.2251895    0.2059924   -3.0219294 
H    -1.4064019   -1.2959911   -2.5489249 
H    -1.7914127   -0.6129830    3.6969470 
H    -2.8545123   -1.9481591    3.2001158 
H    -3.0924865    1.8312068    1.0443719 
H    -1.9523009    1.6754938    2.3929459 
H    -0.2952843   -2.8690077   -0.9751372 
H    -2.0390935   -3.1005760   -1.2556380 
H    -0.5813794   -2.3971835    2.7877621 
H     0.5603150   -2.4635345    1.4374477 
H    -1.1732646    2.9630503   -0.3259723 
H    -2.4752101    2.4163035   -1.4050648 
H     1.5522374    2.8270828   -3.0091080 
H     1.2458145    3.2432081   -1.3121594 
H     0.4941991   -2.1013353   -3.0114778 
H     1.7216186   -1.6838149   -1.7922410 
H     0.5947545    1.3488404   -4.7020305 
H    -0.2104001   -0.2342441   -4.7743409 
H    -3.7020675   -0.8169094    5.2585563 
H    -4.8639140   -0.7019622    3.9217372 
H    -5.0327985    1.5984278    2.5928279 
H    -3.9906742    2.9413558    3.1004966 
H    -0.8332493   -5.2789329   -1.3030496 
H    -2.0148620   -5.2259163    0.0185459 
H    -1.1409694   -4.8173086    2.4860748 
H     0.5999223   -4.5971931    2.7418152 
H    -2.5828501    4.8886021   -1.0484258 
H    -2.3228686    4.4833535   -2.7555515 
H     0.1098671    4.7264240   -3.7626027 
H     1.4120406    5.3036546   -2.7057668 
H     2.6661182   -3.1036536   -3.6476935 
H     3.4561552   -1.5147823   -3.5745545 
H     2.7709602    0.3279671   -5.3182996 
H     1.5397234   -0.0596407   -6.5379861 
H    -4.6940416    1.5031164    5.0625479 
H    -2.9328924    1.5128715    4.8490928 
H     0.1227910   -6.2125516    0.8432491 
H     1.0260917   -4.7887393    0.2899821 
H    -0.8093702    6.3539465   -2.1013864 
H    -0.1533047    5.3940085   -0.7615059 
H     1.2207145   -2.3301272   -5.5387484 
H     2.9290931   -2.0850326   -5.9476613 
