105
Energy =
C     1.5220375    0.0880687    2.4473782 
C     2.6067680    0.3159679    1.5519616 
C     2.6250757    1.4819471    0.7468314 
H     3.3389928   -0.4804409    1.3709498 
Pd    0.7558626    0.2191653    0.3580329 
P     0.0513575    0.7871274   -1.7966634 
P    -1.3022417   -0.8364622    0.6385795 
H     1.0072630    0.9856957    2.8202674 
H     2.0197915    2.3297692    1.1016810 
C     0.8256194   -3.3634990    4.9269110 
C     0.1098296   -2.1733868    5.1292682 
C     0.3600906   -1.0584525    4.3198723 
C     1.3217233   -1.1103663    3.2829815 
C     2.0305957   -2.3175207    3.0880408 
C     1.7905414   -3.4262720    3.9074709 
H     0.6387699   -4.2349827    5.5623026 
H    -0.6379973   -2.1106497    5.9265851 
H    -0.1939165   -0.1274306    4.4888024 
H     2.7742043   -2.3955893    2.2880781 
H     2.3588105   -4.3485373    3.7489139 
C     5.5215296    2.6088273   -2.2301901 
C     4.4616132    3.4660164   -1.8939450 
C     3.5419644    3.0885314   -0.9094997 
C     3.6482124    1.8412957   -0.2488764 
C     4.7388221    1.0044271   -0.5763490 
C     5.6614900    1.3840145   -1.5574704 
H     6.2446816    2.9006081   -2.9984166 
H     4.3573559    4.4344365   -2.3943490 
H     2.7253254    3.7667952   -0.6393865 
H     4.8710728    0.0471862   -0.0633995 
H     6.4994130    0.7211455   -1.7970239 
C    -2.4716152    0.1394935    1.7453822 
C    -1.2896652   -2.5626252    1.3477907 
C     0.1107564    2.6139272   -2.1970184 
C     0.8649116    0.0156162   -3.3129516 
C    -2.0860487   -0.9266215   -1.0550197 
C    -1.7680684    0.3403130   -1.8699376 
C    -2.0265328    1.6060409    1.9414992 
C    -3.9576243    0.0969695    1.3205608 
C    -2.6810252   -3.2031947    1.5473693 
C    -0.3512953   -3.4882171    0.5447589 
C    -0.6777069    3.0284152   -3.4606546 
C    -0.3197725    3.4771646   -0.9917855 
C     2.4072088   -0.0029807   -3.1648168 
C     0.3323593   -1.3778613   -3.7099790 
C    -2.9078028    2.3171986    2.9836364 
C    -4.8433770    0.7979355    2.3688220 
C    -2.5516243   -4.5974712    2.1922520 
C    -0.2470488   -4.8813489    1.1898204 
C    -0.4812798    4.5283926   -3.7562181 
C    -0.1329363    4.9770250   -1.2848897 
C     2.9133544   -1.1525629   -2.2782447 
C     0.8386839   -2.4903395   -2.7828165 
C    -4.3958827    2.2493739    2.6041345 
C    -1.6327112   -5.5185698    1.3753587 
C    -0.8881749    5.3978500   -2.5558808 
C     2.3720908   -2.5165154   -2.7290241 
H    -2.3673597   -0.3798692    2.7199317 
H    -0.8340500   -2.4027815    2.3452752 
H     1.1903602    2.7901161   -2.3790283 
H     0.5969611    0.7246104   -4.1173678 
H    -3.1745760   -1.0856243   -0.9758162 
H    -1.6629942   -1.8214309   -1.5427961 
H    -2.3076225    1.2083728   -1.4482934 
H    -2.0969859    0.2350375   -2.9189733 
H    -2.0975118    2.1375926    0.9737387 
H    -0.9648892    1.6474915    2.2405801 
H    -4.3016995   -0.9396499    1.1662476 
H    -4.0691491    0.6201139    0.3505769 
H    -3.1921213   -3.2962418    0.5688396 
H    -3.3141485   -2.5632028    2.1856909 
H     0.6481447   -3.0221544    0.4610694 
H    -0.7420066   -3.6056398   -0.4839691 
H    -1.7552166    2.8288696   -3.3014721 
H    -0.3680402    2.4330186   -4.3380017 
H     0.2420860    3.1790094   -0.0883842 
H    -1.3887552    3.2868497   -0.7721797 
H     2.7804373    0.9649295   -2.7836494 
H     2.8293437   -0.1180456   -4.1817285 
H     0.6878535   -1.5771427   -4.7396997 
H    -0.7710628   -1.3798902   -3.7702876 
H    -2.5818740    3.3672914    3.0921610 
H    -2.7560785    1.8350248    3.9698754 
H    -4.7896513    0.2335960    3.3205359 
H    -5.8977440    0.7651168    2.0412768 
H    -3.5554660   -5.0451062    2.3024850 
H    -2.1391427   -4.4795280    3.2134267 
H     0.2456650   -4.7827114    2.1745961 
H     0.4000477   -5.5263800    0.5685280 
H    -1.0640789    4.8069984   -4.6521301 
H     0.5837138    4.7099579   -4.0006641 
H     0.9468742    5.1892313   -1.4134038 
H    -0.4705972    5.5706110   -0.4165532 
H     2.5908292   -0.9664889   -1.2309813 
H     4.0160391   -1.1498326   -2.2751935 
H     0.4350718   -3.4667433   -3.1050494 
H     0.4611844   -2.3088178   -1.7590476 
H    -5.0142152    2.7189773    3.3893279 
H    -4.5620388    2.8355010    1.6784277 
H    -1.5388087   -6.5013806    1.8703806 
H    -2.0893722   -5.7065329    0.3833068 
H    -0.7046792    6.4644610   -2.7751423 
H    -1.9777548    5.2938226   -2.3830182 
H     2.7183789   -3.3111213   -2.0436712 
H     2.7728695   -2.7651282   -3.7312633 
