102
Energy =
C     2.7396211   -1.1348558    0.8116633 
C     2.8721934   -0.7838578   -0.5518468 
C     2.6406774    0.5633698   -0.9784746 
H     2.9774040   -1.5753835   -1.3047969 
Pd    0.8255439   -0.2135052    0.0102889 
P    -0.9139361    1.3685647   -0.2105854 
P    -1.0676915   -1.1871752    0.9947236 
H     2.8496389   -0.3194181    1.5439229 
H     2.9237047    1.3661166   -0.2818632 
C     2.9625034   -5.0323555    2.6186593 
C     3.0700425   -3.8702457    3.3968842 
C     3.0009657   -2.6107856    2.7892254 
C     2.8342740   -2.4850260    1.3903690 
C     2.7542884   -3.6659979    0.6164587 
C     2.8093880   -4.9232097    1.2254048 
H     3.0092398   -6.0186500    3.0912266 
H     3.2062348   -3.9454854    4.4805433 
H     3.0780997   -1.7062185    3.4031708 
H     2.6394410   -3.6031342   -0.4689249 
H     2.7391478   -5.8263854    0.6103330 
C     2.2459715    1.7857173   -5.0919352 
C     1.9992337    0.4498601   -4.7321906 
C     2.1377487    0.0409758   -3.4020537 
C     2.5346153    0.9571001   -2.3984610 
C     2.7914358    2.2930949   -2.7782127 
C     2.6448766    2.7042275   -4.1090562 
H     2.1315934    2.1059883   -6.1324772 
H     1.6868817   -0.2737727   -5.4924853 
H     1.9047706   -0.9952611   -3.1340761 
H     3.1132199    3.0151986   -2.0193324 
H     2.8497442    3.7447909   -4.3816194 
C    -0.5585798    2.9702745    0.6883136 
C    -1.8787982    1.7749942   -1.7591389 
C    -1.2280992   -1.7421942    2.7776169 
C    -1.9271329   -2.5216081   -0.0299180 
C    -2.0961932    0.3810382    0.8665355 
C     0.0782705    2.6989444    2.0690679 
C     0.3611171    3.8626626   -0.1765982 
C    -2.9239102    2.8966041   -1.5757542 
C    -0.9704693    2.0204029   -2.9825039 
C    -0.7438636   -3.1911603    3.0085833 
C    -0.4671831   -0.7546352    3.6905365 
C    -2.6431782   -2.0173615   -1.3045825 
C    -0.9397593   -3.6671992   -0.3890491 
C     0.4665638    4.0048993    2.7852849 
C     0.7506356    5.1592303    0.5561410 
C    -3.7607809    3.0551760   -2.8612200 
C    -1.8192628    2.1908582   -4.2538653 
C    -0.8321156   -3.5804472    4.4969134 
C    -0.5676227   -1.1573763    5.1725790 
C    -1.6839815   -1.6838939   -2.4592672 
C    -0.0182817   -3.3316330   -1.5719857 
C     1.3965723    4.8668728    1.9183965 
C    -2.8666929    3.3046402   -4.0879709 
C    -0.0724121   -2.5936849    5.3959618 
C    -0.8010329   -2.8866030   -2.8127457 
H    -1.5331207    3.4767738    0.8335888 
H    -2.4303438    0.8335657   -1.9429424 
H    -2.3132866   -1.6859582    3.0046180 
H    -2.6939363   -2.9118672    0.6668886 
H    -3.1066900    0.2542739    0.4407006 
H    -2.2015275    0.8420134    1.8637033 
H     0.9794060    2.0670606    1.9281506 
H    -0.6134346    2.1205598    2.7057960 
H    -0.1283570    4.1089227   -1.1338603 
H     1.2730181    3.2883373   -0.4278720 
H    -2.4104746    3.8525170   -1.3599971 
H    -3.5823081    2.6815327   -0.7131399 
H    -0.2584885    1.1864244   -3.0996800 
H    -0.3593497    2.9272346   -2.8262070 
H     0.3043734   -3.2839958    2.6671910 
H    -1.3468790   -3.8986972    2.4142189 
H    -0.8534971    0.2712499    3.5585907 
H     0.5944568   -0.7348213    3.3760769 
H    -3.3048320   -1.1620849   -1.0775309 
H    -3.3182700   -2.8318458   -1.6314630 
H    -1.5534817   -4.5518271   -0.6471563 
H    -0.3283925   -3.9550642    0.4818846 
H     0.9434955    3.7640832    3.7521809 
H    -0.4524538    4.5770088    3.0191981 
H    -0.1559735    5.7778412    0.7040863 
H     1.4332018    5.7479151   -0.0825333 
H    -4.4830733    3.8808606   -2.7316386 
H    -4.3563080    2.1344979   -3.0199746 
H    -2.3315916    1.2335280   -4.4769513 
H    -1.1555012    2.4015392   -5.1112454 
H    -0.4375522   -4.6043844    4.6239710 
H    -1.8966005   -3.6098636    4.8018166 
H    -1.6225224   -1.0747477    5.4999683 
H     0.0105761   -0.4439121    5.7867987 
H    -1.0172882   -0.8473945   -2.1651241 
H    -2.2606104   -1.3396816   -3.3363384 
H     0.6197551   -4.2045716   -1.7963462 
H     0.6590852   -2.5045305   -1.2677159 
H     1.6421117    5.8094420    2.4384405 
H     2.3546445    4.3312228    1.7634167 
H    -3.4865164    3.3884859   -4.9981493 
H    -2.3484788    4.2767217   -3.9683265 
H    -0.1846893   -2.8777635    6.4571750 
H     1.0083265   -2.6466675    5.1632822 
H    -1.4315971   -3.7201532   -3.1788540 
H    -0.1097057   -2.6268626   -3.6345087 
