102
Energy =
C     2.5930086   -1.5567964    0.0768059 
C     2.8418954   -0.5693623   -0.9264148 
C     2.8765780    0.8038526   -0.5968149 
H     2.8279790   -0.8658818   -1.9828772 
Pd    0.8899884   -0.1324782    0.0050072 
P    -0.9115803    1.3665070   -0.3114305 
P    -0.9094939   -1.0628237    1.2026423 
H     2.9820578   -1.3523824    1.0846705 
H     3.0438512    1.0606654    0.4614942 
C     1.8340885   -5.7145190   -0.7782243 
C     2.3946278   -5.3297010    0.4486213 
C     2.6497168   -3.9778892    0.7142974 
C     2.3402436   -2.9789379   -0.2366453 
C     1.7787815   -3.3844269   -1.4714059 
C     1.5345798   -4.7346848   -1.7401466 
H     1.6375463   -6.7707886   -0.9882325 
H     2.6458547   -6.0865846    1.1990130 
H     3.1107914   -3.6913966    1.6652312 
H     1.5133268   -2.6319819   -2.2225992 
H     1.0989249   -5.0257593   -2.7016308 
C     3.4018782    4.1253935   -3.2769771 
C     3.1147545    4.3362774   -1.9186137 
C     2.9586603    3.2445012   -1.0585636 
C     3.0708671    1.9174110   -1.5380111 
C     3.3742226    1.7216756   -2.9049293 
C     3.5383233    2.8152103   -3.7626338 
H     3.5312464    4.9777985   -3.9514806 
H     3.0213389    5.3550319   -1.5282292 
H     2.7426038    3.4141908    0.0019630 
H     3.4962742    0.7089792   -3.3013584 
H     3.7785889    2.6445853   -4.8170323 
C    -0.8327727    3.1023236    0.3636795 
C    -1.8343226    1.5533055   -1.9545339 
C    -0.9886919   -1.0834195    3.0880042 
C    -1.5937657   -2.7244174    0.7034508 
C    -2.0958850    0.3110399    0.7115119 
C    -2.2019993    3.7818568    0.5766777 
C     0.0497284    3.2300661    1.6204695 
C    -1.3828396    2.7574945   -2.8089717 
C    -1.7575561    0.2583722   -2.7947644 
C    -0.2763725   -2.3047731    3.7126455 
C    -0.4497740    0.2145086    3.7252373 
C    -2.9057359   -3.1391870    1.4046581 
C    -1.7342133   -2.8548905   -0.8258797 
C    -2.0130849    5.2609948    0.9696592 
C     0.2486747    4.7104502    1.9901343 
C     0.0096477    2.5484472   -3.4196314 
C    -0.3698741    0.0408206   -3.4205094 
C     1.2516757   -2.1973622    3.6036781 
C     1.0779328    0.3372238    3.6142274 
C    -3.3026160   -4.5740895    1.0007253 
C    -2.1053718   -4.2950700   -1.2183009 
C    -1.1030017    5.4143323    2.1995401 
C     0.0674385    1.2573827   -4.2519658 
C     1.7823674   -0.8899141    4.2156374 
C    -3.4039190   -4.7375365   -0.5243590 
H    -0.2994628    3.6241380   -0.4573881 
H    -2.8808337    1.7120507   -1.6288960 
H    -2.0760381   -1.1526764    3.2833885 
H    -0.7768910   -3.4062870    1.0194783 
H    -2.9410367   -0.0580408    0.1028615 
H    -2.5151603    0.8434257    1.5835664 
H    -2.7463992    3.2528052    1.3836024 
H    -2.8277845    3.7108213   -0.3305929 
H     1.0184744    2.7249662    1.4581185 
H    -0.4393406    2.7139005    2.4659440 
H    -1.4284039    3.7008680   -2.2377418 
H    -2.1283639    2.8614921   -3.6217282 
H    -2.5124691    0.3461335   -3.5998999 
H    -2.0499607   -0.6153767   -2.1917250 
H    -0.6307814   -3.2514576    3.2691449 
H    -0.5715773   -2.3364519    4.7795028 
H    -0.7388015    0.1961447    4.7939010 
H    -0.9486496    1.0992263    3.2931812 
H    -3.7092323   -2.4341733    1.1121264 
H    -2.8116133   -3.0809703    2.5025960 
H    -0.8007182   -2.5369885   -1.3218669 
H    -2.5393532   -2.1772589   -1.1699022 
H    -2.9987009    5.7228940    1.1570444 
H    -1.5677048    5.8021696    0.1118633 
H     0.8081227    5.2143928    1.1767810 
H     0.8712244    4.7881856    2.8994562 
H     0.7614255    2.4953498   -2.6088245 
H     0.2858389    3.4201817   -4.0375258 
H    -0.3809664   -0.8755296   -4.0378312 
H     0.3657428   -0.1333229   -2.6056316 
H     1.5264394   -2.2415274    2.5344422 
H     1.7233716   -3.0708907    4.0870106 
H     1.4175321    1.2658080    4.1064333 
H     1.3521692    0.4295998    2.5405115 
H    -4.2592699   -4.8404003    1.4844498 
H    -2.5414837   -5.2752675    1.3955892 
H    -1.2753944   -4.9686437   -0.9311566 
H    -2.2070849   -4.3652718   -2.3162622 
H    -0.9475529    6.4837277    2.4266667 
H    -1.6066800    4.9743816    3.0830760 
H    -0.6021140    1.3580015   -5.1287609 
H     1.0867396    1.1065754   -4.6478665 
H     1.6153304   -0.9051276    5.3103748 
H     2.8750505   -0.8145776    4.0674833 
H    -3.6386747   -5.7860630   -0.7792965 
H    -4.2461567   -4.1245804   -0.9022122 
