102
Energy =
C     2.5980747   -1.8826469   -0.0405891 
C     2.7243073   -1.0728918   -1.1950178 
C     2.7330058    0.3473345   -1.0809684 
H     2.6499594   -1.5325956   -2.1878396 
Pd    0.8413391   -0.4230552   -0.2452002 
P    -0.6016377    1.4118311   -0.3136082 
P    -1.0739026   -1.0694913    1.0215984 
H     2.9086578   -1.4324985    0.9143810 
H     3.1029912    0.7623702   -0.1308021 
C     2.3192708   -6.1729032    0.1039667 
C     2.5218217   -5.4251683    1.2740870 
C     2.6132157   -4.0304396    1.2077276 
C     2.4983449   -3.3497539   -0.0274538 
C     2.2922352   -4.1181834   -1.1975424 
C     2.2085187   -5.5124706   -1.1309473 
H     2.2520051   -7.2644750    0.1517502 
H     2.6165674   -5.9316240    2.2401448 
H     2.7823912   -3.4529546    2.1239161 
H     2.1883185   -3.6246310   -2.1691266 
H     2.0530286   -6.0900236   -2.0480504 
C     2.8591733    3.1899980   -4.3152745 
C     2.5127083    1.8540646   -4.5793955 
C     2.4611571    0.9172156   -3.5413288 
C     2.7687149    1.2938419   -2.2134974 
C     3.1204819    2.6404783   -1.9635653 
C     3.1628011    3.5794077   -3.0015633 
H     2.8956060    3.9203234   -5.1297896 
H     2.2784995    1.5422111   -5.6024415 
H     2.1699928   -0.1139064   -3.7669935 
H     3.3665107    2.9479176   -0.9403442 
H     3.4399464    4.6165889   -2.7865520 
C    -0.1111849    2.9630694    0.5915474 
C    -1.3863338    1.9511466   -1.9227229 
C    -0.8257227   -1.2536114    2.8777448 
C    -2.4210222   -2.3410029    0.6377237 
C    -1.9343483    0.5747914    0.7009534 
C    -1.2835949    3.9419921    0.8225426 
C     0.6134520    2.6367827    1.9141367 
C    -0.5594276    3.0482818   -2.6297211 
C    -1.5712545    0.7261278   -2.8458505 
C     0.6254429   -0.9601371    3.3135127 
C    -1.8462213   -0.4860957    3.7433271 
C    -2.8486182   -2.3004612   -0.8466953 
C    -2.0387996   -3.7872940    1.0257389 
C    -0.7958707    5.2214799    1.5305717 
C     1.0932963    3.9204438    2.6148532 
C    -1.1860543    3.4323388   -3.9830193 
C    -2.2028979    1.1232520   -4.1912065 
C     0.8200731   -1.2589135    4.8111661 
C    -1.6387798   -0.8017525    5.2376413 
C    -1.7750949   -2.8793671   -1.7839832 
C    -0.9706405   -4.3791704    0.0956950 
C    -0.0700244    4.8987374    2.8466358 
C    -1.3744710    2.2095362   -4.8939160 
C    -0.1971893   -0.4969740    5.6766313 
C    -1.4034782   -4.3147376   -1.3774342 
H     0.6238850    3.4327174   -0.0923688 
H    -2.3823246    2.3589261   -1.6539675 
H    -0.9989402   -2.3358016    3.0330074 
H    -3.2634836   -2.0005898    1.2723002 
H    -2.8633361    0.4377310    0.1201215 
H    -2.1922774    1.1269720    1.6201026 
H    -2.0510267    3.4487216    1.4512485 
H    -1.7731572    4.2011392   -0.1327832 
H     1.4616943    1.9545925    1.7199268 
H    -0.0823155    2.0985138    2.5874756 
H     0.4665553    2.6757665   -2.7948647 
H    -0.4773103    3.9479171   -1.9958977 
H    -2.1895609   -0.0401530   -2.3491124 
H    -0.5777629    0.2674015   -3.0189854 
H     0.8655680    0.0995173    3.1109209 
H     1.3203298   -1.5651311    2.7058592 
H    -2.8810309   -0.7281682    3.4383097 
H    -1.7108326    0.6029565    3.5929419 
H    -3.1298324   -1.2764702   -1.1520370 
H    -3.7736209   -2.9020903   -0.9355364 
H    -2.9665642   -4.3884368    0.9584784 
H    -1.7165334   -3.8515091    2.0804753 
H    -1.6549296    5.8908304    1.7144003 
H    -0.1085614    5.7658581    0.8538931 
H     1.8653101    4.4064086    1.9864112 
H     1.5805896    3.6608525    3.5716619 
H    -0.5439202    4.1854014   -4.4740004 
H    -2.1672144    3.9158780   -3.8070280 
H    -3.2311193    1.4962264   -4.0152687 
H    -2.2967994    0.2275888   -4.8312408 
H     1.8527161   -1.0041563    5.1100452 
H     0.7012377   -2.3476724    4.9792855 
H    -1.8621326   -1.8714816    5.4168934 
H    -2.3604090   -0.2220608    5.8403760 
H    -0.8682128   -2.2399370   -1.7422606 
H    -2.1366905   -2.8470390   -2.8272935 
H    -0.7512336   -5.4199646    0.3896444 
H    -0.0264633   -3.8178161    0.2233548 
H     0.2988200    5.8269919    3.3172728 
H    -0.7890747    4.4475866    3.5592102 
H    -1.8566638    2.5083532   -5.8414355 
H    -0.3810684    1.7967351   -5.1554645 
H    -0.0605787   -0.7522379    6.7422185 
H    -0.0110044    0.5920229    5.5861598 
H    -2.2793268   -4.9749962   -1.5330606 
H    -0.5967336   -4.7002268   -2.0249422 
