102
Energy =
C     2.8947457   -1.6134585    0.3973378 
C     3.0390772   -0.7462266   -0.7119189 
C     3.0111366    0.6706444   -0.5532705 
H     2.9921274   -1.1709989   -1.7218737 
Pd    1.1161692   -0.1492340    0.1893495 
P    -0.3873493    1.5680881   -0.2502221 
P    -0.9883658   -0.9031175    0.9713812 
H     3.1757984   -1.2204560    1.3864750 
H     3.3637798    1.0742567    0.4083437 
C     2.5993942   -5.9060035    0.2397801 
C     2.3893646   -5.1515896   -0.9274035 
C     2.4853368   -3.7573327   -0.8935262 
C     2.8001452   -3.0803245    0.3097000 
C     3.0240736   -3.8555400    1.4707902 
C     2.9207250   -5.2515716    1.4380285 
H     2.5203019   -6.9975114    0.2112769 
H     2.1436969   -5.6551631   -1.8681808 
H     2.2963265   -3.1887155   -1.8103560 
H     3.2897873   -3.3529730    2.4074108 
H     3.0993128   -5.8309259    2.3498014 
C     2.7498222    3.6030780   -3.7068514 
C     2.9449261    3.9939777   -2.3725274 
C     3.0633312    3.0272903   -1.3667713 
C     2.9691718    1.6473101   -1.6636870 
C     2.7873335    1.2694488   -3.0140665 
C     2.6858310    2.2359611   -4.0219808 
H     2.6642568    4.3560497   -4.4967589 
H     3.0177242    5.0561649   -2.1162832 
H     3.2286587    3.3427416   -0.3306139 
H     2.7167307    0.2117152   -3.2863274 
H     2.5556640    1.9200971   -5.0622574 
C    -0.2219253    3.2484093    0.5574283 
C    -0.6508760    1.8712115   -2.0672708 
C    -1.4370041   -1.0241484    2.7943743 
C    -1.8222529   -2.2852664    0.0403491 
C    -1.8814584    0.6587903    0.4170086 
C    -1.5506849    3.8779618    1.0312547 
C     0.8100175    3.2392263    1.7071139 
C    -0.7974024    0.5292804   -2.8191474 
C    -1.7985177    2.8446857   -2.4085244 
C    -1.0511119   -2.3758046    3.4327312 
C    -0.7894648    0.1330080    3.5937247 
C    -0.9798237   -3.5789818    0.0446216 
C    -3.2899272   -2.5473224    0.4365148 
C    -1.3101864    5.3097407    1.5494084 
C     1.0534083    4.6669030    2.2269911 
C    -0.9096628    0.7523828   -4.3374645 
C    -1.9015395    3.0484506   -3.9335533 
C     0.4722662   -2.5488056    3.5218403 
C     0.7352712   -0.0239768    3.7341594 
C    -1.6123168   -4.6339047   -0.8792141 
C    -3.9083086   -3.6149748   -0.4889883 
C    -0.2594848    5.3335245    2.6718733 
C    -2.0602604    1.7132336   -4.6776069 
C     1.1211318   -1.3974110    4.3093804 
C    -3.0762108   -4.9092688   -0.4952821 
H     0.1921750    3.8645226   -0.2667815 
H     0.3094786    2.3324437   -2.3742975 
H    -2.5378141   -0.9084829    2.8049715 
H    -1.8062406   -1.8902921   -0.9968719 
H    -2.6396337    0.4595969   -0.3608365 
H    -2.3782972    1.1878629    1.2472788 
H    -1.9660754    3.2652762    1.8553933 
H    -2.3034533    3.8805466    0.2243455 
H     1.7533297    2.7773870    1.3687071 
H     0.4307787    2.6061696    2.5306908 
H    -1.7094769    0.0068885   -2.4667844 
H     0.0603299   -0.1276935   -2.5789158 
H    -1.6375929    3.8196008   -1.9163599 
H    -2.7558568    2.4397957   -2.0240202 
H    -1.5132057   -3.2173793    2.8892746 
H    -1.4869956   -2.3905280    4.4507009 
H    -1.2527814    0.1326721    4.5989846 
H    -1.0382564    1.1133459    3.1459660 
H    -0.9181992   -3.9874977    1.0697522 
H     0.0546646   -3.3563362   -0.2652534 
H    -3.8821501   -1.6138973    0.3932835 
H    -3.3311312   -2.9055457    1.4826501 
H    -2.2646668    5.7387218    1.9027264 
H    -0.9695360    5.9441530    0.7077589 
H     1.5188579    5.2680467    1.4207009 
H     1.7772374    4.6416917    3.0610923 
H    -1.0488872   -0.2187271   -4.8454587 
H     0.0440103    1.1748384   -4.7063440 
H    -0.9837760    3.5585933   -4.2858057 
H    -2.7473587    3.7224423   -4.1576837 
H     0.8906968   -2.5822740    2.4975424 
H     0.7146205   -3.5199738    3.9877134 
H     1.1359340    0.7890013    4.3656286 
H     1.2035223    0.0999385    2.7320237 
H    -1.0153437   -5.5624742   -0.8390889 
H    -1.5670664   -4.2721618   -1.9259151 
H    -3.9650891   -3.2091536   -1.5183503 
H    -4.9461531   -3.8220634   -0.1727096 
H    -0.0710283    6.3721289    2.9959916 
H    -0.6586555    4.7950038    3.5542277 
H    -2.1041256    1.8865266   -5.7673516 
H    -3.0245111    1.2468177   -4.3930743 
H     0.7953457   -1.4530368    5.3664422 
H     2.2209168   -1.5085808    4.3162946 
H    -3.5237161   -5.6437524   -1.1880501 
H    -3.1075334   -5.3667870    0.5132909 
