102
Energy =
C     2.7481611   -1.5808643    0.1633170 
C     2.8765234   -0.6335760   -0.8835311 
C     2.8409337    0.7640559   -0.6379626 
H     2.8476461   -0.9898551   -1.9202540 
Pd    0.9470722   -0.1821869    0.0964512 
P    -0.7665954    1.4067708   -0.1096615 
P    -0.9836559   -1.1547132    1.0808577 
H     3.0665773   -1.2705668    1.1699681 
H     3.1378881    1.1058008    0.3656114 
C     2.5523077   -5.8452893   -0.4158874 
C     2.2336579   -4.9818178   -1.4780589 
C     2.2927356   -3.5961873   -1.3021550 
C     2.6829904   -3.0370930   -0.0607385 
C     3.0155523   -3.9195401    0.9919851 
C     2.9453666   -5.3076843    0.8185690 
H     2.4992306   -6.9300574   -0.5534279 
H     1.9264126   -5.3931162   -2.4450854 
H     2.0068241   -2.9415408   -2.1324726 
H     3.3423581   -3.5097507    1.9535696 
H     3.2081010   -5.9722040    1.6481549 
C     3.0679879    3.8453138   -3.6428312 
C     3.2423164    4.1504641   -2.2841890 
C     3.1758406    3.1357918   -1.3220687 
C     2.9154176    1.7961582   -1.6908422 
C     2.7481031    1.5037370   -3.0651289 
C     2.8318789    2.5151579   -4.0280340 
H     3.1260237    4.6353186   -4.3983114 
H     3.4416299    5.1814075   -1.9739516 
H     3.3304005    3.3797770   -0.2656367 
H     2.5421593    0.4788252   -3.3899780 
H     2.7081381    2.2664542   -5.0870228 
C    -0.8233713    2.8953327    1.0121344 
C    -1.3426496    1.8781344   -1.8215669 
C    -1.2267642   -1.2140769    2.9501752 
C    -1.7795466   -2.6699037    0.3356479 
C    -2.0953874    0.2634480    0.5544847 
C     0.4871594    3.7099478    0.9886443 
C    -2.0750697    3.7791878    0.8224469 
C    -0.5461190    3.0604349   -2.4155104 
C    -1.2583760    0.6378205   -2.7423143 
C    -0.5657168   -2.4381828    3.6198181 
C    -0.7168601    0.0753267    3.6350321 
C    -0.8638607   -3.9117968    0.3601921 
C    -3.1855176   -2.9888324    0.8861193 
C     0.4359224    4.8442982    2.0279590 
C    -2.0973547    4.9099326    1.8695552 
C    -1.0066688    3.3753270   -3.8509804 
C    -1.7348802    0.9681027   -4.1678619 
C     0.9670867   -2.3540204    3.5660631 
C     0.8163627    0.1924521    3.6105700 
C    -1.5038113   -5.0629027   -0.4352116 
C    -3.8172434   -4.1498243    0.0909848 
C    -0.8010523    5.7363179    1.8297727 
C    -0.9363711    2.1392610   -4.7610711 
C     1.4882293   -1.0560541    4.2088459 
C    -2.9113553   -5.3935110    0.0893667 
H    -0.8887287    2.4256815    2.0137849 
H    -2.4057517    2.1740510   -1.7081376 
H    -2.3259053   -1.2762771    3.0631032 
H    -1.8807647   -2.3585208   -0.7256519 
H    -2.7832156   -0.0580455   -0.2469556 
H    -2.6990497    0.7014421    1.3688295 
H     0.6526630    4.1353815   -0.0177163 
H     1.3380902    3.0351239    1.1912020 
H    -2.9951562    3.1697881    0.8956846 
H    -2.0657914    4.2234542   -0.1901365 
H     0.5283414    2.8086689   -2.4192697 
H    -0.6631393    3.9590303   -1.7866186 
H    -1.8516259   -0.1995912   -2.3291039 
H    -0.2045502    0.2953111   -2.7689399 
H    -0.9246108   -3.3799778    3.1723200 
H    -0.9013894   -2.4506305    4.6751058 
H    -1.0645968    0.0410648    4.6855300 
H    -1.1864968    0.9732076    3.1947635 
H    -0.7032829   -4.2410228    1.4026143 
H     0.1269282   -3.6608500   -0.0486996 
H    -3.8391455   -2.0973839    0.8449611 
H    -3.1036387   -3.2804805    1.9506795 
H     1.3613007    5.4447331    1.9678988 
H     0.4105179    4.4023285    3.0439864 
H    -2.2216652    4.4681132    2.8779133 
H    -2.9763429    5.5558842    1.6962499 
H    -0.3814203    4.1902947   -4.2576302 
H    -2.0474309    3.7541066   -3.8250711 
H    -2.8112325    1.2280227   -4.1403025 
H    -1.6422911    0.0703648   -4.8051600 
H     1.2843920   -2.4004599    2.5072000 
H     1.4098522   -3.2341827    4.0644139 
H     1.1312102    1.1021412    4.1525092 
H     1.1513848    0.3244628    2.5560467 
H    -0.8479124   -5.9501900   -0.3854855 
H    -1.5637164   -4.7740300   -1.5034752 
H    -3.9903967   -3.8184657   -0.9519255 
H    -4.8082257   -4.3915135    0.5148261 
H    -0.8296851    6.5261558    2.6008844 
H    -0.7269136    6.2520728    0.8518381 
H    -1.3104810    2.3856509   -5.7704531 
H     0.1211775    1.8344540   -4.8770775 
H     1.2867535   -1.0864676    5.2974261 
H     2.5858529   -0.9873554    4.0975065 
H    -3.3697421   -6.1950244   -0.5165387 
H    -2.8309369   -5.7857294    1.1225200 
