102
Energy =
C     2.6813222   -1.6251869    0.6433042 
C     2.9490015   -0.5870815   -0.2879880 
C     2.9117540    0.7755210    0.1165485 
H     3.0265654   -0.8252452   -1.3563135 
Pd    0.9390910   -0.1536512    0.4856379 
P    -0.6460268    1.4543352   -0.1203859 
P    -1.1705316   -0.9915709    1.2111513 
H     2.9130678   -1.4214760    1.6993314 
H     3.1304320    0.9842480    1.1756356 
C     2.3016699   -5.8000904   -0.3411516 
C     2.5804491   -5.3974799    0.9732164 
C     2.7152690   -4.0371985    1.2788333 
C     2.5622387   -3.0479460    0.2801774 
C     2.2844994   -3.4717387   -1.0415922 
C     2.1620383   -4.8296046   -1.3483483 
H     2.1992635   -6.8628991   -0.5826301 
H     2.7039313   -6.1462557    1.7624971 
H     2.9517995   -3.7331416    2.3040024 
H     2.1394193   -2.7307185   -1.8351083 
H     1.9477547   -5.1358815   -2.3775951 
C     3.3956182    4.2073024   -2.4396277 
C     2.8905445    3.0082619   -2.9730372 
C     2.7362209    1.8827174   -2.1576702 
C     3.0788344    1.9319435   -0.7861732 
C     3.5849483    3.1430264   -0.2636975 
C     3.7472938    4.2682226   -1.0832531 
H     3.5150200    5.0868151   -3.0802846 
H     2.6142584    2.9537039   -4.0313664 
H     2.3262734    0.9611627   -2.5845867 
H     3.8549216    3.1989125    0.7968846 
H     4.1450679    5.1960418   -0.6596503 
C    -0.6836474    3.2376234    0.4439243 
C    -0.9576382    1.4454158   -1.9586195 
C    -1.5192487   -1.1158870    3.0618373 
C    -2.0353576   -2.5125588    0.5111063 
C    -2.0859299    0.5618962    0.6770463 
C    -0.0211453    3.3309847    1.8385178 
C     0.0117798    4.1767489   -0.5679755 
C    -0.7428298    0.0426064   -2.5678205 
C    -2.3264343    2.0309001   -2.3667011 
C    -0.9410764   -2.4127090    3.6760321 
C    -1.0076906    0.1081747    3.8523964 
C    -3.2526088   -2.2256442   -0.3916049 
C    -0.9923719   -3.4073761   -0.1914439 
C     0.0399226    4.7814307    2.3471628 
C     0.0867599    5.6205521   -0.0379318 
C    -0.8909553    0.0811056   -4.0987025 
C    -2.4677297    2.0608318   -3.9014176 
C     0.5919475   -2.3792883    3.7674081 
C     0.5261138    0.1572455    3.9397004 
C    -3.8712252   -3.5413810   -0.9035761 
C    -1.6270122   -4.7040562   -0.7184570 
C     0.7612390    5.6905220    1.3405340 
C    -2.2501314    0.6679673   -4.5148062 
C     1.0981185   -1.1425440    4.5288176 
C    -2.8300230   -4.4102484   -1.6286381 
H    -1.7533858    3.5175558    0.5267532 
H    -0.1554236    2.1040661   -2.3454677 
H    -2.6259523   -1.1486445    3.1073985 
H    -2.4090548   -3.0475609    1.4058151 
H    -2.9323553    0.3847670   -0.0063910 
H    -2.4659550    1.1196973    1.5508206 
H     1.0047221    2.9195412    1.7635100 
H    -0.5619052    2.6962308    2.5627296 
H    -0.5229498    4.1696682   -1.5331527 
H     1.0340878    3.8071942   -0.7635646 
H    -1.4885143   -0.6582212   -2.1471518 
H     0.2492977   -0.3490466   -2.2740790 
H    -2.4600066    3.0457135   -1.9510195 
H    -3.1346717    1.4032650   -1.9426848 
H    -1.2727898   -3.3054760    3.1156848 
H    -1.3742363   -2.5104921    4.6902438 
H    -1.4289914    0.0350245    4.8735778 
H    -1.4053894    1.0488430    3.4312659 
H    -2.9389552   -1.6177822   -1.2621368 
H    -4.0120259   -1.6393963    0.1572298 
H    -0.1614968   -3.6370121    0.4989037 
H    -0.5442039   -2.8393359   -1.0292068 
H     0.5457704    4.8049224    3.3290542 
H    -0.9896184    5.1553884    2.5117581 
H    -0.9372148    6.0372979    0.0330546 
H     0.6325233    6.2425801   -0.7698195 
H    -0.7641308   -0.9361802   -4.5107736 
H    -0.0758299    0.7004377   -4.5231276 
H    -1.7234131    2.7679095   -4.3169279 
H    -3.4636952    2.4534276   -4.1729355 
H     1.0022731   -2.3747425    2.7408363 
H     0.9558080   -3.3046131    4.2476202 
H     0.8405903    1.0316207    4.5365728 
H     0.9399879    0.3133401    2.9155609 
H    -4.7213155   -3.3108949   -1.5703460 
H    -4.2859493   -4.1041370   -0.0445620 
H    -1.9573229   -5.3218406    0.1398439 
H    -0.8613119   -5.2934619   -1.2529253 
H     0.7778103    6.7322873    1.7064453 
H     1.8165309    5.3669946    1.2468831 
H    -2.3243337    0.7192352   -5.6153411 
H    -3.0580760   -0.0105038   -4.1751225 
H     0.7980317   -1.2202269    5.5920506 
H     2.2030731   -1.1128064    4.5184652 
H    -3.2936670   -5.3520704   -1.9713188 
H    -2.4811999   -3.8799228   -2.5375722 
