102
Energy =
C     2.7722486   -1.4935725    0.1751555 
C     2.8903448   -0.6279561   -0.9476472 
C     2.8920998    0.7817049   -0.7894799 
H     2.8045854   -1.0544383   -1.9546178 
Pd    1.0162334   -0.0946582    0.0777090 
P    -0.7692470    1.4241372   -0.1883315 
P    -0.8223591   -1.0749225    1.1687252 
H     3.1709425   -1.1294402    1.1342935 
H     3.2169086    1.1757274    0.1861949 
C     2.3378255   -5.7754758   -0.0581653 
C     2.9112658   -5.1752788    1.0722667 
C     3.0556218   -3.7832619    1.1333006 
C     2.6218954   -2.9589696    0.0698377 
C     2.0567789   -3.5813726   -1.0681317 
C     1.9191954   -4.9713844   -1.1322523 
H     2.2257162   -6.8633112   -0.1083950 
H     3.2571533   -5.7938169    1.9069113 
H     3.5249573   -3.3256767    2.0107790 
H     1.7113290   -2.9700773   -1.9087474 
H     1.4811122   -5.4320729   -2.0237176 
C     2.9407620    3.7240276   -3.9350073 
C     2.7897782    2.3653001   -4.2584175 
C     2.7728769    1.3951596   -3.2503508 
C     2.9192969    1.7613084   -1.8916862 
C     3.0909786    3.1310322   -1.5843800 
C     3.0938224    4.1024583   -2.5920710 
H     2.9492730    4.4805415   -4.7261438 
H     2.6817966    2.0610024   -5.3045501 
H     2.6388461    0.3446882   -3.5274224 
H     3.2238826    3.4327461   -0.5392548 
H     3.2252923    5.1574502   -2.3303740 
C    -0.8431922    3.0849267    0.6890696 
C    -1.3949120    1.7656367   -1.9225369 
C    -1.0203437   -1.0564368    3.0400844 
C    -1.4464940   -2.7380307    0.6089156 
C    -2.0190453    0.2449714    0.5807723 
C    -2.1404410    3.3486636    1.4809122 
C     0.4159368    3.3512095    1.5411981 
C    -0.5736067    2.8781238   -2.6131495 
C    -1.3615731    0.4679459   -2.7591338 
C    -0.3881667   -2.2863222    3.7288470 
C    -0.4626593    0.2449907    3.6607796 
C    -2.8118951   -3.1500002    1.2017222 
C    -1.4724817   -2.8304182   -0.9312831 
C    -2.1432375    4.7830911    2.0454002 
C     0.3955143    4.7809453    2.1100881 
C    -1.0372602    3.1057958   -4.0635411 
C    -1.8321346    0.7094823   -4.2042925 
C     1.1458125   -2.2400657    3.6903719 
C     1.0748863    0.2968057    3.6590275 
C    -3.1980210   -4.5682622    0.7345935 
C    -1.8386424   -4.2538243   -1.3852665 
C    -0.8948004    5.0512208    2.9023643 
C    -1.0023453    1.8080906   -4.8843368 
C     1.6891374   -0.9474223    4.3200662 
C    -3.1910764   -4.6901966   -0.7978055 
H    -0.8204177    3.7990713   -0.1554399 
H    -2.4467805    2.1006838   -1.8063881 
H    -2.1182027   -1.0807875    3.1791389 
H    -0.6600451   -3.4306056    0.9734002 
H    -2.7014316   -0.1505674   -0.1918302 
H    -2.6343929    0.6815468    1.3854370 
H    -2.2136596    2.6358170    2.3255063 
H    -3.0273508    3.1843399    0.8416128 
H     1.3198695    3.1856657    0.9290928 
H     0.4616419    2.6247713    2.3717039 
H     0.4920366    2.5902586   -2.6105932 
H    -0.6488294    3.8282251   -2.0561924 
H    -1.9855237   -0.3122693   -2.2907917 
H    -0.3219765    0.0817045   -2.7625101 
H    -0.7601355   -3.2281670    3.2893811 
H    -0.7336840   -2.2805937    4.7810182 
H    -0.8291310    0.2932818    4.7042558 
H    -0.8808919    1.1312659    3.1502104 
H    -3.5826317   -2.4268956    0.8680004 
H    -2.7963363   -3.1155079    2.3048161 
H    -0.4990519   -2.5163759   -1.3462908 
H    -2.2317906   -2.1265731   -1.3235937 
H    -3.0625426    4.9448657    2.6358963 
H    -2.1756316    5.5025967    1.2040143 
H     0.4717457    5.5040503    1.2739670 
H     1.2831769    4.9407745    2.7480872 
H    -0.3931668    3.8746605   -4.5265717 
H    -2.0680005    3.5116424   -4.0597549 
H    -2.8998032    1.0042778   -4.1938107 
H    -1.7710635   -0.2361548   -4.7725175 
H     1.4734518   -2.3042442    2.6361357 
H     1.5610343   -3.1263134    4.2012848 
H     1.4166703    1.2168707    4.1657591 
H     1.4309809    0.3669762    2.6072317 
H    -4.1909299   -4.8315172    1.1405780 
H    -2.4774682   -5.2913033    1.1644735 
H    -1.0443411   -4.9501254   -1.0542661 
H    -1.8623823   -4.2970488   -2.4891096 
H    -0.9049332    6.0908711    3.2742329 
H    -0.9183012    4.3958560    3.7959812 
H    -1.3725983    1.9915803   -5.9084653 
H     0.0464997    1.4664990   -4.9787620 
H     1.4522873   -0.9410649    5.4019760 
H     2.7910332   -0.9148254    4.2411091 
H    -3.4234844   -5.7272496   -1.0977449 
H    -3.9936898   -4.0524814   -1.2185653 
