102
Energy =
C     2.8286942   -1.0025247    0.6648266 
C     2.8797454   -0.6297653   -0.6985709 
C     2.5603818    0.7085775   -1.0952856 
H     2.9894571   -1.4064091   -1.4662321 
Pd    0.8360775   -0.1722819   -0.0334019 
P    -0.9897493    1.3217355   -0.1485805 
P    -0.9556074   -1.2528547    1.0267250 
H     2.9327473   -0.1910484    1.4022910 
H     2.8345278    1.5165549   -0.4011564 
C     3.3340386   -4.9033615    2.4068664 
C     3.1026359   -4.7872112    1.0250088 
C     2.9551671   -3.5278473    0.4361638 
C     3.0189940   -2.3525517    1.2200921 
C     3.2648522   -2.4846921    2.6066279 
C     3.4263552   -3.7456023    3.1934753 
H     3.4528584   -5.8911156    2.8634811 
H     3.0433555   -5.6862769    0.4027934 
H     2.7802815   -3.4592965   -0.6408544 
H     3.3304885   -1.5839920    3.2276386 
H     3.6229852   -3.8253616    4.2674935 
C     1.9110540    1.9582345   -5.1679715 
C     2.3067721    2.8845071   -4.1911023 
C     2.5361551    2.4654587   -2.8745053 
C     2.3674636    1.1131884   -2.5029436 
C     1.9721297    0.1898103   -3.5004273 
C     1.7508292    0.6070279   -4.8167126 
H     1.7320737    2.2845993   -6.1974470 
H     2.4443735    3.9376499   -4.4575294 
H     2.8549641    3.1942066   -2.1207156 
H     1.8065024   -0.8604961   -3.2373603 
H     1.4413735   -0.1226780   -5.5723832 
C    -0.6741563    2.9288672    0.7555533 
C    -2.0482974    1.6968617   -1.6430305 
C    -1.0013758   -1.8364784    2.8070582 
C    -1.7959725   -2.6169868    0.0258861 
C    -2.0667626    0.2623766    0.9700185 
C     0.0407753    2.6749187    2.1008617 
C     0.1557146    3.8787300   -0.1384582 
C    -3.1373772    2.7627636   -1.3945293 
C    -1.2133912    2.0003609   -2.9052507 
C    -0.4349567   -3.2616131    2.9948622 
C    -0.2478158   -0.8225404    3.6967672 
C    -2.5990625   -2.1350345   -1.2047251 
C    -0.7706370   -3.7059547   -0.3977130 
C     0.3938054    3.9909105    2.8170347 
C     0.5107828    5.1854357    0.5937944 
C    -4.0421278    2.8944640   -2.6362688 
C    -2.1300850    2.1440502   -4.1320202 
C    -0.4348245   -3.6720165    4.4802193 
C    -0.2582212   -1.2465550    5.1762776 
C    -1.7162609   -1.7384182   -2.3997631 
C     0.0726998   -3.3091226   -1.6194114 
C     1.2347810    4.9117465    1.9202257 
C    -3.2214742    3.2026785   -3.9004856 
C     0.3164667   -2.6590953    5.3569823 
C    -0.7921605   -2.8898693   -2.8137994 
H    -1.6654976    3.3820551    0.9538880 
H    -2.5612358    0.7312987   -1.8127915 
H    -2.0757706   -1.8376064    3.0859459 
H    -2.5065568   -3.0546606    0.7535426 
H    -3.0892038    0.0892360    0.5917149 
H    -2.1462652    0.7058710    1.9775152 
H     0.9659196    2.0933253    1.9087920 
H    -0.5888386    2.0533160    2.7608658 
H    -0.3906827    4.1098852   -1.0683268 
H     1.0835499    3.3565927   -0.4400650 
H    -2.6620069    3.7406014   -1.1900575 
H    -3.7419297    2.5049952   -0.5046733 
H    -0.4685302    1.2034756   -3.0681774 
H    -0.6396780    2.9338425   -2.7654704 
H     0.5995978   -3.2971605    2.6047361 
H    -1.0286419   -3.9918306    2.4187666 
H    -0.6897407    0.1843183    3.5969251 
H     0.7956629   -0.7465825    3.3334080 
H    -3.2914107   -1.3179658   -0.9330728 
H    -3.2470548   -2.9792848   -1.5102312 
H    -1.3506843   -4.6177947   -0.6382895 
H    -0.1029790   -3.9721210    0.4380539 
H     0.9284727    3.7640423    3.7567077 
H    -0.5417961    4.5103370    3.1025583 
H    -0.4190427    5.7532391    0.7925958 
H     1.1306564    5.8170297   -0.0674175 
H    -4.7971543    3.6814813   -2.4607718 
H    -4.5984006    1.9471422   -2.7796025 
H    -2.6053359    1.1653183   -4.3440181 
H    -1.5197573    2.3975496   -5.0169940 
H     0.0150945   -4.6764103    4.5750064 
H    -1.4813209   -3.7578821    4.8330809 
H    -1.2992479   -1.2198198    5.5534524 
H     0.3127601   -0.5123106    5.7724998 
H    -1.0788768   -0.8728093   -2.1259632 
H    -2.3521967   -1.4133375   -3.2424061 
H     0.7423709   -4.1452047   -1.8874698 
H     0.7213569   -2.4518391   -1.3366481 
H     1.4543243    5.8598242    2.4418529 
H     2.2115037    4.4300845    1.7131724 
H    -3.8877873    3.2665550   -4.7788844 
H    -2.7462811    4.1977540   -3.7916311 
H     0.2674802   -2.9604759    6.4182532 
H     1.3865646   -2.6558809    5.0744175 
H    -1.3970360   -3.7501390   -3.1608917 
H    -0.1564179   -2.5847172   -3.6642871 
