102
Energy =
C     2.8696424   -0.9132945    0.7820567 
C     2.9034169   -0.4009813   -0.5378334 
C     2.7879911    1.0023265   -0.7669076 
H     2.8585086   -1.0985475   -1.3835222 
Pd    0.9896291    0.2544911    0.3152529 
P    -0.7963524    1.7074904   -0.1415333 
P    -0.9524135   -0.8680590    1.1049079 
H     3.1790007   -0.2279943    1.5873156 
H     3.1720459    1.6649143    0.0230413 
C     2.9771239   -5.0600647    1.9241916 
C     3.4906634   -4.0683691    2.7720371 
C     3.4448311   -2.7220666    2.3878311 
C     2.8953854   -2.3411643    1.1431577 
C     2.3901309   -3.3537361    0.2941588 
C     2.4273099   -4.6961795    0.6824307 
H     3.0052921   -6.1119235    2.2259864 
H     3.9247661   -4.3427454    3.7388874 
H     3.8433659   -1.9508107    3.0562254 
H     1.9495135   -3.0866193   -0.6711039 
H     2.0253920   -5.4652692    0.0142484 
C     2.4209432    2.8748454   -4.6333344 
C     2.7763230    3.6268238   -3.5034679 
C     2.9040868    3.0046621   -2.2553893 
C     2.6639299    1.6192649   -2.1026521 
C     2.3084835    0.8753727   -3.2527324 
C     2.1969769    1.4939840   -4.5019492 
H     2.3291197    3.3572805   -5.6116761 
H     2.9701164    4.7005009   -3.5968225 
H     3.2069544    3.5962366   -1.3856056 
H     2.1144281   -0.1994554   -3.1729626 
H     1.9293161    0.8964269   -5.3794460 
C    -1.0749813    3.2910884    0.8394649 
C    -1.1852547    2.1878508   -1.9054881 
C    -1.5583174   -1.2668568    2.8551706 
C    -1.3503639   -2.4004965    0.1105396 
C    -2.0943312    0.4985676    0.4754880 
C    -0.9440273    3.1088794    2.3653859 
C    -0.1468988    4.4349891    0.3636138 
C    -1.2271798    0.9479962   -2.8210219 
C    -2.4602908    3.0426416   -2.0779763 
C    -1.3411013   -2.7360127    3.2895584 
C    -0.9182509   -0.3212239    3.8993306 
C    -2.8419380   -2.8036646    0.1218050 
C    -0.8330378   -2.3361356   -1.3403971 
C     0.5078962    2.8914637    2.8186125 
C     1.3054628    4.2362043    0.8264185 
C    -1.4261741    1.3494252   -4.2924480 
C    -2.6687552    3.4261790   -3.5569267 
C     0.1349390   -3.0663060    3.5516785 
C     0.5585158   -0.6529845    4.1742903 
C    -3.0320026   -4.1657532   -0.5761861 
C    -0.9978914   -3.7019869   -2.0299191 
C     1.4089177    4.0439323    2.3477378 
C    -2.6979840    2.1923698   -4.4716997 
C     0.7349272   -2.1181297    4.6012560 
C    -2.4672458   -4.1573600   -2.0065466 
H    -2.1251571    3.5480155    0.6053827 
H    -0.2975198    2.7862550   -2.1957371 
H    -2.6454824   -1.0667069    2.7983020 
H    -0.7613315   -3.1778550    0.6377501 
H    -2.7532468    0.1431822   -0.3360646 
H    -2.7346829    0.9220981    1.2695426 
H    -1.6009707    2.2950860    2.7199125 
H    -1.3347275    4.0322411    2.8349914 
H    -0.5462669    5.3736491    0.7939096 
H    -0.1880894    4.5577440   -0.7333379 
H    -2.0719614    0.3002207   -2.5150238 
H    -0.3018238    0.3602949   -2.6959959 
H    -2.4085698    3.9612806   -1.4688121 
H    -3.3354222    2.4649761   -1.7182031 
H    -1.7811328   -3.4435757    2.5675579 
H    -1.9146232   -2.8681799    4.2281225 
H    -1.4974347   -0.4282601    4.8368427 
H    -1.0257260    0.7301417    3.5901903 
H    -3.4287017   -2.0329884   -0.4155816 
H    -3.2421113   -2.8473429    1.1495519 
H     0.2198582   -2.0001724   -1.3589279 
H    -1.4120503   -1.5798641   -1.8978463 
H     0.8846334    1.9340554    2.3947388 
H     0.5481183    2.7839990    3.9170465 
H     1.9202842    5.0930491    0.4988046 
H     1.7126592    3.3401847    0.3240185 
H    -1.4667059    0.4407992   -4.9200374 
H    -0.5452986    1.9296007   -4.6258752 
H    -1.8430638    4.0949683   -3.8695701 
H    -3.6025272    4.0078755   -3.6556757 
H     0.7094091   -2.9796888    2.6086269 
H     0.2315547   -4.1174049    3.8751318 
H     0.9522213    0.0331113    4.9453436 
H     1.1490753   -0.4694125    3.2545522 
H    -4.1043527   -4.4301536   -0.5854976 
H    -2.5184070   -4.9453413    0.0199899 
H    -0.3679824   -4.4493132   -1.5076036 
H    -0.6278974   -3.6441064   -3.0693948 
H     1.1042329    4.9774852    2.8598259 
H     2.4580695    3.8543528    2.6376868 
H    -2.8089355    2.5015622   -5.5260301 
H    -3.5858817    1.5756880   -4.2279421 
H     0.2292627   -2.2811722    5.5733157 
H     1.8030662   -2.3474513    4.7573371 
H    -2.5665985   -5.1586202   -2.4615532 
H    -3.0683155   -3.4663234   -2.6302960 
