102
Energy =
C     2.5636477   -1.5784958   -0.0461800 
C     2.7663147   -0.6368031   -1.1013781 
C     2.8767401    0.7423845   -0.8265575 
H     2.6843401   -0.9693506   -2.1433536 
Pd    0.8777277   -0.1529792   -0.0494178 
P    -1.0042992    1.2921148   -0.1596656 
P    -0.8155570   -1.1972287    1.1774707 
H     3.0085223   -1.3260837    0.9267192 
H     3.1102937    1.0276037    0.2116018 
C     1.7854167   -5.7864935   -0.5856116 
C     2.2252887   -5.2911576    0.6512831 
C     2.4849396   -3.9240627    0.8102755 
C     2.2958937   -3.0162933   -0.2579837 
C     1.8461094   -3.5311705   -1.4966052 
C     1.6052341   -4.8994627   -1.6600113 
H     1.5917411   -6.8560594   -0.7153545 
H     2.3825632   -5.9747301    1.4921726 
H     2.8512780   -3.5519649    1.7724735 
H     1.6768362   -2.8564092   -2.3425562 
H     1.2689194   -5.2768712   -2.6311741 
C     3.4815107    3.9285636   -3.6495664 
C     3.3501111    2.6087739   -4.1117305 
C     3.1519155    1.5596915   -3.2086375 
C     3.0824999    1.8071499   -1.8172857 
C     3.2406856    3.1395433   -1.3667734 
C     3.4307467    4.1893061   -2.2712380 
H     3.6356099    4.7469583   -4.3600869 
H     3.4049078    2.3967333   -5.1844510 
H     3.0545327    0.5391520   -3.5918463 
H     3.2159700    3.3472478   -0.2916127 
H     3.5491579    5.2127681   -1.9007684 
C    -1.0112270    2.7698625    0.9795418 
C    -1.9734659    1.7422951   -1.7113412 
C    -0.8712776   -1.2266920    3.0578198 
C    -1.3437568   -2.8984189    0.6188984 
C    -2.1300229    0.0411815    0.6852310 
C     0.2132338    3.6815025    0.7494037 
C    -2.3352811    3.5600778    1.0308747 
C    -1.4460421    2.9913593   -2.4514755 
C    -2.0603280    0.5404938   -2.6830241 
C     0.1465864   -2.2219613    3.6646166 
C    -0.7129451    0.1662231    3.7068773 
C    -2.5250741   -3.5070269    1.4043428 
C    -1.6271486   -2.8930990   -0.9001505 
C     0.2663852    4.7908977    1.8147883 
C    -2.2541886    4.6655960    2.1021539 
C    -0.1269194    2.7253339   -3.1897540 
C    -0.7398234    0.2791538   -3.4268851 
C     1.5853206   -1.6792287    3.6458288 
C     0.7266029    0.6997015    3.6437800 
C    -2.8649761   -4.9156451    0.8768885 
C    -1.9618703   -4.3062831   -1.4073266 
C    -1.0474438    5.5890646    1.8649088 
C    -0.2604460    1.5414414   -4.1607094 
C     1.7006431   -0.2926603    4.2986532 
C    -3.1449217   -4.9091843   -0.6338531 
H    -0.8659716    2.2926804    1.9677068 
H    -2.9828984    1.9564919   -1.3095798 
H    -1.8977854   -1.5878849    3.2585843 
H    -0.4344394   -3.5105198    0.7887532 
H    -2.8326719   -0.4031412   -0.0402589 
H    -2.7200427    0.4507599    1.5238761 
H     0.1701966    4.1358122   -0.2579865 
H     1.1310219    3.0678617    0.7777030 
H    -3.1843800    2.8834537    1.2425305 
H    -2.5333956    4.0241689    0.0470319 
H    -1.3452028    3.8474058   -1.7626311 
H    -2.2258490    3.2784337   -3.1838746 
H    -2.8514158    0.7776290   -3.4205622 
H    -2.3965480   -0.3711924   -2.1591209 
H     0.0995184   -3.2003598    3.1526329 
H    -0.1637896   -2.4047880    4.7114596 
H    -1.0089460    0.0602215    4.7684936 
H    -1.4279621    0.8881216    3.2727423 
H    -3.4109032   -2.8486276    1.2999394 
H    -2.2919577   -3.5673558    2.4817294 
H    -0.7627084   -2.4707122   -1.4441427 
H    -2.4935572   -2.2348108   -1.1060679 
H     1.1208313    5.4613868    1.6123130 
H     0.4529732    4.3290466    2.8049375 
H    -2.1671598    4.1954594    3.1017970 
H    -3.1933400    5.2468097    2.1063498 
H     0.6689974    2.5067870   -2.4526218 
H     0.1925955    3.6345142   -3.7278193 
H    -0.8738241   -0.5605466   -4.1322948 
H     0.0339028   -0.0393589   -2.6955909 
H     1.9165689   -1.6006245    2.5956589 
H     2.2591665   -2.4007190    4.1407860 
H     0.7817996    1.6882335    4.1338083 
H     1.0191669    0.8536404    2.5819760 
H    -3.7313883   -5.3156035    1.4330569 
H    -2.0115168   -5.5889746    1.0886199 
H    -1.0718433   -4.9503493   -1.2832260 
H    -2.1813783   -4.2662816   -2.4894529 
H    -0.9964240    6.3590349    2.6548112 
H    -1.1839368    6.1283288    0.9066467 
H    -0.9888955    1.7986132   -4.9548938 
H     0.7024269    1.3523483   -4.6647206 
H     1.4710547   -0.3690701    5.3793241 
H     2.7385926    0.0777862    4.2222965 
H    -3.3511510   -5.9348537   -0.9874574 
H    -4.0587417   -4.3156145   -0.8355011 
