102
Energy =
C     2.7163190   -1.7989768   -0.1092361 
C     2.8918635   -0.9407136   -1.2314838 
C     2.9861409    0.4655477   -1.0442482 
H     2.7492801   -1.3426263   -2.2420725 
Pd    1.0879425   -0.2750282   -0.1681021 
P    -0.4623475    1.4786546   -0.2569994 
P    -0.7693169   -1.0354234    1.0561628 
H     3.1395371   -1.4590893    0.8486279 
H     3.3760759    0.8104211   -0.0735229 
C     1.8193280   -6.0105389   -0.1976864 
C     2.3090531   -5.4036599    0.9688864 
C     2.6088247   -4.0357919    0.9767953 
C     2.4208174   -3.2427442   -0.1783684 
C     1.9233503   -3.8676774   -1.3459451 
C     1.6326752   -5.2359671   -1.3553750 
H     1.5871815   -7.0802218   -0.2079527 
H     2.4631138   -5.9995518    1.8744415 
H     2.9936801   -3.5679197    1.8903631 
H     1.7453627   -3.2778029   -2.2513155 
H     1.2534357   -5.7029160   -2.2702315 
C     3.0122814    3.5431313   -4.0584332 
C     2.7923051    2.2078703   -4.4349860 
C     2.7833921    1.1917293   -3.4723191 
C     3.0059361    1.4884744   -2.1081788 
C     3.2366918    2.8362936   -1.7454345 
C     3.2357270    3.8529106   -2.7074953 
H     3.0164911    4.3347046   -4.8144469 
H     2.6269642    1.9570759   -5.4878283 
H     2.6013576    0.1599251   -3.7897357 
H     3.4154484    3.0834932   -0.6922759 
H     3.4165910    4.8894376   -2.4044608 
C    -0.1034300    3.1290480    0.5261045 
C    -1.2434595    1.8752082   -1.9169943 
C    -0.5250415   -1.2598929    2.8934478 
C    -1.8405031   -2.4829700    0.5454744 
C    -1.7414417    0.5563561    0.7767045 
C    -1.3569706    4.0005950    0.7585129 
C     0.7491110    3.0265542    1.8055456 
C    -0.5111687    3.0341145   -2.6325058 
C    -1.2504566    0.6118152   -2.8059286 
C     0.3803682   -0.1701712    3.4997186 
C    -1.8365698   -1.4046839    3.6952774 
C    -2.1381358   -2.4615724   -0.9673990 
C    -1.1607136   -3.8098196    0.9597151 
C    -0.9544833    5.3993855    1.2669003 
C     1.1582178    4.4281887    2.2929112 
C    -1.1067254    3.2984294   -4.0282055 
C    -1.8575169    0.8906651   -4.1914836 
C     0.6780771   -0.4614065    4.9811928 
C    -1.5408389   -1.6732482    5.1846856 
C    -2.9531865   -3.6921350   -1.4045176 
C    -1.9736376   -5.0333939    0.4994901 
C    -0.0758031    5.3166803    2.5260899 
C    -1.1171157    2.0341919   -4.8999585 
C    -0.6227294   -0.5989978    5.7893057 
C    -2.2489675   -4.9985325   -1.0106155 
H     0.5279542    3.6091105   -0.2482531 
H    -2.2886465    2.1787922   -1.7040252 
H     0.0306442   -2.2181955    2.9382437 
H    -2.7952804   -2.3697308    1.0974773 
H    -2.6900805    0.3925373    0.2354030 
H    -1.9747431    1.0788606    1.7217078 
H    -2.0061952    3.5086797    1.5095511 
H    -1.9528662    4.0912102   -0.1672261 
H     1.6371272    2.3938252    1.6219092 
H     0.1607567    2.5301173    2.5987705 
H     0.5590159    2.7771662   -2.7336428 
H    -0.5666435    3.9615815   -2.0375779 
H    -1.8006143   -0.2018671   -2.3088356 
H    -0.2045823    0.2627410   -2.9204389 
H    -0.1333999    0.8063814    3.4276253 
H     1.3161926   -0.0830170    2.9159396 
H    -2.4592709   -2.2202791    3.2876557 
H    -2.4263787   -0.4713099    3.5990203 
H    -1.1780189   -2.4337394   -1.5194506 
H    -2.6915058   -1.5430287   -1.2315052 
H    -1.0264946   -3.8534953    2.0544814 
H    -0.1522458   -3.8504216    0.5100092 
H    -1.8624119    5.9960158    1.4658031 
H    -0.4001406    5.9239493    0.4641425 
H     1.8155162    4.8974245    1.5341562 
H     1.7542364    4.3418411    3.2189516 
H    -0.5263775    4.1016966   -4.5165715 
H    -2.1419931    3.6766368   -3.9161076 
H    -2.9268549    1.1558924   -4.0752863 
H    -1.8254234   -0.0321469   -4.7983740 
H     1.3117870    0.3420360    5.3974589 
H     1.2631104   -1.3991456    5.0563887 
H    -1.0569971   -2.6651099    5.2782448 
H    -2.4917014   -1.7317476    5.7435813 
H    -3.1207937   -3.6500017   -2.4956861 
H    -3.9525526   -3.6532004   -0.9285131 
H    -2.9349819   -5.0624185    1.0492255 
H    -1.4217432   -5.9505242    0.7726434 
H     0.2347649    6.3285647    2.8406689 
H    -0.6724671    4.8964575    3.3600020 
H    -1.5816357    2.2475865   -5.8788702 
H    -0.0736221    1.7229120   -5.1002900 
H    -0.3964474   -0.8397159    6.8429341 
H    -1.1524524    0.3744604    5.7946021 
H    -2.8590477   -5.8689450   -1.3101404 
H    -1.2888774   -5.0758653   -1.5564134 
