102
Energy =
C     2.7624987   -1.5395228    0.2305447 
C     2.8315095   -0.9221505   -1.0382724 
C     2.7397902    0.5017757   -1.1602666 
H     2.7597613   -1.5417165   -1.9412357 
Pd    0.9293708   -0.2395358   -0.1574612 
P    -0.5780739    1.5308731   -0.2378739 
P    -1.0409279   -1.0526673    0.8675634 
H     2.9919821   -0.9092356    1.1047332 
H     3.1821603    1.1016787   -0.3510203 
C     2.6769201   -5.7446765    1.1256252 
C     2.5459966   -4.7884500    2.1455392 
C     2.5894457   -3.4249466    1.8366600 
C     2.7538609   -2.9851228    0.5012162 
C     2.8958260   -3.9598017   -0.5129570 
C     2.8579134   -5.3235903   -0.2016207 
H     2.6489904   -6.8126049    1.3644866 
H     2.4171469   -5.1078076    3.1849721 
H     2.4899251   -2.6820486    2.6362750 
H     3.0467238   -3.6536641   -1.5528341 
H     2.9745789   -6.0641116   -0.9995666 
C     2.1845125    2.6300539   -4.8698654 
C     1.7830140    1.2873684   -4.7663821 
C     1.9642098    0.5860052   -3.5699654 
C     2.5666270    1.2059956   -2.4495661 
C     2.9784848    2.5519650   -2.5740795 
C     2.7844059    3.2583796   -3.7681461 
H     2.0356018    3.1791738   -5.8051017 
H     1.3169362    0.7874167   -5.6218218 
H     1.6147070   -0.4500762   -3.4982416 
H     3.4642178    3.0458675   -1.7254032 
H     3.1134132    4.3001791   -3.8422090 
C    -0.1964042    3.0381734    0.7992221 
C    -1.1362481    2.2094616   -1.8831227 
C    -1.0261242   -1.5251412    2.6704457 
C    -2.1870429   -2.3259142    0.0674563 
C    -1.9581053    0.5828267    0.6192664 
C     0.1832647    2.6682430    2.2461890 
C     0.9302227    3.8583143    0.1308793 
C    -1.5947607    1.0983259   -2.8474968 
C    -2.1885015    3.3360437   -1.7946507 
C    -0.0155275   -0.7135091    3.5048716 
C    -2.4115471   -1.5525081    3.3500787 
C    -2.1548516   -2.2323199   -1.4747471 
C    -1.9036251   -3.7800471    0.5051208 
C     0.5510837    3.9155209    3.0704833 
C     1.2912552    5.1019081    0.9631231 
C    -1.8900902    1.6726606   -4.2440029 
C    -2.5021236    3.8970719   -3.1964513 
C     0.1051399   -1.3008742    4.9222120 
C    -2.2986712   -2.1139798    4.7820141 
C    -0.8452423   -2.7710982   -2.0749020 
C    -0.5861042   -4.3134014   -0.0757421 
C     1.6737683    4.7235864    2.4021082 
C    -2.9394736    2.7932905   -4.1721592 
C    -1.2650822   -1.3434669    5.6200318 
C    -0.5663195   -4.2094780   -1.6095512 
H    -1.1267461    3.6400387    0.8205303 
H    -0.1890181    2.6242169   -2.2858108 
H    -0.6369458   -2.5625442    2.6129533 
H    -3.1893110   -2.0232531    0.4277427 
H    -2.8533431    0.4618404   -0.0164519 
H    -2.2754218    1.0519440    1.5670097 
H     1.0412224    1.9670077    2.2233566 
H    -0.6515041    2.1373304    2.7357905 
H     0.6483709    4.1594328   -0.8929905 
H     1.8202249    3.2081396    0.0351516 
H    -2.5214052    0.6377063   -2.4535996 
H    -0.8285424    0.3049841   -2.9018562 
H    -1.8383330    4.1547424   -1.1421777 
H    -3.1149186    2.9333378   -1.3386172 
H    -0.3595270    0.3330169    3.5796426 
H     0.9660158   -0.6912597    2.9964741 
H    -3.1290164   -2.1562324    2.7666492 
H    -2.8154895   -0.5215931    3.3880653 
H    -2.3380232   -1.1986751   -1.8068295 
H    -3.0039874   -2.8330826   -1.8542651 
H    -2.7466691   -4.3915715    0.1278563 
H    -1.9244289   -3.8853719    1.6038170 
H     0.8444304    3.6074531    4.0899854 
H    -0.3471534    4.5543635    3.1787258 
H     0.4246343    5.7912483    0.9796455 
H     2.1169508    5.6450757    0.4696022 
H    -2.2306428    0.8616171   -4.9125198 
H    -0.9500718    2.0689084   -4.6726376 
H    -1.5941312    4.3952388   -3.5892005 
H    -3.2811004    4.6758575   -3.1143877 
H     0.8227764   -0.7047924    5.5138888 
H     0.5208968   -2.3261105    4.8559029 
H    -2.0037653   -3.1800876    4.7228924 
H    -3.2898497   -2.0872540    5.2685693 
H    -0.0062331   -2.1120929   -1.7596697 
H    -0.8923976   -2.7157341   -3.1774462 
H    -0.4287818   -5.3582683    0.2427638 
H     0.2604356   -3.7347166    0.3412725 
H     1.8969467    5.6298632    2.9920080 
H     2.6020949    4.1183302    2.3871712 
H    -3.1149589    3.2199343   -5.1754918 
H    -3.9064543    2.3690504   -3.8359929 
H    -1.1718738   -1.7989940    6.6216321 
H    -1.6226905   -0.3065363    5.7772443 
H    -1.3382733   -4.8830760   -2.0310890 
H     0.4055906   -4.5581238   -1.9997113 
