102
Energy =
C     2.8418267   -1.5312366    0.0998538 
C     3.0136326   -0.6780150   -1.0307451 
C     3.0296431    0.7322144   -0.8677220 
H     2.9224558   -1.1024630   -2.0382992 
Pd    1.1444394   -0.1088210   -0.0287661 
P    -0.5930916    1.4490222   -0.2772054 
P    -0.6912226   -1.0627261    1.0558897 
H     3.2466947   -1.1771064    1.0604483 
H     3.3506279    1.1155782    0.1140387 
C     2.0433985   -5.7657236   -0.0159224 
C     1.7856245   -4.9763102   -1.1495689 
C     2.0482072   -3.6024834   -1.1290303 
C     2.5868437   -2.9846735    0.0239749 
C     2.8560644   -3.7950893    1.1500047 
C     2.5830129   -5.1686017    1.1332756 
H     1.8331942   -6.8399332   -0.0331980 
H     1.3752354   -5.4356015   -2.0548413 
H     1.8185077   -3.0013186   -2.0153091 
H     3.2904627   -3.3393808    2.0468849 
H     2.8015072   -5.7767652    2.0172639 
C     2.9926983    3.7522237   -3.9380072 
C     3.1184671    4.1003241   -2.5837350 
C     3.1438939    3.1028023   -1.6023178 
C     3.0354934    1.7355819   -1.9492796 
C     2.9120587    1.4001360   -3.3171506 
C     2.8958263    2.3980260   -4.2985062 
H     2.9783045    4.5293725   -4.7087757 
H     3.2037225    5.1525155   -2.2929947 
H     3.2429425    3.3800826   -0.5461622 
H     2.8279337    0.3522837   -3.6228744 
H     2.8077039    2.1182121   -5.3533288 
C    -0.5009710    3.1266430    0.5268738 
C    -1.2750692    1.7757561   -1.9943663 
C    -0.6770229   -1.2533591    2.9139333 
C    -1.3611845   -2.6836120    0.4171697 
C    -1.8509945    0.3551387    0.6122473 
C    -1.8610205    3.8449097    0.6548772 
C     0.2682008    3.1339356    1.8620910 
C    -0.5449173    2.9546737   -2.6780851 
C    -1.1761135    0.4962493   -2.8525777 
C     0.2697544   -2.4146474    3.2963920 
C    -0.2660936    0.0470819    3.6305123 
C    -2.6514592   -3.1673333    1.1139771 
C    -1.5265876   -2.6813522   -1.1150333 
C    -1.6657458    5.2828278    1.1759408 
C     0.4701213    4.5774893    2.3570556 
C    -1.0380032    3.1655104   -4.1217648 
C    -1.6825409    0.7283919   -4.2865892 
C     0.3496928   -2.5982563    4.8225226 
C    -0.1829411   -0.1487827    5.1554429 
C    -3.0669995   -4.5554942    0.5860540 
C    -1.9280711   -4.0761137   -1.6259221 
C    -0.8758561    5.3091591    2.4947455 
C    -0.9293499    1.8840309   -4.9607777 
C     0.7671889   -1.2978790    5.5256748 
C    -3.2146604   -4.5676626   -0.9435611 
H     0.1231250    3.6767211   -0.2061631 
H    -2.3442166    2.0370157   -1.8574794 
H    -1.7133522   -1.5088352    3.2109816 
H    -0.5328530   -3.3813271    0.6574749 
H    -2.6689669    0.0382288   -0.0591065 
H    -2.3036915    0.8387635    1.4955159 
H    -2.5040542    3.2815658    1.3596324 
H    -2.3897345    3.8640278   -0.3150789 
H     1.2378317    2.6148846    1.7437458 
H    -0.3059758    2.5739249    2.6205047 
H     0.5410061    2.7497102   -2.6882967 
H    -0.6922065    3.8882646   -2.1086057 
H    -1.7451128   -0.3213394   -2.3824765 
H    -0.1159228    0.1729599   -2.8784088 
H     1.2763525   -2.1873761    2.8968676 
H    -0.0495581   -3.3589831    2.8220470 
H    -0.9869119    0.8515990    3.4021913 
H     0.7183607    0.3754453    3.2420163 
H    -3.4636435   -2.4377291    0.9229792 
H    -2.5146490   -3.2175582    2.2082369 
H    -0.5926674   -2.3384373   -1.5950621 
H    -2.3204422   -1.9613647   -1.3935901 
H    -2.6503583    5.7669238    1.3029987 
H    -1.1214872    5.8682214    0.4090699 
H     1.1159648    5.1208601    1.6389928 
H     1.0069581    4.5687542    3.3224742 
H    -0.4523595    3.9816110   -4.5817435 
H    -2.0930537    3.5027862   -4.1010339 
H    -2.7657618    0.9587237   -4.2577789 
H    -1.5734487   -0.2041259   -4.8691829 
H     1.0582232   -3.4132927    5.0550894 
H    -0.6395575   -2.9215817    5.2012674 
H    -1.1953666   -0.3679981    5.5474244 
H     0.1417076    0.7951845    5.6285540 
H    -4.0097047   -4.8655693    1.0710020 
H    -2.2972346   -5.2932365    0.8860755 
H    -1.1031076   -4.7837387   -1.4174295 
H    -2.0555798   -4.0458107   -2.7229669 
H    -0.7137452    6.3518332    2.8201440 
H    -1.4748075    4.8206057    3.2889464 
H    -1.3205460    2.0579340   -5.9787744 
H     0.1378288    1.6098265   -5.0689464 
H     0.7866352   -1.4413389    6.6203446 
H     1.7993298   -1.0322069    5.2220252 
H    -3.4709108   -5.5832510   -1.2933724 
H    -4.0578007   -3.9107057   -1.2358328 
