102
Energy =
C     2.5793726   -1.4693760   -0.1101504 
C     2.7936806   -0.6992360   -1.2916003 
C     2.8447214    0.7144900   -1.2130197 
H     2.7389817   -1.1863884   -2.2726830 
Pd    0.8833715   -0.0884242   -0.3835950 
P    -0.8057332    1.5793018   -0.3378374 
P    -0.8210838   -0.9833916    0.9361021 
H     2.9405368   -1.0312373    0.8327117 
H     3.1187747    1.1426720   -0.2366047 
C     1.9606645   -5.7252025    0.1456811 
C     2.3002109   -4.9765181    1.2832171 
C     2.5051488   -3.5952363    1.1791512 
C     2.3701526   -2.9301920   -0.0616153 
C     2.0235283   -3.6968476   -1.1979710 
C     1.8281182   -5.0785952   -1.0946868 
H     1.8039672   -6.8057882    0.2224719 
H     2.4119910   -5.4718032    2.2532690 
H     2.7770255   -3.0162724    2.0696810 
H     1.8966793   -3.2107453   -2.1709198 
H     1.5683673   -5.6568682   -1.9873999 
C     3.1884435    3.5425149   -4.4339269 
C     3.2570289    3.9613889   -3.0960592 
C     3.1470576    3.0248313   -2.0623606 
C     2.9626832    1.6495849   -2.3414207 
C     2.8927129    1.2436937   -3.6944638 
C     3.0076775    2.1806214   -4.7267438 
H     3.2793435    4.2718222   -5.2451575 
H     3.4027506    5.0203393   -2.8589988 
H     3.2043838    3.3551340   -1.0182979 
H     2.7446610    0.1886821   -3.9459583 
H     2.9556523    1.8474811   -5.7684069 
C    -0.3060343    3.1641167    0.5166406 
C    -2.0035528    2.1559237   -1.6800925 
C    -0.4845535   -1.3578314    2.7287051 
C    -1.8263551   -2.4304888    0.2925336 
C    -1.8764845    0.5713241    0.8445220 
C    -1.4799944    4.0436740    0.9974332 
C     0.7008208    2.9179690    1.6582153 
C    -1.4209652    3.2852342   -2.5599135 
C    -2.4887184    0.9998857   -2.5799339 
C     0.4890419   -0.3549745    3.3784233 
C    -1.7625666   -1.5194373    3.5813774 
C    -1.8171538   -2.4266761   -1.2519361 
C    -1.2953938   -3.7820499    0.8254282 
C    -0.9616637    5.3700092    1.5891455 
C     1.2220884    4.2483635    2.2291467 
C    -0.3087600    2.7756790   -3.4879415 
C    -1.3800317    0.4730242   -3.5068646 
C     0.8534075   -0.8027081    4.8054180 
C    -1.4024059   -1.9527071    5.0164474 
C    -2.6171533   -3.6057328   -1.8308966 
C    -2.0863853   -4.9643264    0.2342818 
C     0.0629561    5.1362182    2.7104978 
C    -0.7907677    1.6069882   -4.3625351 
C    -0.4059209   -0.9813756    5.6703262 
C    -2.0877096   -4.9465158   -1.3014487 
H     0.2342846    3.6971312   -0.2923980 
H    -2.8603512    2.5445305   -1.0965008 
H     0.0357872   -2.3345662    2.6701678 
H    -2.8629370   -2.2755585    0.6552978 
H    -2.8943780    0.3879984    0.4565012 
H    -1.9724365    1.0570994    1.8321286 
H    -2.0515197    3.4939301    1.7715428 
H    -2.1813945    4.2557731    0.1720209 
H     1.5353357    2.2865881    1.3004836 
H     0.2007832    2.3530220    2.4663420 
H    -1.0661985    4.1337738   -1.9490964 
H    -2.2601166    3.6780563   -3.1667336 
H    -3.3213794    1.3939512   -3.1939641 
H    -2.9253055    0.1868815   -1.9727276 
H     0.0088844    0.6406705    3.4271208 
H     1.3942553   -0.2415850    2.7541091 
H    -2.4524429   -2.2521115    3.1262427 
H    -2.3011406   -0.5517038    3.6144303 
H    -0.7647165   -2.4854457   -1.5923059 
H    -2.2184319   -1.4754837   -1.6335438 
H    -1.3547441   -3.8238966    1.9261420 
H    -0.2288059   -3.8829309    0.5541081 
H    -1.8145509    5.9657090    1.9601625 
H    -0.4916835    5.9611707    0.7789006 
H     1.7951047    4.7796317    1.4434119 
H     1.9274659    4.0477523    3.0553698 
H     0.5514088    2.4426624   -2.8768709 
H     0.0644678    3.6015819   -4.1174354 
H    -1.7807672   -0.3337348   -4.1462861 
H    -0.5736168    0.0202923   -2.8922532 
H     1.5376637   -0.0666221    5.2638892 
H     1.4065530   -1.7613920    4.7525166 
H    -0.9602147   -2.9676427    4.9819926 
H    -2.3232782   -2.0294187    5.6214250 
H    -2.5693719   -3.5737455   -2.9343288 
H    -3.6845977   -3.4928128   -1.5566696 
H    -3.1298448   -4.9246129    0.6043990 
H    -1.6518081   -5.9077434    0.6105558 
H     0.4479529    6.1017408    3.0831053 
H    -0.4388923    4.6445638    3.5674841 
H    -1.5649493    1.9704818   -5.0665283 
H     0.0444904    1.2283699   -4.9774057 
H    -0.1306317   -1.3389421    6.6780948 
H    -0.8941239    0.0039235    5.8077524 
H    -2.6927603   -5.7828387   -1.6938930 
H    -1.0536622   -5.0985194   -1.6661433 
