102
Energy =
C     2.6925560   -1.6155876    0.6224014 
C     2.9495483   -0.5747424   -0.3088495 
C     2.9094336    0.7869927    0.0983379 
H     3.0207248   -0.8107347   -1.3780943 
Pd    0.9433411   -0.1510555    0.4795172 
P    -0.6525969    1.4511788   -0.1134300 
P    -1.1578429   -0.9987701    1.2183098 
H     2.9308869   -1.4128033    1.6771321 
H     3.1344602    0.9947859    1.1562771 
C     2.3219241   -5.7901139   -0.3670139 
C     2.6090294   -5.3888564    0.9459699 
C     2.7404623   -4.0286156    1.2532068 
C     2.5760470   -3.0381215    0.2576016 
C     2.2899695   -3.4605386   -1.0628251 
C     2.1705688   -4.8182993   -1.3712262 
H     2.2219199   -6.8528621   -0.6097390 
H     2.7413060   -6.1386037    1.7328931 
H     2.9831130   -3.7255002    2.2772188 
H     2.1362167   -2.7186212   -1.8538590 
H     1.9495853   -5.1235005   -2.3993709 
C     3.3616022    4.2247050   -2.4555995 
C     2.8588663    3.0240996   -2.9876798 
C     2.7145312    1.8967446   -2.1729959 
C     3.0652973    1.9455978   -0.8035483 
C     3.5686357    3.1583669   -0.2823024 
C     3.7207419    4.2854811   -1.1011776 
H     3.4736281    5.1054824   -3.0958445 
H     2.5768681    2.9696384   -4.0445002 
H     2.3062009    0.9739290   -2.5987247 
H     3.8445622    3.2140609    0.7767506 
H     4.1163656    5.2146583   -0.6785501 
C    -0.6948167    3.2337035    0.4528433 
C    -0.9758819    1.4432408   -1.9495816 
C    -1.4925719   -1.1264577    3.0713475 
C    -2.0216907   -2.5223557    0.5226465 
C    -2.0832879    0.5516072    0.6925467 
C    -0.0239447    3.3292797    1.8432538 
C    -0.0103956    4.1773911   -0.5622657 
C    -0.7594915    0.0423505   -2.5625845 
C    -2.3492839    2.0239695   -2.3488140 
C    -0.9050609   -2.4217176    3.6799280 
C    -0.9798883    0.0986379    3.8595737 
C    -3.2463756   -2.2389859   -0.3710795 
C    -0.9802295   -3.4122827   -0.1883866 
C     0.0311118    4.7795311    2.3531733 
C     0.0590662    5.6212062   -0.0315274 
C    -0.9147895    0.0839806   -4.0926772 
C    -2.4983234    2.0575314   -3.8827249 
C     0.6284735   -2.3825983    3.7597730 
C     0.5543042    0.1535038    3.9355262 
C    -3.8635526   -3.5564842   -0.8802267 
C    -1.6135470   -4.7105809   -0.7130533 
C     0.7406406    5.6943108    1.3432973 
C    -2.2776604    0.6674841   -4.5014643 
C     1.1356564   -1.1447857    4.5187887 
C    -2.8241847   -4.4200803   -1.6141535 
H    -1.7653584    3.5083646    0.5427139 
H    -0.1786103    2.1055192   -2.3404597 
H    -2.5987641   -1.1634341    3.1249879 
H    -2.3870055   -3.0598823    1.4193090 
H    -2.9333625    0.3716913    0.0143918 
H    -2.4600577    1.1067294    1.5694321 
H     1.0039837    2.9243895    1.7610617 
H    -0.5560340    2.6903040    2.5701689 
H    -0.5502859    4.1679923   -1.5245300 
H     1.0129352    3.8138381   -0.7636652 
H    -1.5011179   -0.6616403   -2.1400135 
H     0.2352316   -0.3468051   -2.2743621 
H    -2.4851544    3.0370540   -1.9297085 
H    -3.1525537    1.3916026   -1.9223916 
H    -1.2376160   -3.3151987    3.1212347 
H    -1.3301560   -2.5220507    4.6973011 
H    -1.3932639    0.0226702    4.8837933 
H    -1.3842809    1.0382534    3.4425169 
H    -2.9411797   -1.6289712   -1.2430962 
H    -4.0041198   -1.6563084    0.1838294 
H    -0.1437701   -3.6398181    0.4958809 
H    -0.5399654   -2.8413601   -1.0283570 
H     0.5426889    4.8052247    3.3320302 
H    -0.9997863    5.1467491    2.5243154 
H    -0.9669734    6.0318059    0.0453019 
H     0.5971351    6.2470321   -0.7658599 
H    -0.7866741   -0.9318971   -4.5077948 
H    -0.1035087    0.7068755   -4.5192472 
H    -1.7592349    2.7691669   -4.2997771 
H    -3.4973535    2.4464288   -4.1482330 
H     1.0310483   -2.3753504    2.7301469 
H     0.9994391   -3.3070457    4.2361967 
H     0.8698849    1.0283483    4.5311158 
H     0.9599279    0.3124364    2.9085059 
H    -4.7194399   -3.3284967   -1.5403897 
H    -4.2696336   -4.1220755   -0.0189500 
H    -1.9353208   -5.3310780    0.1465206 
H    -0.8493490   -5.2960461   -1.2539622 
H     0.7522489    6.7358153    1.7101245 
H     1.7975499    5.3779698    1.2434766 
H    -2.3562110    0.7221981   -5.6015298 
H    -3.0818308   -0.0150862   -4.1610820 
H     0.8438147   -1.2248084    5.5841369 
H     2.2403788   -1.1108551    4.5001948 
H    -3.2865601   -5.3631622   -1.9550529 
H    -2.4839627   -3.8868837   -2.5246698 
