102
Energy =
C     2.7963773   -1.5007720    0.2021463 
C     2.8355404   -0.8264762   -1.0367900 
C     2.7219436    0.5975270   -1.1100118 
H     2.7878353   -1.4103674   -1.9644303 
Pd    0.9122040   -0.1899522   -0.1487552 
P    -0.5987616    1.5648043   -0.3212367 
P    -1.0852911   -0.9388814    0.8930410 
H     3.0176471   -0.9066171    1.1028536 
H     3.1353712    1.1743398   -0.2690214 
C     2.9696385   -5.7479024    0.8629622 
C     2.9905266   -4.8505678    1.9418108 
C     2.9422488   -3.4722289    1.7076650 
C     2.8596845   -2.9569856    0.3922585 
C     2.8520764   -3.8749984   -0.6843315 
C     2.9083479   -5.2523128   -0.4498997 
H     3.0120328   -6.8270233    1.0420094 
H     3.0538600   -5.2263573    2.9682542 
H     2.9728988   -2.7772638    2.5538938 
H     2.8003006   -3.5133723   -1.7161345 
H     2.9046819   -5.9461358   -1.2969058 
C     2.3108800    2.8423431   -4.7707318 
C     1.9368463    1.4884072   -4.7347008 
C     2.0659736    0.7504192   -3.5533600 
C     2.5900802    1.3437224   -2.3807421 
C     2.9780533    2.7014233   -2.4380554 
C     2.8337095    3.4448072   -3.6165578 
H     2.2027793    3.4196383   -5.6945026 
H     1.5361379    1.0066701   -5.6325601 
H     1.7415008   -0.2958878   -3.5384611 
H     3.4069532    3.1755622   -1.5486745 
H     3.1426109    4.4951431   -3.6370702 
C    -0.3121864    3.0549985    0.7631055 
C    -1.0580386    2.2007782   -2.0097080 
C    -1.1185862   -0.9517776    2.7587634 
C    -2.1948858   -2.3277843    0.2719781 
C    -2.0364046    0.6187898    0.4146907 
C    -0.0507817    2.6523962    2.2304442 
C     0.8613472    3.8902734    0.2055256 
C    -1.4843190    1.0412051   -2.9357278 
C    -2.1122880    3.3285480   -2.0012976 
C    -2.4977547   -1.2418890    3.3868347 
C    -0.0023060   -1.8397297    3.3509199 
C    -2.2546199   -2.3411508   -1.2745925 
C    -1.8094632   -3.7270227    0.8018475 
C     0.2503008    3.8828663    3.1065697 
C     1.1484867    5.1178820    1.0882723 
C    -1.7559610    1.5495046   -4.3623135 
C    -2.3931303    3.8201821   -3.4354480 
C    -2.4268584   -1.1021699    4.9204611 
C     0.0400541   -1.7034593    4.8835980 
C    -0.9674215   -2.8864368   -1.9164187 
C    -0.5199143   -4.2629700    0.1636620 
C     1.4182744    4.7079437    2.5443352 
C    -2.8102391    2.6680472   -4.3631118 
C    -1.3302688   -2.0018985    5.5150341 
C    -0.6237544   -4.2811832   -1.3698264 
H    -1.2446030    3.6527253    0.7195091 
H    -0.0960090    2.5992077   -2.3921160 
H    -0.8495969    0.0959019    2.9962747 
H    -3.1885658   -2.0464096    0.6712209 
H    -2.8048687    0.4017659   -0.3471239 
H    -2.5296308    1.1235394    1.2638320 
H     0.8068388    1.9494987    2.2616879 
H    -0.9236351    2.1149065    2.6425607 
H     0.6620713    4.2059008   -0.8336871 
H     1.7587409    3.2439881    0.1730897 
H    -2.4134816    0.5834652   -2.5434704 
H    -0.7097338    0.2533578   -2.9362804 
H    -1.7752212    4.1765483   -1.3795351 
H    -3.0499869    2.9482897   -1.5487264 
H    -2.8150996   -2.2702958    3.1328243 
H    -3.2645867   -0.5593115    2.9750326 
H     0.9658053   -1.5511221    2.9049134 
H    -0.1692261   -2.8984265    3.0789843 
H    -2.4911953   -1.3388151   -1.6714893 
H    -3.1049324   -2.9904996   -1.5594395 
H    -2.6510715   -4.4029278    0.5530513 
H    -1.7342405   -3.7276695    1.9026863 
H     0.4652941    3.5539232    4.1389720 
H    -0.6559529    4.5173397    3.1586946 
H     0.2797467    5.8036924    1.0511716 
H     2.0081205    5.6745824    0.6742838 
H    -2.0803938    0.7069109   -4.9990301 
H    -0.8105938    1.9316134   -4.7909033 
H    -1.4759273    4.2974774   -3.8325248 
H    -3.1730344    4.6018527   -3.4097577 
H    -3.4104026   -1.3457887    5.3599601 
H    -2.2163693   -0.0454010    5.1786307 
H     0.3468189   -0.6712313    5.1453933 
H     0.8126485   -2.3773324    5.2954308 
H    -0.1279404   -2.1896041   -1.7019845 
H    -1.0848944   -2.9107865   -3.0146722 
H    -0.3014961   -5.2737112    0.5495795 
H     0.3336350   -3.6264121    0.4658796 
H     1.5908635    5.6010482    3.1700943 
H     2.3474877    4.1054938    2.5885480 
H    -2.9686512    3.0440398   -5.3892770 
H    -3.7820332    2.2574837   -4.0237880 
H    -1.2826384   -1.8706396    6.6104263 
H    -1.5922079   -3.0633474    5.3351563 
H    -1.4134494   -4.9958460   -1.6751845 
H     0.3196299   -4.6456234   -1.8104571 
