102
Energy =
C     2.6888792   -1.5722473    0.0997496 
C     2.7783178   -0.9550787   -1.1710875 
C     2.7079879    0.4662740   -1.2877100 
H     2.7159665   -1.5699194   -2.0778359 
Pd    0.8703616   -0.2792312   -0.3073311 
P    -0.6320126    1.5203370   -0.2861887 
P    -0.9999969   -1.0522576    0.9058428 
H     2.9458745   -0.9492188    0.9707410 
H     3.1108131    1.0550698   -0.4499507 
C     2.5902741   -5.7765089    1.0035280 
C     2.6834724   -5.3585939   -0.3337828 
C     2.7178048   -3.9957664   -0.6495620 
C     2.6648283   -3.0181747    0.3703335 
C     2.5860979   -3.4552130    1.7144230 
C     2.5438628   -4.8177797    2.0281450 
H     2.5634934   -6.8437494    1.2454035 
H     2.7318021   -6.1012550   -1.1367943 
H     2.7924535   -3.6935078   -1.6987919 
H     2.5573603   -2.7109426    2.5183208 
H     2.4827622   -5.1341768    3.0746467 
C     2.4230293    2.6586761   -4.9841576 
C     2.9930520    3.2468421   -3.8450813 
C     3.0900879    2.5194469   -2.6516617 
C     2.6178424    1.1901354   -2.5718870 
C     2.0416424    0.6110024   -3.7270703 
C     1.9511208    1.3361168   -4.9197086 
H     2.3449921    3.2255755   -5.9172994 
H     3.3664846    4.2752386   -3.8869679 
H     3.5382063    2.9837712   -1.7656002 
H     1.6347812   -0.4054995   -3.6829853 
H     1.5020448    0.8719782   -5.8039480 
C    -0.0220041    3.0080852    0.6659316 
C    -1.5154803    2.2468743   -1.7686731 
C    -0.8272011   -1.5156777    2.7027476 
C    -2.2333194   -2.3013641    0.2056314 
C    -1.8832850    0.6123539    0.7882945 
C    -1.1194536    4.0441886    0.9920828 
C     0.7588999    2.6111058    1.9339579 
C    -0.5559834    3.1812511   -2.5436598 
C    -2.0840276    1.1487748   -2.6895660 
C     0.2346763   -0.6740871    3.4375896 
C    -2.1551053   -1.5307560    3.4911890 
C    -2.2615466   -2.2631824   -1.3399679 
C    -1.9920256   -3.7516424    0.6837931 
C    -0.5173075    5.2755151    1.6986429 
C     1.3663396    3.8481962    2.6186729 
C    -1.2181799    3.7551655   -3.8092233 
C    -2.7361682    1.7423518   -3.9517226 
C     0.4704258   -1.2201773    4.8569917 
C    -1.9273438   -2.0584942    4.9219899 
C    -1.0111642   -2.8928769   -1.9768249 
C    -0.7324256   -4.3712698    0.0616807 
C     0.2804583    4.8840625    2.9525049 
C    -1.7579840    2.6429414   -4.7194996 
C    -0.8411227   -1.2585565    5.6596065 
C    -0.7872414   -4.3271225   -1.4735476 
H     0.7000255    3.4604518   -0.0434381 
H    -2.3586942    2.8399858   -1.3606827 
H    -0.4365112   -2.5514615    2.6342347 
H    -3.2063221   -1.9461128    0.5964224 
H    -2.8832502    0.5368881    0.3248972 
H    -2.0032416    1.0903280    1.7771203 
H    -1.8777066    3.5752644    1.6504577 
H    -1.6450716    4.3634523    0.0752607 
H     1.5416564    1.8703895    1.6839520 
H     0.0688548    2.1169485    2.6433135 
H     0.3436180    2.6089886   -2.8314561 
H    -0.2165799    4.0120964   -1.9011698 
H    -2.8323633    0.5494322   -2.1421193 
H    -1.2629417    0.4639295   -2.9791886 
H    -0.1172069    0.3714580    3.5112412 
H     1.1744074   -0.6524598    2.8563162 
H    -2.9157170   -2.1468625    2.9803482 
H    -2.5582221   -0.4998850    3.5387937 
H    -2.3975033   -1.2326142   -1.7004085 
H    -3.1583495   -2.8266523   -1.6628218 
H    -2.8801178   -4.3348219    0.3703292 
H    -1.9627109   -3.8176981    1.7849200 
H    -1.3255510    5.9826351    1.9568407 
H     0.1494201    5.8026958    0.9883901 
H     2.1191168    4.3030078    1.9450495 
H     1.9042005    3.5396208    3.5329795 
H    -0.4788956    4.3743674   -4.3480522 
H    -2.0478374    4.4285332   -3.5167725 
H    -3.6260376    2.3320203   -3.6563969 
H    -3.1004199    0.9206015   -4.5939317 
H     1.2240794   -0.6005330    5.3750674 
H     0.8925414   -2.2424130    4.7860643 
H    -1.6267496   -3.1230800    4.8646820 
H    -2.8785553   -2.0287297    5.4825426 
H    -0.1250496   -2.2693752   -1.7243619 
H    -1.1075161   -2.8715710   -3.0772275 
H    -0.6101606   -5.4094767    0.4157115 
H     0.1616228   -3.8200073    0.4114714 
H     0.7331067    5.7803152    3.4119213 
H    -0.4098211    4.4569327    3.7069756 
H    -2.2519749    3.0773795   -5.6064272 
H    -0.9107126    2.0336187   -5.0892612 
H    -0.6652716   -1.6884518    6.6613876 
H    -1.1975546   -0.2216033    5.8195936 
H    -1.6162958   -4.9707168   -1.8284085 
H     0.1421459   -4.7438181   -1.8985133 
