102
Energy =
C     2.2474333   -1.2236017   -1.9046016 
C     2.8057850   -0.0746353   -1.2870328 
C     3.0366125   -0.0232190    0.1136665 
H     2.8958662    0.8462840   -1.8758470 
Pd    0.8866056   -0.4034974   -0.2502601 
P    -0.2315528    0.6496629    1.5111311 
P    -1.3899610   -1.0536090   -0.4375921 
H     2.4261961   -2.1967263   -1.4233721 
H     3.1811197   -0.9836734    0.6328564 
C     1.1329699   -1.4593091   -6.0586869 
C     1.4392693   -2.6197552   -5.3328168 
C     1.8070670   -2.5301220   -3.9843690 
C     1.8695606   -1.2795045   -3.3286694 
C     1.5620198   -0.1173987   -4.0771977 
C     1.2026310   -0.2066418   -5.4253202 
H     0.8469888   -1.5276491   -7.1132001 
H     1.4000086   -3.5991488   -5.8207597 
H     2.0620379   -3.4399819   -3.4300534 
H     1.5800508    0.8654550   -3.5934213 
H     0.9657698    0.7041779   -5.9851132 
C     4.4082094    3.3735612    2.3831621 
C     4.1973087    2.1304913    3.0009083 
C     3.7681305    1.0342254    2.2439271 
C     3.5241226    1.1568122    0.8561268 
C     3.7494161    2.4126143    0.2465616 
C     4.1905545    3.5056420    1.0019183 
H     4.7499293    4.2311004    2.9713573 
H     4.3773074    2.0133434    4.0747071 
H     3.6147609    0.0638231    2.7301360 
H     3.5808551    2.5434565   -0.8269715 
H     4.3631074    4.4683889    0.5099493 
C    -2.4310860   -0.3014440   -1.7897345 
C    -2.0048141   -2.8077767   -0.1252019 
C    -0.4882993    2.4959865    1.3518292 
C     0.2074835    0.3166914    3.2856686 
C    -1.8894367   -0.1328564    1.1255132 
C    -1.8764509   -0.6152766   -3.1956140 
C    -3.9436447   -0.5869199   -1.6860557 
C    -1.9513874   -3.7103110   -1.3764576 
C    -1.2222110   -3.4809588    1.0269851 
C     0.6309999    3.2851021    2.0667162 
C    -0.5765769    2.8755252   -0.1448095 
C    -0.8680402    0.7668283    4.2974478 
C     0.6136047   -1.1545940    3.5105841 
C    -2.6523991    0.1718203   -4.2655782 
C    -4.7078905    0.2000242   -2.7702467 
C    -0.5056420   -4.0130441   -1.7956812 
C     0.2274090   -3.8174989    0.6385488 
C     0.4930655    4.8010109    1.8380910 
C    -0.7173550    4.3943647   -0.3436065 
C    -0.3783886    0.5397670    5.7415664 
C     1.1064427   -1.3657516    4.9532381 
C    -4.1635105   -0.1016015   -4.1773618 
C     0.2923478   -4.6579162   -0.6485127 
C     0.4310088    5.1493822    0.3433018 
C     0.0468884   -0.9193278    5.9749726 
H    -2.2722723    0.7826189   -1.6144374 
H    -3.0577444   -2.6603107    0.1826294 
H    -1.4598839    2.7157400    1.8395112 
H     1.1150266    0.9373446    3.4253724 
H    -2.2099721   -0.8250510    1.9236866 
H    -2.6978732    0.6026684    0.9655778 
H    -1.9663439   -1.6965934   -3.4062504 
H    -0.8008393   -0.3780227   -3.2384215 
H    -4.3267412   -0.3249125   -0.6818497 
H    -4.1262801   -1.6689386   -1.8270563 
H    -2.5190482   -3.2677518   -2.2121247 
H    -2.4702992   -4.6537170   -1.1170541 
H    -1.7610670   -4.4138431    1.2819961 
H    -1.2432537   -2.8598200    1.9398516 
H     1.6103578    2.9473125    1.6854088 
H     0.6194148    3.0764058    3.1502958 
H    -1.4225853    2.3491347   -0.6243546 
H     0.3432458    2.5179449   -0.6502941 
H    -1.7946327    0.1837103    4.1278090 
H    -1.1277105    1.8301363    4.1478919 
H     1.3876013   -1.4507861    2.7788151 
H    -0.2602927   -1.8094251    3.3298895 
H    -2.2647886   -0.0891347   -5.2664860 
H    -2.4644264    1.2551137   -4.1250189 
H    -4.6124121    1.2842439   -2.5630657 
H    -5.7845014   -0.0396568   -2.7107867 
H    -0.0203215   -3.0677914   -2.1035657 
H    -0.5004759   -4.6682646   -2.6842663 
H     0.7248800   -4.3427850    1.4731617 
H     0.7865341   -2.8672077    0.4885901 
H     1.3431221    5.3142274    2.3222944 
H    -0.4257685    5.1654902    2.3381460 
H    -1.6848895    4.7312651    0.0773375 
H    -0.7459474    4.6218317   -1.4243846 
H    -1.1731211    0.8305971    6.4512601 
H     0.4816139    1.2101242    5.9362534 
H     2.0360419   -0.7820059    5.1048913 
H     1.3699460   -2.4275608    5.1057764 
H    -4.7070983    0.4964987   -4.9300002 
H    -4.3552216   -1.1653032   -4.4210191 
H    -0.1194730   -5.6653097   -0.4433653 
H     1.3448971   -4.8087557   -0.9511584 
H     0.3103099    6.2385907    0.2074392 
H     1.3904391    4.8711263   -0.1363149 
H     0.4304589   -1.0441945    7.0028613 
H    -0.8409014   -1.5767739    5.8878029 
