102
Energy =
C     2.3380796   -1.1539509   -1.8183309 
C     2.7479215    0.1551521   -1.4878662 
C     2.9428839    0.5506444   -0.1270088 
H     2.7582982    0.9247266   -2.2696647 
Pd    0.8626891   -0.1078542   -0.3608457 
P    -0.1928508    0.7679813    1.5127718 
P    -1.4065177   -0.7902427   -0.5062133 
H     2.5006651   -1.9363589   -1.0602490 
H     3.3000603   -0.2218042    0.5704584 
C     1.5097950   -2.7090505   -5.7426094 
C     1.5102454   -3.5517625   -4.6203393 
C     1.7902935   -3.0303636   -3.3527363 
C     2.0650896   -1.6538244   -3.1734099 
C     2.0730167   -0.8206979   -4.3170382 
C     1.8001798   -1.3438421   -5.5846927 
H     1.2954691   -3.1143068   -6.7366531 
H     1.3005013   -4.6202517   -4.7351360 
H     1.8019203   -3.6964304   -2.4831472 
H     2.2922895    0.2471616   -4.2189426 
H     1.8139351   -0.6827713   -6.4573829 
C     3.6995043    4.5973513    1.1609344 
C     3.0507287    4.3623411   -0.0630810 
C     2.7998792    3.0542264   -0.4904113 
C     3.2081651    1.9456746    0.2880018 
C     3.8740182    2.1983380    1.5085881 
C     4.1110831    3.5084992    1.9441516 
H     3.8890667    5.6219988    1.4963121 
H     2.7329103    5.2052649   -0.6853813 
H     2.2664709    2.8926441   -1.4335844 
H     4.2180948    1.3552646    2.1174271 
H     4.6307958    3.6795186    2.8926744 
C    -2.6391173   -0.2277604   -1.8141656 
C    -1.7966067   -2.5592024   -0.0576921 
C    -0.1832218    2.6101333    1.7816860 
C     0.1887913   -0.0252778    3.1569512 
C    -1.9075035    0.2052425    1.0161518 
C    -2.4080684    1.2542608   -2.1961747 
C    -2.6526322   -1.1076363   -3.0839441 
C    -3.3000747   -2.8945842    0.0326457 
C    -1.0192865   -3.5627229   -0.9375118 
C    -0.6629335    3.3523985    0.5154936 
C    -0.9579760    3.0772103    3.0326802 
C     0.0793305   -1.5637425    3.0882944 
C     1.5943377    0.4039868    3.6320659 
C    -1.1597657    1.4564053   -3.0716802 
C    -1.4005759   -0.9085591   -3.9498915 
C    -3.4966859   -4.3415880    0.5263806 
C    -1.2448837   -5.0028797   -0.4432758 
C    -0.5466346    4.8759909    0.6956190 
C    -0.8528256    4.6066543    3.1966592 
C     0.4584686   -2.2155716    4.4311740 
C     1.9587468   -0.2512665    4.9761169 
C    -1.2130739    0.5700448   -4.3260328 
C    -2.7423818   -5.3443414   -0.3630469 
C    -1.3212552    5.3501942    1.9357679 
C     1.8569982   -1.7824091    4.8975275 
H    -3.6116150   -0.3213834   -1.2933200 
H    -1.3691535   -2.6334944    0.9612291 
H     0.8954456    2.8330201    1.9128206 
H    -0.5727508    0.3537702    3.8674489 
H    -2.4362218   -0.3844931    1.7853003 
H    -2.5469287    1.0622853    0.7430318 
H    -2.3594210    1.8935448   -1.2976662 
H    -3.3026487    1.5859335   -2.7580379 
H    -3.5505765   -0.8151840   -3.6628706 
H    -2.7893623   -2.1721122   -2.8278025 
H    -3.7673408   -2.7872492   -0.9636810 
H    -3.8172751   -2.1861832    0.7067886 
H     0.0544474   -3.3056187   -0.9183094 
H    -1.3418861   -3.4793037   -1.9917014 
H    -1.7249173    3.1015771    0.3260162 
H    -0.0870350    3.0120329   -0.3639833 
H    -0.5729065    2.5811413    3.9408813 
H    -2.0229323    2.7866771    2.9321452 
H     0.7504636   -1.9350838    2.2868581 
H    -0.9476377   -1.8638667    2.8133237 
H     1.6650423    1.5030692    3.7120031 
H     2.3270538    0.0948789    2.8629083 
H    -0.2533799    1.2028897   -2.4798741 
H    -1.0702619    2.5229351   -3.3455371 
H    -1.4673425   -1.5339560   -4.8569321 
H    -0.5094379   -1.2620846   -3.3966872 
H    -4.5748038   -4.5798220    0.5530024 
H    -3.1273984   -4.4226996    1.5679091 
H    -0.7896554   -5.1149978    0.5608610 
H    -0.7200018   -5.7108108   -1.1095951 
H    -0.9158208    5.3845790   -0.2129968 
H     0.5217256    5.1419745    0.8020648 
H     0.2025470    4.8688505    3.4065385 
H    -1.4405195    4.9231097    4.0766918 
H     0.4018557   -3.3145304    4.3341435 
H    -0.2894018   -1.9261209    5.1950052 
H     1.2751316    0.1257162    5.7616539 
H     2.9778875    0.0571206    5.2699906 
H    -2.0574100    0.8955103   -4.9653187 
H    -0.2958275    0.6962760   -4.9259920 
H    -2.8799443   -6.3710541    0.0194992 
H    -3.1766180   -5.3261776   -1.3822748 
H    -1.2001199    6.4397004    2.0692763 
H    -2.4039561    5.1690385    1.7843850 
H     2.0897586   -2.2343601    5.8776858 
H     2.6152982   -2.1632991    4.1847236 
