102
Energy =
C     2.4440244   -1.0457705   -1.5692424 
C     2.8593422    0.2676483   -1.2326778 
C     3.1509074    0.6135899    0.1179218 
H     2.7741443    1.0627217   -1.9831055 
Pd    1.0634147   -0.1559645   -0.0318138 
P    -0.1830757    0.7774799    1.7166876 
P    -1.1516355   -0.8654373   -0.3646637 
H     2.7451418   -1.8551525   -0.8852698 
H     3.5394029   -0.1887055    0.7627243 
C     1.1695811   -2.4657051   -5.4295102 
C     1.3631627   -3.3556804   -4.3614165 
C     1.7911297   -2.8769644   -3.1179758 
C     2.0210133   -1.4975084   -2.9071415 
C     1.8272320   -0.6138659   -3.9943885 
C     1.4131158   -1.0950854   -5.2411975 
H     0.8418514   -2.8373342   -6.4055569 
H     1.1883669   -4.4275252   -4.5008464 
H     1.9473019   -3.5775411   -2.2903529 
H     1.9992671    0.4601330   -3.8703602 
H     1.2789931   -0.3968082   -6.0736947 
C     3.9058848    4.5888921    1.6107796 
C     4.1927720    3.4603456    2.3936905 
C     3.9578574    2.1754695    1.8889820 
C     3.4132777    1.9858882    0.5972018 
C     3.1315515    3.1341013   -0.1795538 
C     3.3839744    4.4170813    0.3179161 
H     4.0981311    5.5943488    1.9985669 
H     4.6163496    3.5803486    3.3962966 
H     4.2070679    1.3016979    2.4993524 
H     2.7102077    3.0291757   -1.1846990 
H     3.1712054    5.2903978   -0.3072231 
C    -2.0365376   -0.4083644   -1.9441134 
C    -1.6693515   -2.5779409    0.1590644 
C    -0.1272312    2.6364576    1.8896234 
C    -0.1978968    0.0958832    3.4682223 
C    -1.8302233    0.2776748    0.9682061 
C    -1.6256477    1.0168397   -2.3791041 
C    -1.7603736   -1.4242787   -3.0752603 
C    -3.1716257   -2.8783733   -0.0302574 
C    -0.7664107   -3.6769396   -0.4438966 
C    -0.3934166    3.3047573    0.5220541 
C    -1.0434591    3.2197487    2.9861240 
C    -0.5200968   -1.4124615    3.5496569 
C     1.1258863    0.4042088    4.2103579 
C    -2.3354852    1.4286437   -3.6811235 
C    -2.4545952   -1.0026948   -4.3836844 
C    -3.5166368   -4.2637593    0.5507108 
C    -1.1377176   -5.0531053    0.1371911 
C    -0.2501450    4.8337479    0.6141086 
C    -0.9052138    4.7538511    3.0570594 
C     0.6367374   -2.3025581    3.0691535 
C     2.2792013   -0.5077149    3.7581675 
C    -2.0628160    0.4208795   -4.8079993 
C    -2.6313440   -5.3638769   -0.0586686 
C    -1.1725273    5.4158389    1.6965533 
C     1.9201270   -1.9985301    3.8580716 
H    -3.1184387   -0.4154873   -1.7000719 
H    -1.4647803   -2.5592149    1.2462674 
H     0.9327087    2.8283136    2.1549888 
H    -1.0246660    0.6539563    3.9463342 
H    -2.5405798   -0.1975987    1.6673396 
H    -2.3284772    1.1509516    0.5136074 
H    -0.5271420    1.0339692   -2.5272248 
H    -1.8486897    1.7489056   -1.5833615 
H    -2.1054314   -2.4308173   -2.7850701 
H    -0.6706653   -1.4931408   -3.2403956 
H    -3.4213775   -2.8643288   -1.1075254 
H    -3.7877321   -2.0960417    0.4513813 
H     0.2922013   -3.4376454   -0.2345208 
H    -0.8735149   -3.6969257   -1.5438121 
H    -1.4251107    3.0693813    0.1947246 
H     0.2903882    2.8872829   -0.2392941 
H    -0.8013703    2.7855340    3.9718741 
H    -2.0958843    2.9524036    2.7629382 
H    -1.4569369   -1.6450596    3.0114962 
H    -0.7274643   -1.6387050    4.6134339 
H     0.9366921    0.2498226    5.2901307 
H     1.4089375    1.4664440    4.0947485 
H    -2.0062300    2.4414782   -3.9751680 
H    -3.4255736    1.4918610   -3.4947034 
H    -3.5526870   -1.0576912   -4.2475617 
H    -2.1950206   -1.7271630   -5.1763631 
H    -4.5849395   -4.4825940    0.3755648 
H    -3.3729112   -4.2417341    1.6491828 
H    -0.8995626   -5.0629212    1.2195378 
H    -0.5138723   -5.8354133   -0.3309072 
H    -0.4699067    5.2840320   -0.3706657 
H     0.8009934    5.0799021    0.8529746 
H     0.1213414    5.0025786    3.3902956 
H    -1.5934332    5.1485158    3.8255272 
H     0.8222582   -2.1196341    1.9882897 
H     0.3565274   -3.3667474    3.1658882 
H     3.1821365   -0.2834957    4.3531786 
H     2.5223975   -0.2733223    2.7058687 
H    -2.6087007    0.7115732   -5.7229987 
H    -0.9851342    0.4396438   -5.0575302 
H    -2.8794120   -6.3427423    0.3881962 
H    -2.8476219   -5.4473716   -1.1421534 
H    -1.0337505    6.5088976    1.7707001 
H    -2.2297798    5.2502406    1.4087766 
H     1.7695901   -2.2748477    4.9198975 
H     2.7564635   -2.6172487    3.4865375 
