102
Energy =
C     2.3521175   -1.1196542   -1.6478138 
C     2.7125925    0.2136653   -1.3615120 
C     2.9394113    0.6370910   -0.0158025 
H     2.6701847    0.9626195   -2.1616714 
Pd    0.8659829   -0.1002068   -0.1790191 
P    -0.2440837    0.7639697    1.6877105 
P    -1.4070092   -0.7520829   -0.4026943 
H     2.5516813   -1.8700553   -0.8663560 
H     3.3457497   -0.1175449    0.6724461 
C     1.5745934   -2.8419770   -5.5099339 
C     1.5455810   -3.6332876   -4.3509038 
C     1.8076959   -3.0575763   -3.1035102 
C     2.0909601   -1.6762070   -2.9818325 
C     2.1311540   -0.8960673   -4.1615579 
C     1.8769135   -1.4740427   -5.4091798 
H     1.3757023   -3.2903223   -6.4885713 
H     1.3275061   -4.7038936   -4.4215906 
H     1.7973266   -3.6830013   -2.2043581 
H     2.3667531    0.1713440   -4.1079056 
H     1.9167495   -0.8545324   -6.3110344 
C     3.6502553    4.7089117    1.2153123 
C     3.9980340    3.6363030    2.0503372 
C     3.7714667    2.3180707    1.6347134 
C     3.1776014    2.0402694    0.3813747 
C     2.8266704    3.1332139   -0.4455369 
C     3.0705272    4.4488737   -0.0377061 
H     3.8356485    5.7397852    1.5334570 
H     4.4630129    3.8260675    3.0233889 
H     4.0694188    1.4880491    2.2834838 
H     2.3522198    2.9561887   -1.4166816 
H     2.8012874    5.2786716   -0.6992886 
C    -2.5926428   -0.1990962   -1.7584567 
C    -1.8428027   -2.5026521    0.0727547 
C    -0.1833563    2.6135508    1.9340615 
C    -0.1315793    0.0059575    3.4058942 
C    -1.9464605    0.2859205    1.0729102 
C    -2.3261193    1.2698068   -2.1676210 
C    -2.5994657   -1.1084020   -3.0070646 
C    -3.3516139   -2.8217314    0.1144370 
C    -1.0413694   -3.5384741   -0.7450713 
C    -0.5806833    3.3355284    0.6267991 
C    -1.0003804    3.1412184    3.1326615 
C    -0.4166962   -1.5119915    3.4346009 
C     1.2156008    0.3132332    4.1027986 
C    -1.0606627    1.4283843   -3.0268935 
C    -1.3330173   -0.9484504   -3.8592036 
C    -3.5792193   -4.2500072    0.6478712 
C    -1.2969773   -4.9596162   -0.2126833 
C    -0.4366250    4.8604725    0.7688846 
C    -0.8633688    4.6720913    3.2562296 
C     0.7353367   -2.3517466    2.8613022 
C     2.3678860   -0.5520350    3.5658410 
C    -1.1151076    0.5182174   -4.2639157 
C    -2.7992591   -5.2877521   -0.1770691 
C    -1.2574244    5.3888651    1.9556081 
C     2.0457543   -2.0542231    3.6076904 
H    -3.5776701   -0.2623106   -1.2566053 
H    -1.4588084   -2.5564946    1.1095087 
H     0.8947643    2.8064493    2.1100702 
H    -0.9473840    0.5224052    3.9463511 
H    -2.5703218   -0.2535390    1.8070105 
H    -2.5062203    1.1766165    0.7398186 
H    -2.2776827    1.9274477   -1.2821535 
H    -3.2050928    1.6074623   -2.7501472 
H    -3.4848114   -0.8177267   -3.6059791 
H    -2.7544737   -2.1645278   -2.7277552 
H    -3.7793671   -2.7430405   -0.9019688 
H    -3.8876215   -2.0877676    0.7451264 
H     0.0329667   -3.2880204   -0.6914131 
H    -1.3227666   -3.4857699   -1.8131412 
H    -1.6385305    3.1063113    0.3921967 
H     0.0276118    2.9561500   -0.2143421 
H    -0.6693742    2.6680472    4.0734681 
H    -2.0675349    2.8749822    2.9931181 
H    -1.3720773   -1.7441400    2.9305010 
H    -0.5680559   -1.7894195    4.4957541 
H     1.0754229    0.1105117    5.1820778 
H     1.4709600    1.3854366    4.0200870 
H    -0.1701606    1.1679394   -2.4153655 
H    -0.9446380    2.4870470   -3.3207056 
H    -1.3976400   -1.5924777   -4.7532602 
H    -0.4565716   -1.3044297   -3.2849307 
H    -4.6593989   -4.4801360    0.6405213 
H    -3.2513232   -4.2982233    1.7052211 
H    -0.8797217   -5.0398863    0.8109535 
H    -0.7536363   -5.6936711   -0.8344295 
H    -0.7495412    5.3487313   -0.1715880 
H     0.6309709    5.1056591    0.9187778 
H     0.1883038    4.9149906    3.5044195 
H    -1.4800241    5.0280216    4.1006413 
H     0.8658980   -2.1147327    1.7825713 
H     0.4826171   -3.4255397    2.9212768 
H     3.2894094   -0.3349417    4.1343891 
H     2.5630850   -0.2641479    2.5181117 
H    -1.9463397    0.8451656   -4.9194089 
H    -0.1893016    0.6162036   -4.8558644 
H    -2.9593443   -6.2996433    0.2350937 
H    -3.1945072   -5.3021260   -1.2120712 
H    -1.1167649    6.4788816    2.0635523 
H    -2.3360672    5.2272963    1.7595649 
H     1.9485603   -2.3852004    4.6600528 
H     2.8787523   -2.6335545    3.1707646 
