102
Energy =
C     2.3149555   -1.1095103   -1.8281394 
C     2.8223452    0.1055659   -1.2892561 
C     3.0880464    0.2381503    0.0976724 
H     2.8421672    0.9981215   -1.9265487 
Pd    0.9404168   -0.3292782   -0.2313834 
P    -0.4103415    0.6488418    1.4376455 
P    -1.2326981   -1.1435912   -0.6113348 
H     2.5913586   -2.0416622   -1.3125136 
H     3.2950700   -0.6865286    0.6589111 
C     1.0533139   -1.6423621   -5.9153313 
C     1.0277240   -0.3612829   -5.3377860 
C     1.4353448   -0.1765857   -4.0130255 
C     1.8851752   -1.2675116   -3.2322790 
C     1.9225027   -2.5462161   -3.8340473 
C     1.5071614   -2.7326661   -5.1588610 
H     0.7304131   -1.7856601   -6.9514922 
H     0.6860865    0.4977897   -5.9244642 
H     1.3943427    0.8269180   -3.5759787 
H     2.2968017   -3.4000310   -3.2591052 
H     1.5480040   -3.7318479   -5.6047750 
C     4.3388143    3.8127349    2.1494718 
C     4.3043537    2.5760894    2.8125612 
C     3.9110170    1.4219970    2.1253249 
C     3.5271649    1.4776642    0.7653120 
C     3.5747803    2.7299473    0.1088545 
C     3.9815619    3.8809142    0.7925634 
H     4.6518322    4.7162162    2.6823520 
H     4.5938618    2.5096926    3.8663964 
H     3.8990009    0.4578093    2.6460286 
H     3.2878109    2.8124064   -0.9443183 
H     4.0181399    4.8394783    0.2649198 
C    -2.0716565   -0.8147743   -2.2410997 
C    -1.7673511   -2.8739256   -0.0996204 
C    -0.6093884    2.5132418    1.4293482 
C    -0.3084760    0.1790752    3.2551843 
C    -1.9987775   -0.0362359    0.6951522 
C    -3.5781687   -1.1529135   -2.2736337 
C    -1.8304094    0.6364475   -2.7067832 
C    -1.5401538   -3.9303014   -1.2038413 
C    -1.0801379   -3.3196807    1.2115316 
C     0.5395716    3.2085526    2.1947359 
C    -0.6821493    3.0277699   -0.0250612 
C    -1.6495997   -0.2217685    3.9030672 
C     0.7965937   -0.8636470    3.5270766 
C    -4.1543158   -0.9172949   -3.6846366 
C    -2.3904743    0.8536588   -4.1227395 
C    -0.0496199   -4.2350627   -1.4083780 
C     0.4079925   -3.6595908    1.0207933 
C     0.4220875    4.7419442    2.1214958 
C    -0.8045403    4.5607407   -0.0819061 
C    -1.4665888   -0.4574366    5.4154407 
C     0.9612523   -1.1001338    5.0387353 
C    -3.8885708    0.5124842   -4.1826601 
C     0.6201813   -4.6883892   -0.1012345 
C     0.3488395    5.2400598    0.6704402 
C    -0.3717931   -1.5012084    5.6925797 
H    -1.5263107   -1.4852191   -2.9369068 
H    -2.8532659   -2.7604835    0.0829494 
H    -1.5726315    2.7197432    1.9408447 
H     0.0159671    1.1257925    3.7262801 
H    -2.6502564   -0.5697875    1.4075272 
H    -2.5905981    0.7742021    0.2346882 
H    -4.1080082   -0.5084981   -1.5440068 
H    -3.7606389   -2.1980258   -1.9694655 
H    -0.7535912    0.8748520   -2.6618379 
H    -2.3433368    1.3299037   -2.0123886 
H    -2.0088306   -3.6241125   -2.1552909 
H    -2.0670533   -4.8504584   -0.8841880 
H    -1.6170528   -4.2173116    1.5739397 
H    -1.2047596   -2.5529316    1.9976507 
H     1.5028230    2.8940046    1.7568313 
H     0.5541501    2.8972616    3.2536824 
H    -1.5314070    2.5671632   -0.5577505 
H     0.2365562    2.7047975   -0.5557157 
H    -2.0219769   -1.1571624    3.4415195 
H    -2.4164420    0.5544913    3.7244363 
H     1.7462052   -0.5233816    3.0780313 
H     0.5377984   -1.8156350    3.0308223 
H    -5.2378284   -1.1317213   -3.6798459 
H    -3.6905983   -1.6419447   -4.3822940 
H    -1.8314475    0.2119904   -4.8306338 
H    -2.2173905    1.8995546   -4.4341932 
H     0.4480718   -3.3207848   -1.7815166 
H     0.0726891   -5.0007432   -2.1943518 
H     0.8307038   -4.0275727    1.9726098 
H     0.9605915   -2.7263666    0.7720932 
H     1.2871281    5.1903282    2.6421073 
H    -0.4845717    5.0670080    2.6687622 
H    -1.7701029    4.8648199    0.3676242 
H    -0.8304906    4.8872761   -1.1371469 
H    -2.4276638   -0.7748980    5.8576471 
H    -1.1951332    0.5005764    5.9003143 
H     1.3375176   -0.1712111    5.5111378 
H     1.7280032   -1.8762198    5.2130877 
H    -4.2691873    0.6333070   -5.2122638 
H    -4.4509395    1.2293946   -3.5520700 
H     0.1923968   -5.6615315    0.2093387 
H     1.7004113   -4.8582486   -0.2614071 
H     0.2301471    6.3377785    0.6469772 
H     1.3032577    5.0095514    0.1588854 
H    -0.2398801   -1.6339732    6.7808261 
H    -0.6938997   -2.4827888    5.2912988 
