102
Energy =
C     2.3686464   -1.3851648   -1.8992925 
C     2.8984174   -0.1857897   -1.3660860 
C     3.1324445   -0.0366728    0.0326645 
H     2.9596063    0.6965409   -2.0144837 
Pd    1.0034302   -0.4689129   -0.2728924 
P    -0.0010660    0.6512688    1.4989972 
P    -1.3208251   -0.8788639   -0.4700269 
H     2.5301996   -2.3093567   -1.3234805 
H     3.3697281   -0.9490407    0.6010912 
C     1.2411167   -2.0543139   -6.0002642 
C     1.4602739   -3.1326450   -5.1305009 
C     1.8361067   -2.8990875   -3.8020167 
C     1.9938039   -1.5831092   -3.3095054 
C     1.7764335   -0.5061574   -4.2029032 
C     1.4078371   -0.7399708   -5.5309481 
H     0.9493632   -2.2344639   -7.0399013 
H     1.3456423   -4.1605898   -5.4897009 
H     2.0196015   -3.7471400   -3.1329744 
H     1.8791786    0.5267491   -3.8532662 
H     1.2433809    0.1072180   -6.2048786 
C     4.0768323    3.6282702    2.1031931 
C     4.0904491    2.3956621    2.7754247 
C     3.8176341    1.2120981    2.0792172 
C     3.5037091    1.2304013    0.6999356 
C     3.5095771    2.4777057    0.0339741 
C     3.7989172    3.6594647    0.7268886 
H     4.2964015    4.5548798    2.6429817 
H     4.3265743    2.3551778    3.8439880 
H     3.8435314    0.2542626    2.6106813 
H     3.2795644    2.5339095   -1.0345908 
H     3.8073941    4.6129674    0.1887294 
C    -2.2320708   -0.0847167   -1.8883168 
C    -2.1210074   -2.5335113   -0.0686522 
C     0.1535297    2.5022044    1.3838176 
C     0.3535852    0.1910881    3.2780326 
C    -1.7497185    0.1759234    1.0293784 
C    -1.6901448   -0.5479630   -3.2577741 
C    -3.7698888   -0.1789171   -1.8109604 
C    -2.1490913   -3.5080437   -1.2657281 
C    -1.4122264   -3.2052939    1.1328863 
C    -0.1231038    2.9740938   -0.0611430 
C    -0.6803359    3.2946319    2.4124147 
C    -0.8797225    0.1821486    4.2080786 
C     1.1213155   -1.1448780    3.3893215 
C    -2.3423073    0.2595169   -4.3931152 
C    -4.4108827    0.6242126   -2.9610932 
C    -0.7388808   -3.9808466   -1.6483048 
C    -0.0069213   -3.7233344    0.7783236 
C     0.1035844    4.4892514   -0.2042050 
C    -0.4468787    4.8099321    2.2475943 
C    -0.4484687   -0.0697643    5.6664766 
C     1.5548768   -1.3994957    4.8435812 
C    -3.8769900    0.1735611   -4.3321003 
C    -0.0274199   -4.6422684   -0.4551681 
C    -0.7361730    5.2784913    0.8130320 
C     0.3504418   -1.3767809    5.7999206 
H    -1.9413125    0.9796301   -1.7665277 
H    -3.1560428   -2.2653118    0.2172704 
H     1.2291021    2.6656505    1.5970557 
H     1.0371398    1.0041272    3.5975170 
H    -2.2739365   -0.3899694    1.8174708 
H    -2.3719439    1.0500608    0.7683994 
H    -1.9066601   -1.6214216   -3.4075256 
H    -0.5925948   -0.4448364   -3.2834588 
H    -4.1380470    0.1894570   -0.8350406 
H    -4.0790969   -1.2383861   -1.8914600 
H    -2.6629523   -3.0575640   -2.1316592 
H    -2.7632493   -4.3782221   -0.9619095 
H    -2.0472855   -4.0541801    1.4517331 
H    -1.3649505   -2.5203978    2.0001058 
H    -1.1736030    2.7434016   -0.3293146 
H     0.5177821    2.4105437   -0.7659347 
H    -0.4164787    2.9907706    3.4402823 
H    -1.7562678    3.0688971    2.2716556 
H    -1.5632495   -0.6305688    3.8926329 
H    -1.4474834    1.1252638    4.1306344 
H     1.9934318   -1.1410752    2.7130563 
H     0.4672328   -1.9691413    3.0496234 
H    -1.9679281   -0.1060257   -5.3659159 
H    -2.0283985    1.3193427   -4.3099371 
H    -4.1895685    1.7000783   -2.8155939 
H    -5.5095787    0.5186038   -2.9183445 
H    -0.1503794   -3.1110317   -1.9984517 
H    -0.7942478   -4.6804020   -2.5005962 
H     0.4258093   -4.2490400    1.6481623 
H     0.6571555   -2.8529459    0.5779524 
H    -0.1355530    4.8038355   -1.2358697 
H     1.1765385    4.7051419   -0.0422020 
H     0.6069434    5.0358718    2.5022421 
H    -1.0750210    5.3592050    2.9712699 
H    -1.3415437   -0.0932045    6.3160183 
H     0.1713296    0.7815151    6.0100259 
H     2.2807571   -0.6177287    5.1439048 
H     2.0849387   -2.3663301    4.9111129 
H    -4.3283021    0.7846120   -5.1336876 
H    -4.1902061   -0.8727650   -4.5185754 
H    -0.5511210   -5.5836415   -0.1979578 
H     1.0044763   -4.9258124   -0.7322951 
H    -0.5357467    6.3602290    0.7171046 
H    -1.8124341    5.1358727    0.5904527 
H     0.6867198   -1.5134254    6.8427365 
H    -0.3131791   -2.2332210    5.5674876 
