102
Energy =
C     2.3204786   -1.2012783   -1.4919373 
C     2.8296107    0.0911620   -1.2000188 
C     3.1321152    0.4951083    0.1247896 
H     2.8439405    0.8461582   -1.9951546 
Pd    0.9533733   -0.1544412   -0.0575174 
P    -0.4183517    0.8163396    1.6215246 
P    -1.2226009   -0.9376667   -0.4528616 
H     2.5578614   -2.0077305   -0.7810022 
H     3.4016962   -0.2912649    0.8458085 
C     1.1953997   -2.6266215   -5.4003513 
C     1.3650542   -3.5185529   -4.3302343 
C     1.7401156   -3.0398723   -3.0693275 
C     1.9374214   -1.6586365   -2.8422212 
C     1.7680342   -0.7728642   -3.9325719 
C     1.4094426   -1.2532406   -5.1965769 
H     0.9088312   -2.9984455   -6.3891885 
H     1.2152387   -4.5926213   -4.4812233 
H     1.8866637   -3.7443940   -2.2437736 
H     1.9085278    0.3041031   -3.7953996 
H     1.2915596   -0.5520047   -6.0290472 
C     4.4168462    4.4554849    1.2311526 
C     4.6928365    3.3563055    2.0576461 
C     4.2793758    2.0716428    1.6826149 
C     3.5700679    1.8581471    0.4789601 
C     3.3034117    2.9779152   -0.3462616 
C     3.7264069    4.2582090    0.0229461 
H     4.7416198    5.4597095    1.5217843 
H     5.2416250    3.4978778    2.9944670 
H     4.5169140    1.2172034    2.3251357 
H     2.7362344    2.8517406   -1.2747043 
H     3.5074413    5.1106151   -0.6283903 
C    -2.0725864   -0.4519072   -2.0422853 
C    -1.7045062   -2.6763584    0.0186650 
C    -0.6851084    2.6628184    1.6914291 
C    -0.4671668    0.1429136    3.3824747 
C    -2.0001349    0.1428637    0.8671806 
C    -1.6389341    0.9813715   -2.4304785 
C    -1.7948987   -1.4428035   -3.1938480 
C    -3.1986832   -2.9972282   -0.2018274 
C    -0.7726087   -3.7420119   -0.5957069 
C    -1.8314379    3.1083115    2.6235731 
C     0.6118306    3.4526178    1.9667395 
C    -0.3969331   -1.4016904    3.4073038 
C     0.6411042    0.7151484    4.2925755 
C    -2.3212633    1.4368186   -3.7325835 
C    -2.4581129   -0.9741743   -4.5024205 
C    -3.5290163   -4.4058650    0.3296477 
C    -1.1315837   -5.1422236   -0.0661131 
C    -2.0738739    4.6249476    2.4816161 
C     0.3580160    4.9632856    1.8234005 
C     0.9854130   -1.9385466    2.9995823 
C     2.0322625    0.2184909    3.8713636 
C    -2.0374465    0.4547128   -4.8797326 
C    -2.6156788   -5.4708392   -0.3001420 
C    -0.7876492    5.4296864    2.7373355 
C     2.1058428   -1.3190223    3.8533070 
H    -3.1579750   -0.4529355   -1.8132460 
H    -1.5149404   -2.6786183    1.1103315 
H    -0.9823484    2.8765026    0.6428027 
H    -1.4579753    0.4681137    3.7531763 
H    -2.6490381   -0.4056479    1.5725373 
H    -2.5943902    0.9575888    0.4177972 
H    -0.5382838    0.9884414   -2.5610322 
H    -1.8644077    1.6946221   -1.6154941 
H    -2.1645398   -2.4490437   -2.9344296 
H    -0.7048735   -1.5297121   -3.3426859 
H    -3.4319454   -2.9536989   -1.2819166 
H    -3.8356658   -2.2408871    0.2936968 
H     0.2757840   -3.4920210   -0.3527377 
H    -0.8543970   -3.7292485   -1.6976849 
H    -1.5592226    2.8814043    3.6721270 
H    -2.7609104    2.5503020    2.4035531 
H     1.4080884    3.1259308    1.2802818 
H     0.9704353    3.2440873    2.9910257 
H    -1.1918907   -1.8469959    2.7824730 
H    -0.6205681   -1.7176437    4.4444980 
H     0.4207983    0.3761078    5.3235616 
H     0.6072494    1.8171198    4.3178530 
H    -1.9755151    2.4529446   -3.9942405 
H    -3.4139776    1.5069552   -3.5651044 
H    -3.5593133   -1.0150968   -4.3881597 
H    -2.1954291   -1.6802892   -5.3104142 
H    -4.5906447   -4.6358148    0.1299673 
H    -3.4032295   -4.4168944    1.4304191 
H    -0.9133292   -5.1845062    1.0196418 
H    -0.4857370   -5.8980063   -0.5478952 
H    -2.8727669    4.9377952    3.1773221 
H    -2.4435951    4.8355143    1.4586068 
H     0.1063715    5.1885125    0.7678479 
H     1.2889156    5.5131748    2.0491719 
H     1.1630408   -1.7002077    1.9258282 
H     0.9978119   -3.0402984    3.0795916 
H     2.8001604    0.6318496    4.5485751 
H     2.2561367    0.6153501    2.8633289 
H    -2.5591848    0.7773133   -5.7980615 
H    -0.9542273    0.4656362   -5.1060737 
H    -2.8552534   -6.4679490    0.1093813 
H    -2.8113076   -5.5212053   -1.3895769 
H    -0.9803689    6.5076149    2.5937159 
H    -0.4834346    5.3019513    3.7951298 
H     2.0185907   -1.6966421    4.8907890 
H     3.0932657   -1.6508731    3.4835992 
