102
Energy =
C     2.4613299   -1.2681368   -1.5283955 
C     2.8128020    0.0961515   -1.3979639 
C     2.9084685    0.7099972   -0.1097067 
H     2.8241375    0.7324005   -2.2920118 
Pd    0.8715079   -0.1267919   -0.3880987 
P    -0.5293253    0.5404639    1.3823807 
P    -1.2310284   -1.0475401   -0.8303299 
H     2.6325123   -1.9127168   -0.6519559 
H     3.2582179    0.0830035    0.7235141 
C     1.6137185   -3.4731311   -5.1248385 
C     1.5503198   -4.0926473   -3.8662751 
C     1.8537070   -3.3635047   -2.7119232 
C     2.2130115   -1.9965285   -2.7838806 
C     2.3028457   -1.3962873   -4.0608429 
C     2.0026901   -2.1267376   -5.2158924 
H     1.3805180   -4.0408181   -6.0313547 
H     1.2734485   -5.1492070   -3.7862672 
H     1.8129796   -3.8541351   -1.7336145 
H     2.6151618   -0.3520714   -4.1578593 
H     2.0800442   -1.6446374   -6.1958995 
C     3.2651533    4.9539734    0.5536914 
C     3.6884588    4.0391441    1.5297682 
C     3.5874857    2.6620518    1.2956048 
C     3.0518060    2.1673100    0.0857261 
C     2.6332712    3.1028109   -0.8907937 
C     2.7433430    4.4779319   -0.6609826 
H     3.3452401    6.0306805    0.7345915 
H     4.1071243    4.4000341    2.4750537 
H     3.9335465    1.9551892    2.0582020 
H     2.1881581    2.7526572   -1.8288772 
H     2.4104982    5.1844257   -1.4285698 
C    -2.2834749   -0.2141038   -2.1454109 
C    -1.4611733   -2.8792400   -1.0831958 
C    -1.2539926    2.2511941    1.5485464 
C    -0.0087006   -0.0679288    3.0705670 
C    -1.9561791   -0.5581926    0.8291153 
C    -2.5699864    1.2807643   -1.8773152 
C    -1.6537100   -0.4025534   -3.5492832 
C    -0.6917116   -3.6713272   -0.0033338 
C    -2.9251452   -3.3580557   -1.1814763 
C    -2.1542249    2.4396959    2.7880109 
C    -0.1899801    3.3628425    1.4249690 
C     0.4689944   -1.5356616    2.9887920 
C     1.1010391    0.8413166    3.6455208 
C    -1.3524820    2.1888787   -2.1128105 
C    -0.4564459    0.5317983   -3.7927317 
C    -0.7457930   -5.1825971   -0.2892404 
C    -2.9837752   -4.8767321   -1.4439032 
C    -2.8123308    3.8338689    2.7594186 
C    -0.8630437    4.7457863    1.4077399 
C     0.9883650   -2.0417519    4.3464005 
C     1.6232088    0.3168519    4.9954517 
C    -0.8018264    2.0055922   -3.5345946 
C    -2.1995844   -5.6732684   -0.3888588 
C    -1.7613992    4.9510267    2.6390648 
C     2.1044789   -1.1379253    4.8915620 
H    -3.2420793   -0.7636148   -2.0978549 
H    -0.9552692   -3.0574316   -2.0541427 
H    -1.8967985    2.3168857    0.6494070 
H    -0.9050579   -0.0132325    3.7199492 
H    -2.0477282   -1.4419552    1.4836884 
H    -2.9387396   -0.0561386    0.7904674 
H    -2.9880169    1.4259888   -0.8646544 
H    -3.3768288    1.5792831   -2.5743184 
H    -2.4451815   -0.1854849   -4.2922881 
H    -1.3545838   -1.4538143   -3.7150863 
H    -1.1525287   -3.4828443    0.9859632 
H     0.3516925   -3.3120160    0.0610500 
H    -3.4605894   -2.8254980   -1.9869148 
H    -3.4495072   -3.1236072   -0.2335759 
H    -1.5436772    2.3464751    3.7061257 
H    -2.9281063    1.6505166    2.8343463 
H     0.4098447    3.2108540    0.5125505 
H     0.5170663    3.3108837    2.2722444 
H     1.2779749   -1.6023932    2.2322835 
H    -0.3464198   -2.1901729    2.6350931 
H     0.7301873    1.8730816    3.7660894 
H     1.9315398    0.8886238    2.9157545 
H    -0.5508730    1.9359070   -1.3845134 
H    -1.6282080    3.2420860   -1.9254575 
H    -0.0817212    0.3866390   -4.8203300 
H     0.3665619    0.2361897   -3.1121274 
H    -0.2026682   -5.7307173    0.5011574 
H    -0.2198915   -5.3902791   -1.2418621 
H    -2.5605909   -5.0802072   -2.4470563 
H    -4.0381764   -5.2041633   -1.4730571 
H    -3.4247096    3.9720010    3.6683026 
H    -3.5066822    3.8868368    1.8976841 
H    -1.4729571    4.8394720    0.4867919 
H    -0.0866668    5.5296414    1.3543688 
H     1.3444659   -3.0818057    4.2376216 
H     0.1495098   -2.0679317    5.0691117 
H     0.8124694    0.3827418    5.7470813 
H     2.4370795    0.9736263    5.3513071 
H    -1.5574573    2.3470268   -4.2688374 
H     0.0914890    2.6386477   -3.6849001 
H    -2.2248847   -6.7509147   -0.6284337 
H    -2.6906911   -5.5576413    0.5976204 
H    -2.2589074    5.9358910    2.5924056 
H    -1.1322547    4.9582422    3.5511970 
H     2.4460582   -1.5012620    5.8766675 
H     2.9802335   -1.1880285    4.2138776 
