102
Energy =
C     2.3076554   -1.4775926   -1.4162136 
C     2.7251878   -0.1272476   -1.3584104 
C     2.9638704    0.5135302   -0.1044803 
H     2.6992092    0.4808132   -2.2716520 
Pd    0.8469825   -0.2310094   -0.2110071 
P    -0.5114776    0.5309064    1.5848629 
P    -1.3261297   -0.9553869   -0.6730873 
H     2.5076595   -2.0982657   -0.5287944 
H     3.3547752   -0.1080386    0.7131799 
C     1.1775919   -3.7754436   -4.8726573 
C     1.1172476   -4.3320317   -3.5847589 
C     1.5110058   -3.5746835   -2.4769450 
C     1.9584708   -2.2401817   -2.6256506 
C     2.0473113   -1.7069431   -3.9321894 
C     1.6561366   -2.4657965   -5.0407833 
H     0.8740912   -4.3659107   -5.7430811 
H     0.7721114   -5.3620040   -3.4461406 
H     1.4728210   -4.0160123   -1.4752506 
H     2.4351326   -0.6959926   -4.0886907 
H     1.7344696   -2.0365703   -6.0449676 
C     3.6034358    4.7504585    0.3521396 
C     4.1119270    3.8460406    1.2963495 
C     3.9181530    2.4686270    1.1299237 
C     3.2018623    1.9645283    0.0209633 
C     2.7012845    2.8904562   -0.9271230 
C     2.9031445    4.2643408   -0.7653367 
H     3.7546857    5.8269262    0.4817366 
H     4.6701005    4.2142982    2.1634281 
H     4.3329624    1.7700736    1.8642939 
H     2.1203197    2.5331725   -1.7841603 
H     2.5027270    4.9627794   -1.5076040 
C    -2.3127450   -0.0367255   -1.9842201 
C    -1.7086644   -2.7620730   -0.9232309 
C    -1.0279568    2.3185488    1.6976815 
C    -0.2943843   -0.1242620    3.3402668 
C    -2.0305526   -0.3964011    0.9691947 
C    -2.4402895    1.4828334   -1.7309309 
C    -1.7484722   -0.3042076   -3.4011741 
C    -1.0445580   -3.6061614    0.1870113 
C    -3.2039461   -3.1155009   -1.0682303 
C    -2.0625980    2.6361905    2.7970283 
C     0.1838914    3.2746835    1.7411447 
C     0.0780010   -1.6261009    3.3516660 
C     0.7377355    0.6695015    4.1701535 
C    -1.1431158    2.2587392   -2.0074967 
C    -0.4677004    0.4976850   -3.6849618 
C    -1.2200783   -5.1105853   -0.0853294 
C    -3.3834590   -4.6269361   -1.3177490 
C    -2.5179926    4.1053227    2.6835014 
C    -0.2882622    4.7349346    1.6366417 
C     1.5152901   -1.8827096    2.8698483 
C     2.1697523    0.4494532    3.6617947 
C    -0.6513469    2.0023721   -3.4395748 
C    -2.7070034   -5.4746043   -0.2285698 
C    -1.3218340    5.0721814    2.7245097 
C     2.5416546   -1.0439151    3.6502756 
H    -3.3203257   -0.4855121   -1.9005612 
H    -1.1885889   -2.9924768   -1.8754717 
H    -1.5192190    2.4710078    0.7175537 
H    -1.3014716    0.0057714    3.7808752 
H    -2.2432838   -1.2649576    1.6161502 
H    -2.9485099    0.2136991    0.9044836 
H    -2.8157053    1.6829914   -0.7110144 
H    -3.2299399    1.8531784   -2.4130049 
H    -2.5331480   -0.0122841   -4.1255081 
H    -1.5657130   -1.3826464   -3.5613244 
H    -1.5192607   -3.3679985    1.1588896 
H     0.0236952   -3.3373039    0.2825776 
H    -3.6626787   -2.5501478   -1.8982427 
H    -3.7395563   -2.8247749   -0.1424512 
H    -1.6107199    2.4725833    3.7933418 
H    -2.9342791    1.9588500    2.7243870 
H     0.8829581    3.0337002    0.9236344 
H     0.7426532    3.1392572    2.6850556 
H    -0.6371943   -2.2211841    2.7572862 
H    -0.0286993   -1.9757820    4.3967206 
H     0.6549764    0.3124915    5.2153000 
H     0.4896837    1.7439444    4.1923804 
H    -0.3550108    1.9339400   -1.2930111 
H    -1.3052903    3.3370521   -1.8301195 
H    -0.1333575    0.3030380   -4.7183491 
H     0.3332659    0.1257533   -3.0174125 
H    -0.7524934   -5.6929579    0.7285406 
H    -0.6837648   -5.3754029   -1.0174902 
H    -2.9451216   -4.8783011   -2.3034382 
H    -4.4604389   -4.8633993   -1.3809326 
H    -3.2317094    4.3351836    3.4946461 
H    -3.0670013    4.2391636    1.7303766 
H    -0.7374295    4.8961795    0.6360538 
H     0.5848841    5.4081052    1.7020409 
H     1.5742029   -1.6263961    1.7891660 
H     1.7492136   -2.9592467    2.9497800 
H     2.8812818    1.0185199    4.2855643 
H     2.2476892    0.8640356    2.6389883 
H    -1.3861492    2.4123715   -4.1596513 
H     0.2984032    2.5372667   -3.6230753 
H    -2.8182289   -6.5490644   -0.4577917 
H    -3.2181686   -5.3036954    0.7394728 
H    -1.6724952    6.1133977    2.6123135 
H    -0.8369843    5.0082436    3.7187859 
H     2.5912298   -1.4114121    4.6938218 
H     3.5517096   -1.1848842    3.2235205 
