102
Energy =
C     2.3726659   -1.1423726   -1.6177525 
C     2.8297910    0.1666785   -1.3209281 
C     3.1694464    0.5315406    0.0134921 
H     2.7415482    0.9486098   -2.0846745 
Pd    1.0606266   -0.1864205   -0.0592219 
P    -0.1069526    0.8150506    1.7054923 
P    -1.1823471   -0.8396158   -0.3132823 
H     2.6732284   -1.9446815   -0.9252798 
H     3.5570959   -0.2677163    0.6625208 
C     0.9438217   -2.6094906   -5.4055352 
C     1.1428997   -3.4807025   -4.3230688 
C     1.6217866   -2.9873009   -3.1042194 
C     1.8983466   -1.6109576   -2.9324248 
C     1.6988887   -0.7465955   -4.0340363 
C     1.2335370   -1.2430288   -5.2566022 
H     0.5761167   -2.9929068   -6.3626008 
H     0.9323526   -4.5496233   -4.4322124 
H     1.7816529   -3.6734198   -2.2652613 
H     1.9068560    0.3241227   -3.9403846 
H     1.0954630   -0.5599739   -6.1009884 
C     4.0598439    4.5143257    1.4083710 
C     4.3351874    3.3942052    2.2074081 
C     4.0566421    2.1062570    1.7337436 
C     3.4785826    1.9056680    0.4582961 
C     3.2091813    3.0453408   -0.3351203 
C     3.5054080    4.3308216    0.1307814 
H     4.2861040    5.5218632    1.7716303 
H     4.7836324    3.5227623    3.1980708 
H     4.2968722    1.2383945    2.3560265 
H     2.7631017    2.9318711   -1.3286008 
H     3.3014628    5.1969283   -0.5071873 
C    -2.0985221   -0.3859909   -1.8758313 
C    -1.7354590   -2.5256977    0.2579112 
C     0.0036776    2.6747551    1.8408630 
C    -0.0870195    0.1663849    3.4693912 
C    -1.7888754    0.3474281    1.0159160 
C    -1.6610391    1.0191337   -2.3486192 
C    -1.8820809   -1.4296751   -2.9946555 
C    -3.2509092   -2.7829789    0.1162182 
C    -0.8835812   -3.6626551   -0.3488661 
C    -0.2863070    3.3240223    0.4689790 
C    -0.8639317    3.3020897    2.9525383 
C    -0.4545475   -1.3288390    3.5907664 
C     1.2692722    0.4456104    4.1628900 
C    -2.3946151    1.4267279   -3.6387063 
C    -2.5994479   -1.0125186   -4.2919283 
C    -3.6212912   -4.1463811    0.7323790 
C    -1.2803604   -5.0163165    0.2672172 
C    -0.1026879    4.8503405    0.5267896 
C    -0.6863806    4.8333368    2.9888131 
C     0.6574966   -2.2655031    3.0932745 
C     2.3775591   -0.5128292    3.6942760 
C    -2.1801482    0.3915661   -4.7532324 
C    -2.7877546   -5.2839079    0.1187510 
C    -0.9781708    5.4756544    1.6239664 
C     1.9738596   -1.9886737    3.8364163 
H    -3.1729307   -0.3583155   -1.6020426 
H    -1.4997274   -2.4931382    1.3384337 
H     1.0756870    2.8432085    2.0710046 
H    -0.8797831    0.7596147    3.9624661 
H    -2.4905557   -0.0947261    1.7447942 
H    -2.2766716    1.2254477    0.5591560 
H    -0.5669482    1.0033234   -2.5263888 
H    -1.8424009    1.7713544   -1.5611808 
H    -2.2471979   -2.4205339   -2.6762918 
H    -0.7996437   -1.5327481   -3.1874888 
H    -3.5308078   -2.7806719   -0.9537406 
H    -3.8287343   -1.9732860    0.6000492 
H     0.1871866   -3.4525933   -0.1727515 
H    -1.0215353   -3.6986092   -1.4449031 
H    -1.3327625    3.1088412    0.1767132 
H     0.3638597    2.8750343   -0.3038399 
H    -0.6022863    2.8809999    3.9389681 
H    -1.9289958    3.0569311    2.7667411 
H    -1.4146940   -1.5409157    3.0863301 
H    -0.6357459   -1.5278842    4.6647354 
H     1.1100484    0.3194342    5.2511157 
H     1.5827026    1.4953940    4.0158114 
H    -2.0461177    2.4245924   -3.9604382 
H    -3.4771171    1.5233524   -3.4245311 
H    -3.6945562   -1.0341688   -4.1258467 
H    -2.3814281   -1.7582602   -5.0773890 
H    -4.7003618   -4.3350723    0.5914281 
H    -3.4454090   -4.1094436    1.8257196 
H    -1.0119772   -5.0149328    1.3425091 
H    -0.6943323   -5.8256187   -0.2038400 
H    -0.3403414    5.2872774   -0.4598396 
H     0.9607727    5.0745002    0.7301398 
H     0.3554092    5.0628166    3.2865239 
H    -1.3415178    5.2595117    3.7692883 
H     0.8153199   -2.1095482    2.0038316 
H     0.3461957   -3.3178650    3.2199393 
H     3.3057210   -0.3066834    4.2560812 
H     2.5947101   -0.3079480    2.6301346 
H    -2.7422645    0.6808460   -5.6588076 
H    -1.1094210    0.3756452   -5.0314438 
H    -3.0527723   -6.2466977    0.5901218 
H    -3.0372420   -5.3794808   -0.9565874 
H    -0.8109527    6.5661636    1.6723740 
H    -2.0472062    5.3307210    1.3706086 
H     1.8474682   -2.2387486    4.9078390 
H     2.7777790   -2.6418365    3.4525251 
