102
Energy =
C     2.1947870   -1.3525994   -1.8746109 
C     2.7299647   -0.1916587   -1.2608691 
C     2.9313444   -0.1246967    0.1446910 
H     2.8251201    0.7233169   -1.8580253 
Pd    0.7941254   -0.5170302   -0.2543566 
P    -0.3375576    0.5862868    1.4620717 
P    -1.4853514   -1.1651511   -0.4526153 
H     2.3666818   -2.3149387   -1.3695256 
H     3.0790251   -1.0787326    0.6745918 
C     1.1572354   -1.6831918   -6.0412873 
C     1.4361194   -2.8276857   -5.2802105 
C     1.7818037   -2.7063345   -3.9282667 
C     1.8462015   -1.4394618   -3.3038663 
C     1.5683140   -0.2944971   -4.0882694 
C     1.2330155   -0.4150812   -5.4395573 
H     0.8885218   -1.7755141   -7.0984882 
H     1.3940270   -3.8190372   -5.7430956 
H     2.0176159   -3.6039695   -3.3466923 
H     1.5911028    0.7004915   -3.6307529 
H     1.0207634    0.4836220   -6.0281215 
C     4.2570452    3.3005706    2.4013952 
C     4.0359395    2.0641515    3.0290701 
C     3.6182423    0.9599656    2.2772925 
C     3.3958937    1.0671147    0.8844635 
C     3.6282627    2.3170240    0.2657994 
C     4.0590537    3.4178838    1.0160468 
H     4.5912812    4.1640180    2.9851891 
H     4.1998750    1.9580780    4.1065893 
H     3.4589708   -0.0052246    2.7715713 
H     3.4786939    2.4360697   -0.8119064 
H     4.2405495    4.3749260    0.5162917 
C    -2.5714244   -0.7090825   -1.9211722 
C    -2.0352810   -2.9259918   -0.0547906 
C    -0.5452425    2.4325352    1.2063194 
C     0.0431410    0.3266759    3.2622542 
C    -2.0037582   -0.1736286    1.0602119 
C    -3.4515737    0.5437094   -1.7407240 
C    -1.6724532   -0.5920690   -3.1712229 
C    -1.8540750   -3.8831533   -1.2554592 
C    -1.3256168   -3.5071730    1.1873066 
C     0.4559838    3.2643046    2.0378811 
C    -0.4074890    2.7551028   -0.3002039 
C    -1.0856568    0.7780679    4.2141771 
C     0.4872743   -1.1193630    3.5634021 
C    -4.2735819    0.8161322   -3.0161777 
C    -2.4983541   -0.3071435   -4.4350517 
C    -0.3748279   -4.1921406   -1.5283687 
C     0.1579328   -3.8167656    0.9292205 
C     0.3137566    4.7690314    1.7410053 
C    -0.5682447    4.2591722   -0.5758889 
C    -0.6395700    0.6341301    5.6828239 
C     0.9373683   -1.2495754    5.0295267 
C    -3.3740833    0.9430871   -4.2569082 
C     0.3364663   -4.7464720   -0.2823510 
C     0.4445680    5.0762219    0.2412505 
C    -0.1708216   -0.7967195    5.9954966 
H    -3.2501594   -1.5755049   -2.0469661 
H    -3.1158368   -2.8054163    0.1596020 
H    -1.5765060    2.6713270    1.5372585 
H     0.9242933    0.9815001    3.4130614 
H    -2.3678476   -0.8297154    1.8703661 
H    -2.7810419    0.5822522    0.8584368 
H    -2.8122935    1.4224491   -1.5295325 
H    -4.1314124    0.4204103   -0.8781583 
H    -1.0658622   -1.5063688   -3.3017904 
H    -0.9490246    0.2288236   -3.0017155 
H    -2.3393489   -3.4849485   -2.1644695 
H    -2.3920810   -4.8183570   -1.0066766 
H    -1.8529567   -4.4429642    1.4556592 
H    -1.4385253   -2.8375566    2.0581659 
H     1.4843665    2.9397371    1.7998578 
H     0.3044265    3.0916161    3.1171079 
H    -1.1406854    2.1731262   -0.8869960 
H     0.5946673    2.4208354   -0.6344991 
H    -1.9812065    0.1498133    4.0400736 
H    -1.3831266    1.8215867    4.0061159 
H     1.2951766   -1.4200296    2.8719401 
H    -0.3580271   -1.8101211    3.3828895 
H    -4.8754301    1.7315617   -2.8748565 
H    -4.9910744   -0.0143344   -3.1657804 
H    -3.1423206   -1.1814074   -4.6547158 
H    -1.8174528   -0.1929914   -5.2970298 
H     0.1228567   -3.2598736   -1.8529866 
H    -0.2910730   -4.9013778   -2.3702900 
H     0.6118941   -4.2581801    1.8341036 
H     0.6969130   -2.8601792    0.7420478 
H     1.0768849    5.3216816    2.3177774 
H    -0.6730627    5.1196101    2.1022919 
H    -1.5978472    4.5723770   -0.3129357 
H    -0.4452908    4.4514038   -1.6570380 
H    -1.4689000    0.9252938    6.3516249 
H     0.1881074    1.3445191    5.8758514 
H     1.8409257   -0.6270587    5.1847425 
H     1.2314198   -2.2936331    5.2385260 
H    -3.9909954    1.1139464   -5.1567258 
H    -2.7223922    1.8327883   -4.1458270 
H    -0.0783716   -5.7438922   -0.0382826 
H     1.4112353   -4.8989214   -0.4914344 
H     0.3058361    6.1563846    0.0582675 
H     1.4695766    4.8232996   -0.0938792 
H     0.1821013   -0.8618611    7.0397571 
H    -1.0316331   -1.4892575    5.9099576 
