102
Energy =
C     2.4188811   -1.6027953   -1.1275758 
C     2.8075841   -0.2501892   -0.9699778 
C     3.0280107    0.2876208    0.3329440 
H     2.7822272    0.4184434   -1.8395401 
Pd    0.9434290   -0.4774472    0.1681842 
P    -0.3832620    0.6724165    1.7265149 
P    -1.3023943   -1.0069603   -0.4059485 
H     2.7010580   -2.2967887   -0.3199463 
H     3.3847798   -0.4129904    1.1025137 
C     1.4510502   -3.5789483   -4.8247008 
C     1.9728232   -4.2991959   -3.7407206 
C     2.2790397   -3.6419749   -2.5421772 
C     2.0806020   -2.2496106   -2.4068337 
C     1.5628477   -1.5346700   -3.5124389 
C     1.2485785   -2.1927476   -4.7050865 
H     1.2043432   -4.0920416   -5.7596526 
H     2.1379777   -5.3780721   -3.8261848 
H     2.6824155   -4.2101947   -1.6967056 
H     1.3904467   -0.4569826   -3.4335352 
H     0.8432689   -1.6231345   -5.5481136 
C     3.7865689    4.4393300    1.2149676 
C     3.2534336    4.0764579   -0.0333444 
C     2.9995306    2.7336488   -0.3302694 
C     3.2871991    1.7148146    0.6087343 
C     3.8404282    2.0952431    1.8535087 
C     4.0802140    3.4414012    2.1563563 
H     3.9808435    5.4915514    1.4461365 
H     3.0303213    4.8468293   -0.7786447 
H     2.5696294    2.4768418   -1.3042158 
H     4.0966334    1.3229668    2.5858891 
H     4.5123449    3.7106815    3.1257576 
C    -1.8059315   -0.2822490   -2.0542512 
C    -2.3039596   -2.6091994   -0.2639303 
C    -0.3270514    2.5386672    1.8170688 
C    -0.5078305    0.1264400    3.5249828 
C    -1.9960314    0.1375276    0.9267106 
C    -3.3203212   -0.0163887   -2.2046861 
C    -1.0086804    0.9820273   -2.4324099 
C    -2.4912828   -3.3700664   -1.5982975 
C    -1.6914951   -3.5613987    0.7908088 
C    -0.4563704    3.1647034    0.4136602 
C    -1.3413737    3.1695317    2.7965541 
C    -0.7026956   -1.3935434    3.7000783 
C     0.7074570    0.6007808    4.3580384 
C    -3.6463469    0.4108736   -3.6501512 
C    -1.3132103    1.3942230   -3.8832756 
C    -1.1981088   -4.0356213   -2.0900444 
C    -0.4013188   -4.2406386    0.3000111 
C    -0.2927151    4.6931851    0.4683885 
C    -1.1885540    4.7035560    2.8339453 
C     0.5631395   -2.1997478    3.3703857 
C     1.9763086   -0.2098040    4.0483916 
C    -2.8196810    1.6329154   -4.0836609 
C    -0.6271740   -4.9844770   -1.0251059 
C    -1.3054420    5.3266981    1.4344974 
C     1.7548393   -1.7216570    4.2147657 
H    -1.5073623   -1.0840398   -2.7593254 
H    -3.2923776   -2.2583568    0.0900613 
H     0.7042024    2.7347179    2.1757030 
H    -1.4205040    0.6410045    3.8799945 
H    -2.6728126   -0.3822893    1.6279531 
H    -2.5491900    0.9886218    0.4920275 
H    -3.6157092    0.7933932   -1.5091242 
H    -3.9167835   -0.9035237   -1.9295863 
H     0.0732729    0.8143693   -2.2801886 
H    -1.2948462    1.8063399   -1.7567619 
H    -2.9231927   -2.7225497   -2.3792103 
H    -3.2502597   -4.1531741   -1.4031969 
H    -2.4503510   -4.3363474    1.0128156 
H    -1.5098591   -3.0288587    1.7374096 
H    -1.4589742    2.9320024    0.0038635 
H     0.2879167    2.7148462   -0.2653156 
H    -1.2126684    2.7671393    3.8158805 
H    -2.3686597    2.9075051    2.4729269 
H    -1.5676333   -1.7474788    3.1118832 
H    -0.9738124   -1.5638538    4.7599720 
H     0.4371671    0.4715093    5.4239275 
H     0.8962508    1.6798558    4.2175674 
H    -4.7265419    0.6238484   -3.7383051 
H    -3.4346941   -0.4388881   -4.3285337 
H    -0.9688698    0.5929301   -4.5670016 
H    -0.7401760    2.3025682   -4.1429362 
H    -0.4458936   -3.2585060   -2.3293484 
H    -1.3911157   -4.5775575   -3.0322593 
H    -0.0280540   -4.9279325    1.0800118 
H     0.3818500   -3.4698883    0.1544793 
H    -0.4056434    5.1121639   -0.5477854 
H     0.7358283    4.9297589    0.7995470 
H    -0.1982886    4.9509313    3.2639092 
H    -1.9458688    5.1297531    3.5157209 
H     0.8049709   -2.0774666    2.2904840 
H     0.3760645   -3.2767728    3.5273953 
H     2.8043459    0.1359342    4.6920873 
H     2.2755322   -0.0043938    3.0047243 
H    -3.0323777    1.8824662   -5.1381384 
H    -3.1279892    2.5115421   -3.4829632 
H    -1.3359909   -5.8199695   -0.8616325 
H     0.3160992   -5.4341977   -1.3796430 
H    -1.1533383    6.4191126    1.4893652 
H    -2.3317632    5.1693457    1.0471987 
H     1.5611873   -1.9512174    5.2806931 
H     2.6698894   -2.2742383    3.9352858 
