102
Energy =
C     2.1895390   -1.0204403   -2.0066410 
C     2.6688051    0.1890019   -1.4348655 
C     2.9499525    0.2592248   -0.0446277 
H     2.6557365    1.1102851   -2.0296354 
Pd    0.8121152   -0.3371514   -0.3707715 
P    -0.5288685    0.4821287    1.3859844 
P    -1.3571912   -1.1471619   -0.7928626 
H     2.4863987   -1.9515759   -1.5020682 
H     3.1924572   -0.6893615    0.4597913 
C     0.8935261   -1.6263522   -6.0702661 
C     1.1500116   -2.7172615   -5.2254689 
C     1.5776686   -2.5016410   -3.9099161 
C     1.7468573   -1.1919760   -3.4032964 
C     1.4847222   -0.1031074   -4.2668730 
C     1.0711832   -0.3196276   -5.5857803 
H     0.5655285   -1.7911531   -7.1014698 
H     1.0255928   -3.7400687   -5.5958141 
H     1.7892877   -3.3574514   -3.2604164 
H     1.6039466    0.9247478   -3.9087332 
H     0.8865204    0.5368948   -6.2422809 
C     4.1966266    3.7268275    2.1825387 
C     4.2299397    2.4481985    2.7606692 
C     3.8311544    1.3314608    2.0173161 
C     3.3764543    1.4669566    0.6849848 
C     3.3517801    2.7610887    0.1148861 
C     3.7642503    3.8751658    0.8540637 
H     4.5140941    4.6016967    2.7587231 
H     4.5754340    2.3204600    3.7917164 
H     3.8658989    0.3352133    2.4716133 
H     3.0047841    2.9043965   -0.9135153 
H     3.7484158    4.8676049    0.3921198 
C    -2.3188011   -0.6110083   -2.3151323 
C    -1.8527969   -2.9416512   -0.4908682 
C    -0.7164046    2.3217129    1.6581598 
C    -0.5178779   -0.3579571    3.0538094 
C    -2.1173931   -0.1109682    0.5812737 
C    -1.9095818    0.8275466   -2.7007482 
C    -2.1924614   -1.5527050   -3.5309202 
C    -1.0014829   -3.9229758   -1.3445550 
C    -1.8367357   -3.3762813    0.9931283 
C     0.4345944    2.8883165    2.5199350 
C    -0.7999667    3.0630408    0.3058108 
C     0.9061081   -0.5262845    3.6270833 
C    -1.4987166    0.2500389    4.0797897 
C    -2.7424659    1.3486506   -3.8856600 
C    -3.0214161   -1.0261435   -4.7191549 
C     0.3906186   -4.2033284   -0.7565044 
C    -0.4209163   -3.6189483    1.5426425 
C     0.2934624    4.4096042    2.7097767 
C    -0.9435714    4.5823007    0.5076435 
C     0.8688967   -1.3558433    4.9232441 
C    -1.5143853   -0.5976623    5.3670269 
C    -2.6361904    0.4114447   -5.0980246 
C     0.3250186   -4.6654574    0.7044204 
C     0.1999616    5.1453683    1.3647190 
C    -0.1008810   -0.7516880    5.9529862 
H    -3.3770149   -0.6099104   -1.9781182 
H    -2.8996592   -2.9683187   -0.8514277 
H    -1.6763772    2.4489917    2.1986474 
H    -0.8865812   -1.3702070    2.8055044 
H    -2.7999778   -0.6503858    1.2608679 
H    -2.6741363    0.7341292    0.1405595 
H    -0.8352315    0.8229672   -2.9664435 
H    -2.0179082    1.5094787   -1.8398579 
H    -2.5380689   -2.5683761   -3.2739581 
H    -1.1296548   -1.6287722   -3.8270762 
H    -0.8974190   -3.5606802   -2.3801766 
H    -1.5690795   -4.8717928   -1.4014314 
H    -2.4059887   -4.3238805    1.0548428 
H    -2.3912005   -2.6588186    1.6246526 
H     1.3963565    2.6666538    2.0256351 
H     0.4602715    2.3955324    3.5062064 
H    -1.6512489    2.6885741   -0.2898303 
H     0.1173717    2.8429988   -0.2758266 
H     1.3522647    0.4642241    3.8316370 
H     1.5519500   -1.0113701    2.8717463 
H    -2.5163588    0.3158155    3.6512324 
H    -1.1885001    1.2812383    4.3305695 
H    -2.4075887    2.3678827   -4.1499372 
H    -3.8020131    1.4343812   -3.5738910 
H    -4.0965235   -1.0627189   -4.4543758 
H    -2.8840238   -1.7032913   -5.5810945 
H     0.9917750   -3.2754176   -0.8038123 
H     0.9065008   -4.9512326   -1.3847353 
H    -0.4805974   -3.9253929    2.6022770 
H     0.1594213   -2.6731904    1.5148559 
H     1.1554299    4.7791516    3.2937166 
H    -0.6135805    4.6203189    3.3099893 
H    -1.9132517    4.7908294    1.0008026 
H    -0.9762494    5.0819519   -0.4771899 
H     1.8864696   -1.4317563    5.3463314 
H     0.5487679   -2.3884201    4.6799345 
H    -1.9291927   -1.5989766    5.1368641 
H    -2.1933140   -0.1354857    6.1055001 
H    -3.2761608    0.7749109   -5.9214528 
H    -1.5954094    0.4188716   -5.4721113 
H    -0.2015378   -5.6374016    0.7697381 
H     1.3421205   -4.8266152    1.1038465 
H     0.0586775    6.2283880    1.5284143 
H     1.1555945    5.0250419    0.8200652 
H    -0.1317433   -1.3786297    6.8615155 
H     0.2733831    0.2425652    6.2678083 
