102
Energy =
C     2.2301727   -1.4023191   -1.7866126 
C     2.8644001   -0.3714281   -1.0421393 
C     3.0205963   -0.4818735    0.3660420 
H     3.0884953    0.5860995   -1.5292503 
Pd    0.8692831   -0.5857743   -0.1491671 
P    -0.2612907    0.6286091    1.5024163 
P    -1.4443494   -0.9816226   -0.5059711 
H     2.2996777   -2.4263884   -1.3904619 
H     3.0784600   -1.5005875    0.7810606 
C     1.2378879   -1.1543703   -5.9706223 
C     1.3672559   -2.3997990   -5.3382829 
C     1.7036286   -2.4689709   -3.9804600 
C     1.9072825   -1.2946346   -3.2207082 
C     1.7765307   -0.0452807   -3.8751394 
C     1.4518030    0.0227714   -5.2332271 
H     0.9778495   -1.0991873   -7.0325813 
H     1.2153247   -3.3227769   -5.9074670 
H     1.8203561   -3.4461753   -3.4998146 
H     1.9061484    0.8845747   -3.3106073 
H     1.3540315    0.9989761   -5.7193652 
C     4.5936080    2.5388357    3.0000533 
C     4.7354654    1.1774547    3.3059598 
C     4.2222159    0.2045970    2.4374039 
C     3.5670040    0.5737532    1.2416071 
C     3.4387845    1.9500721    0.9415883 
C     3.9442036    2.9203574    1.8125104 
H     4.9870040    3.3005976    3.6806235 
H     5.2423867    0.8708147    4.2266028 
H     4.3283072   -0.8573631    2.6856817 
H     2.9165065    2.2622753    0.0304215 
H     3.8293186    3.9818104    1.5684663 
C    -2.3464708   -0.1865226   -1.9310531 
C    -2.2024939   -2.6799919   -0.1999917 
C    -0.2533240    2.4644467    1.1853005 
C    -0.0490062    0.3840760    3.3441551 
C    -1.9581744    0.0061079    1.0097533 
C    -1.7458152   -0.5735325   -3.2993316 
C    -3.8798785   -0.3539846   -1.9048397 
C    -2.1113938   -3.6171261   -1.4241052 
C    -1.5620160   -3.3741269    1.0248943 
C    -0.3013858    2.7875514   -0.3236976 
C    -1.3441287    3.2423208    1.9531739 
C     0.3245372   -1.0928299    3.6115837 
C     1.0194633    1.3423121    3.9199240 
C    -2.3999311    0.2501998   -4.4218694 
C    -4.5225818    0.4686798   -3.0401915 
C    -0.6609278   -4.0280534   -1.7183820 
C    -0.1124062   -3.8152346    0.7634288 
C    -0.1507647    4.3007776   -0.5605340 
C    -1.1975478    4.7575410    1.7086996 
C     0.5928027   -1.3551451    5.1034177 
C     1.2953969    1.0546143    5.4069446 
C    -3.9304486    0.0987176   -4.4113084 
C    -0.0011627   -4.6913370   -0.4960948 
C    -1.2198554    5.0949946    0.2087589 
C     1.6798372   -0.4135785    5.6437248 
H    -2.1138140    0.8856073   -1.7674363 
H    -3.2638642   -2.4553983    0.0190826 
H     0.7413602    2.7726918    1.5632427 
H    -1.0305971    0.6046943    3.8101919 
H    -2.3895774   -0.6423007    1.7922165 
H    -2.6857915    0.8078362    0.7915836 
H    -1.9118315   -1.6482537   -3.4959473 
H    -0.6548041   -0.4200754   -3.2892781 
H    -4.2944823   -0.0450568   -0.9268116 
H    -4.1370598   -1.4216658   -2.0402283 
H    -2.5786063   -3.1595370   -2.3122122 
H    -2.7128765   -4.5164964   -1.1883048 
H    -2.1812794   -4.2631315    1.2523176 
H    -1.6160673   -2.7318194    1.9220531 
H    -1.2724732    2.4528949   -0.7393112 
H     0.4826541    2.2197688   -0.8601612 
H    -1.2963141    3.0259701    3.0350298 
H    -2.3429038    2.9126237    1.6055286 
H     1.2316287   -1.3342115    3.0227490 
H    -0.4744036   -1.7622182    3.2457238 
H     0.7013525    2.3923044    3.8040032 
H     1.9561435    1.2259060    3.3469783 
H    -1.9812900   -0.0605393   -5.3955855 
H    -2.1326153    1.3177184   -4.2889538 
H    -4.3528656    1.5459572   -2.8443175 
H    -5.6163511    0.3146115   -3.0348820 
H    -0.0897667   -3.1257844   -2.0084235 
H    -0.6321653   -4.7087077   -2.5872732 
H     0.2815293   -4.3485564    1.6467543 
H     0.5209284   -2.9060702    0.6408098 
H    -0.2095900    4.5170399   -1.6423151 
H     0.8574392    4.6172179   -0.2268968 
H    -0.2411254    5.0998762    2.1501765 
H    -2.0019496    5.2970584    2.2394130 
H     0.8839315   -2.4116389    5.2433645 
H    -0.3435136   -1.2056477    5.6758753 
H     0.3922673    1.2978943    6.0004836 
H     2.0974135    1.7281409    5.7584651 
H    -4.3845167    0.7232318   -5.2009304 
H    -4.1932558   -0.9510133   -4.6490569 
H    -0.4943670   -5.6639433   -0.3030499 
H     1.0596084   -4.9179830   -0.7091707 
H    -1.0725983    6.1791090    0.0593315 
H    -2.2190452    4.8525044   -0.2046176 
H     1.8473851   -0.5974108    6.7196150 
H     2.6374478   -0.6271218    5.1292546 
