102
Energy =
C     2.2388980   -1.6398443   -1.3169531 
C     2.6969684   -0.3019788   -1.3409247 
C     2.8355218    0.4364155   -0.1219987 
H     2.7757286    0.2243431   -2.3006143 
Pd    0.7452348   -0.2455358   -0.3322314 
P    -0.5565595    0.6939817    1.4008235 
P    -1.4603297   -0.9427049   -0.7236559 
H     2.3769761   -2.1910406   -0.3734703 
H     3.1416138   -0.1253244    0.7727276 
C     1.3127312   -4.2244095   -4.6288385 
C     1.5157900   -4.7460531   -3.3426392 
C     1.8213357   -3.8887161   -2.2786844 
C     1.9422140   -2.4938436   -2.4787594 
C     1.7598172   -1.9863130   -3.7860874 
C     1.4407522   -2.8412229   -4.8452493 
H     1.0673128   -4.8910230   -5.4617168 
H     1.4342803   -5.8237147   -3.1678460 
H     1.9708345   -4.3008429   -1.2742944 
H     1.8593008   -0.9143554   -3.9765229 
H     1.2967832   -2.4290707   -5.8494220 
C     3.4850706    4.6908072    0.0968757 
C     2.9069085    4.1296069   -1.0544116 
C     2.7046748    2.7485217   -1.1399936 
C     3.0829921    1.8921153   -0.0782589 
C     3.6746034    2.4700682    1.0667414 
C     3.8700516    3.8541013    1.1554372 
H     3.6375809    5.7727100    0.1651996 
H     2.6030207    4.7749860   -1.8852741 
H     2.2188980    2.3333874   -2.0296824 
H     3.9873357    1.8236289    1.8944215 
H     4.3311524    4.2811296    2.0521321 
C    -2.3659675   -0.0435284   -2.1168244 
C    -2.0668078   -2.7144518   -0.7943114 
C    -1.1045411    2.4738352    1.5641446 
C    -0.0531004    0.0856068    3.0967494 
C    -2.0995626   -0.2591006    0.9065361 
C    -2.7130280    1.4365213   -1.8327944 
C    -1.5839806   -0.1614547   -3.4549726 
C    -1.9333254   -3.3437233   -2.1994043 
C    -1.3134689   -3.5556666    0.2603832 
C    -1.9025224    2.7743463    2.8513641 
C     0.0500185    3.4754497    1.3483467 
C     0.2379766   -1.4312083    3.0760802 
C     1.1802530    0.8761421    3.5907996 
C    -1.5069231    2.3838983   -1.9432823 
C    -0.4082454    0.8220207   -3.5645211 
C    -2.3784430   -4.8189684   -2.1973412 
C    -1.7723005   -5.0247752    0.2496054 
C    -2.4272598    4.2240688    2.8222332 
C    -0.4863588    4.9169236    1.3360395 
C     0.7445320   -1.9334256    4.4401032 
C     1.6831976    0.3564904    4.9496785 
C    -0.8372323    2.2730147   -3.3181414 
C    -1.6231655   -5.6463949   -1.1466976 
C    -1.2846972    5.2327044    2.6120201 
C     1.9812981   -1.1494040    4.9042422 
H    -3.3127871   -0.6113097   -2.2015907 
H    -3.1419058   -2.6670268   -0.5222743 
H    -1.7988289    2.5831135    0.7094199 
H    -0.9097381    0.2790962    3.7721712 
H    -2.2944618   -1.0879250    1.6087949 
H    -3.0148937    0.3542471    0.8400641 
H    -3.2169909    1.5470374   -0.8558335 
H    -3.4664204    1.7351652   -2.5872942 
H    -2.3059901    0.0444834   -4.2687399 
H    -1.2188176   -1.1891976   -3.6143413 
H    -0.8792189   -3.2796744   -2.5289285 
H    -2.5408884   -2.7846814   -2.9314398 
H    -1.4564565   -3.1303398    1.2691465 
H    -0.2287282   -3.4979388    0.0444385 
H    -1.2479558    2.6456111    3.7338730 
H    -2.7428282    2.0640657    2.9661241 
H     0.5775942    3.2491713    0.4068311 
H     0.7989789    3.3706720    2.1536925 
H     0.9988871   -1.6375580    2.2952687 
H    -0.6669727   -1.9938437    2.7882595 
H     0.9453712    1.9511838    3.6668710 
H     1.9835165    0.7824067    2.8354949 
H    -0.7509876    2.1211918   -1.1748899 
H    -1.8258412    3.4209838   -1.7364717 
H     0.0690668    0.7109955   -4.5540872 
H     0.3540925    0.5468051   -2.8037434 
H    -2.2261839   -5.2409912   -3.2067448 
H    -3.4657863   -4.8697317   -1.9921887 
H    -2.8326271   -5.0756587    0.5657139 
H    -1.1921135   -5.5957942    0.9965313 
H    -2.9684786    4.4391988    3.7607807 
H    -3.1638772    4.3249146    2.0007956 
H    -1.1389927    5.0518043    0.4502591 
H     0.3571908    5.6200483    1.2172863 
H     0.9675365   -3.0132639    4.3725125 
H    -0.0632700   -1.8231714    5.1896850 
H     0.9138260    0.5561375    5.7209242 
H     2.5826021    0.9247633    5.2471578 
H    -1.5444654    2.5954325   -4.1068903 
H     0.0339418    2.9500000   -3.3762591 
H    -1.9891381   -6.6882794   -1.1440378 
H    -0.5502606   -5.6848543   -1.4157425 
H    -1.6885524    6.2596881    2.5688795 
H    -0.6036013    5.1976830    3.4853612 
H     2.3125077   -1.5063013    5.8952131 
H     2.8191085   -1.3370884    4.2030830 
