102
Energy =
C     2.2599345   -1.2636770   -1.6937026 
C     2.7284274    0.0438222   -1.4258340 
C     2.9102800    0.5104580   -0.0908826 
H     2.7818328    0.7677001   -2.2485473 
Pd    0.7855134   -0.1287461   -0.3957743 
P    -0.4917777    0.6197954    1.4241660 
P    -1.3926562   -0.9608074   -0.7319614 
H     2.3900636   -2.0164602   -0.9005392 
H     3.1831072   -0.2360208    0.6697785 
C     1.3239956   -2.9391367   -5.5457825 
C     1.1148441   -3.6769983   -4.3696164 
C     1.4424829   -3.1233628   -3.1273563 
C     1.9709938   -1.8145597   -3.0286520 
C     2.1899515   -1.0902873   -4.2234213 
C     1.8708997   -1.6484790   -5.4662011 
H     1.0744942   -3.3720623   -6.5197400 
H     0.7044793   -4.6909088   -4.4226808 
H     1.2872036   -3.7078771   -2.2138475 
H     2.6190673   -0.0841353   -4.1870339 
H     2.0527475   -1.0734756   -6.3799804 
C     3.9254121    4.5661656    0.9574355 
C     3.2790561    4.3011987   -0.2616775 
C     2.9485575    2.9890858   -0.6145574 
C     3.2622090    1.9066083    0.2405209 
C     3.9294498    2.1879049    1.4539501 
C     4.2532538    3.5026797    1.8117658 
H     4.1778833    5.5946538    1.2347457 
H     3.0225901    5.1250488   -0.9359441 
H     2.4136820    2.8069212   -1.5534229 
H     4.2080487    1.3616332    2.1179511 
H     4.7719721    3.6966425    2.7563907 
C    -2.5719190   -0.1198414   -1.9357902 
C    -1.7003620   -2.7886484   -0.8866267 
C    -1.1016539    2.3806633    1.5412592 
C     0.0515996    0.0539400    3.1182702 
C    -1.9961428   -0.4034649    0.9573837 
C    -2.3044815    1.4016214   -2.0265045 
C    -2.5295924   -0.7422684   -3.3487828 
C    -0.7930213   -3.5859119    0.0754425 
C    -3.1779596   -3.2075904   -0.7285157 
C    -1.8538845    2.7115738    2.8478367 
C     0.0177936    3.3937691    1.2217119 
C     0.4341814   -1.4432461    3.0869598 
C     1.2369210    0.9164846    3.6056648 
C    -0.9952047    1.7351530   -2.7623672 
C    -1.2072080   -0.4392805   -4.0661061 
C    -0.9497910   -5.0991832   -0.1569908 
C    -3.3362080   -4.7263712   -0.9425429 
C    -2.3901543    4.1563644    2.8055949 
C    -0.5314952    4.8303837    1.2138936 
C     0.9833173   -1.9185599    4.4441052 
C     1.7854393    0.4231455    4.9562107 
C    -0.9404416    1.0727751   -4.1494219 
C    -2.4178445   -5.5336930   -0.0106044 
C    -1.2628634    5.1646091    2.5247167 
C     2.1743490   -1.0616604    4.8993927 
H    -3.5689554   -0.2884892   -1.4851274 
H    -1.3681542   -3.0072538   -1.9219652 
H    -1.8318592    2.4339296    0.7092281 
H    -0.8145288    0.1932721    3.7954063 
H    -2.1165056   -1.2673094    1.6338428 
H    -2.9458536    0.1604872    0.9448534 
H    -2.3142355    1.8640006   -1.0231508 
H    -3.1568360    1.8477129   -2.5741698 
H    -3.3725811   -0.3040234   -3.9180950 
H    -2.7173565   -1.8297450   -3.3147710 
H    -1.0735100   -3.3533100    1.1208233 
H     0.2596417   -3.2703375   -0.0444508 
H    -3.8225054   -2.6603299   -1.4385868 
H    -3.5227947   -2.9402782    0.2900652 
H    -1.1668343    2.6096777    3.7085824 
H    -2.6825755    1.9972665    3.0110093 
H     0.4663347    3.1440182    0.2457928 
H     0.8340350    3.3132215    1.9634803 
H     1.2002813   -1.5974263    2.2994607 
H    -0.4369695   -2.0593629    2.8027593 
H     0.9383385    1.9752105    3.6880812 
H     2.0355934    0.8767122    2.8428000 
H    -0.1373351    1.3776747   -2.1474749 
H    -0.8849879    2.8312615   -2.8444561 
H    -1.2121752   -0.8868977   -5.0746674 
H    -0.3790647   -0.9281799   -3.5190329 
H    -0.3079786   -5.6537415    0.5505838 
H    -0.5898567   -5.3473226   -1.1752578 
H    -3.0929883   -4.9644631   -1.9965891 
H    -4.3920218   -5.0122562   -0.7896019 
H    -2.8933043    4.3900420    3.7606970 
H    -3.1606396    4.2349070    2.0133826 
H    -1.2340337    4.9447177    0.3641367 
H     0.2983686    5.5376852    1.0372066 
H     1.2715959   -2.9823907    4.3701244 
H     0.1777029   -1.8603590    5.2018154 
H     1.0152419    0.5723220    5.7380327 
H     2.6524609    1.0438550    5.2450486 
H    -1.7001535    1.5412393   -4.8055314 
H     0.0410064    1.2578540   -4.6216002 
H    -2.5197415   -6.6136608   -0.2169051 
H    -2.7378921   -5.3815468    1.0392564 
H    -1.6712912    6.1898831    2.4853372 
H    -0.5385446    5.1446329    3.3630477 
H     2.5378123   -1.4026505    5.8846713 
H     3.0142778   -1.1943370    4.1881701 
