102
Energy =
C     2.1498625   -0.9910848   -1.8778813 
C     2.7849389    0.1060386   -1.2169857 
C     3.0402540    0.0652366    0.1716618 
H     2.9109836    1.0535983   -1.7560720 
Pd    0.8247582   -0.2377956   -0.2630422 
P    -0.5358283    0.7873939    1.3758413 
P    -1.3198862   -1.1527349   -0.5764571 
H     2.3740242   -1.9986959   -1.4991598 
H     3.0515312   -0.9271107    0.6499777 
C     0.7256169   -0.8433409   -5.9454491 
C     0.8254499    0.3399537   -5.1938502 
C     1.2870845    0.3008440   -3.8746225 
C     1.6720938   -0.9225072   -3.2750351 
C     1.5789001   -2.1017150   -4.0487606 
C     1.1064914   -2.0632358   -5.3672612 
H     0.3596422   -0.8115442   -6.9767254 
H     0.5319208    1.2971437   -5.6371892 
H     1.3323804    1.2296930   -3.2949078 
H     1.8965693   -3.0559163   -3.6157871 
H     1.0473387   -2.9888290   -5.9493624 
C     4.7407058    3.1733067    2.6091083 
C     4.2421196    1.9960126    3.1900737 
C     3.7034025    0.9901439    2.3813024 
C     3.6365857    1.1430763    0.9756785 
C     4.1555943    2.3277726    0.4046143 
C     4.7018448    3.3299275    1.2144707 
H     5.1691169    3.9595836    3.2388250 
H     4.2820546    1.8592174    4.2757777 
H     3.3218432    0.0707079    2.8386470 
H     4.1464450    2.4644988   -0.6812107 
H     5.1044646    4.2379607    0.7541013 
C    -2.2246869   -0.8618339   -2.1811953 
C    -1.7553481   -2.9319533   -0.1215651 
C    -1.0708911    2.6022110    1.2947115 
C    -0.2288545    0.4863683    3.1898360 
C    -2.0836990   -0.1293027    0.8042175 
C    -3.7018343   -1.3116288   -2.2012416 
C    -2.0981595    0.5983652   -2.6577578 
C    -1.4403792   -3.9420845   -1.2483886 
C    -1.0912323   -3.3948948    1.1922135 
C    -0.2185548    3.5576708    2.1576325 
C    -1.1137112    3.1138773   -0.1630768 
C    -1.4411583    0.7466026    4.1092638 
C     0.4021135   -0.8886824    3.4831576 
C    -4.3016429   -1.1299677   -3.6107982 
C    -2.6759207    0.7615802   -4.0737483 
C     0.0694999   -4.1703797   -1.4113080 
C     0.4219322   -3.6173851    1.0431709 
C     1.1877679    3.7646471    1.5789168 
C     0.2887839    3.3352743   -0.7538224 
C    -1.0268896    0.6344809    5.5905482 
C     0.8320515   -0.9795546    4.9579492 
C    -4.1446561    0.3102311   -4.1245310 
C     0.7322486   -4.6052870   -0.0932345 
C     1.1278568    4.2726730    0.1292553 
C    -0.3572057   -0.7153290    5.8974156 
H    -1.6395732   -1.4906158   -2.8842829 
H    -2.8507274   -2.8811544    0.0303561 
H    -2.1017122    2.5702499    1.6978536 
H     0.5492477    1.2485413    3.4013794 
H    -2.5401489   -0.7524521    1.5938065 
H    -2.8572287    0.5680107    0.4354337 
H    -4.2736525   -0.7038905   -1.4719067 
H    -3.8058848   -2.3657941   -1.8921984 
H    -1.0430547    0.9202925   -2.6205586 
H    -2.6680716    1.2499660   -1.9675512 
H    -1.8911417   -3.6331380   -2.2075066 
H    -1.9324941   -4.8945618   -0.9710011 
H    -1.5743069   -4.3479990    1.4821838 
H    -1.3065775   -2.6865317    2.0106962 
H    -0.1700191    3.2225216    3.2081780 
H    -0.7551550    4.5266470    2.1751451 
H    -1.6636986    4.0748375   -0.1558908 
H    -1.6966600    2.4298964   -0.7994199 
H    -2.2287446   -0.0007597    3.8889775 
H    -1.8813546    1.7409770    3.9165360 
H     1.2560899   -1.0680810    2.8060621 
H    -0.3379078   -1.6830248    3.2779089 
H    -5.3663353   -1.4237192   -3.5972654 
H    -3.7896600   -1.8253685   -4.3045312 
H    -2.0710778    0.1589566   -4.7780104 
H    -2.5810012    1.8150129   -4.3932695 
H     0.5268608   -3.2268166   -1.7595127 
H     0.2512777   -4.9193762   -2.2020540 
H     0.8458284   -3.9721183    1.9993069 
H     0.9073742   -2.6410387    0.8247003 
H     1.7404921    2.8060833    1.6083164 
H     1.7573007    4.4667354    2.2119809 
H     0.1999160    3.7345445   -1.7802466 
H     0.7999456    2.3517772   -0.8383522 
H    -1.9118235    0.7830178    6.2344922 
H    -0.3227849    1.4568017    5.8252463 
H     1.6294022   -0.2337424    5.1490114 
H     1.2715272   -1.9730566    5.1585255 
H    -4.5370726    0.3913835   -5.1536129 
H    -4.7566301    0.9898144   -3.4988727 
H     0.3616374   -5.6105231    0.1870845 
H     1.8249608   -4.7016521   -0.2284061 
H     0.6775963    5.2847787    0.1152910 
H     2.1483394    4.3746056   -0.2790397 
H    -0.0279276   -0.7457513    6.9510018 
H    -1.1011022   -1.5275834    5.7760743 
