102
Energy =
C     2.1002428   -0.7467846   -2.0543761 
C     2.7599265    0.3867550   -1.4897897 
C     3.0850591    0.4114157   -0.1122761 
H     2.8461852    1.3053807   -2.0837334 
Pd    0.8615948    0.0799771   -0.4186089 
P    -0.3664105    0.8395893    1.4474934 
P    -1.2312325   -0.9602452   -0.5987121 
H     2.3236122   -1.7269900   -1.6069360 
H     3.1676393   -0.5632619    0.3935021 
C     0.5096412   -0.9719562   -6.0506406 
C     0.9191977   -2.1323606   -5.3767406 
C     1.4447429   -2.0449095   -4.0810123 
C     1.5699931   -0.7962211   -3.4318444 
C     1.1488106    0.3651590   -4.1214373 
C     0.6302391    0.2772204   -5.4174367 
H     0.0980041   -1.0379617   -7.0627704 
H     0.8322236   -3.1092522   -5.8635207 
H     1.7651618   -2.9547601   -3.5604435 
H     1.2008981    1.3419426   -3.6275682 
H     0.3091941    1.1865277   -5.9361434 
C     4.8265737    3.6345626    2.1421798 
C     4.5191327    2.4097769    2.7556156 
C     3.9616729    1.3703884    2.0034080 
C     3.6881094    1.5334033    0.6240663 
C     4.0098058    2.7702439    0.0194872 
C     4.5749337    3.8062155    0.7714582 
H     5.2684601    4.4480661    2.7262860 
H     4.7222752    2.2626321    3.8214903 
H     3.7311074    0.4135993    2.4854937 
H     3.8242613    2.9265256   -1.0478230 
H     4.8231121    4.7547978    0.2843356 
C    -2.5026248   -0.6619632   -1.9406467 
C    -1.1790406   -2.8187933   -0.4130160 
C    -1.0550254    2.5943235    1.5854137 
C     0.2013882    0.4192345    3.1720131 
C    -1.8623882   -0.2289316    1.0174240 
C    -2.6701640    0.8403801   -2.2443228 
C    -2.1127189   -1.4472397   -3.2154895 
C    -0.1627963   -3.2723606    0.6533704 
C    -2.5587509   -3.4705611   -0.1766125 
C    -0.1844157    3.5419361    2.4420236 
C    -1.2863679    3.2216617    0.1911054 
C    -0.8952425    0.5288321    4.2540204 
C     0.9132256   -0.9455814    3.2525628 
C    -3.6511234    1.0832298   -3.4059261 
C    -3.0959063   -1.1833145   -4.3700797 
C    -0.0408710   -4.8061143    0.6840232 
C    -2.4361487   -5.0068965   -0.1252628 
C     1.1315007    3.9178695    1.7457491 
C     0.0237363    3.6142918   -0.5124104 
C    -0.2938676    0.3040082    5.6559731 
C     1.5279970   -1.1526795    4.6481891 
C    -3.2298581    0.3168259   -4.6677883 
C    -1.4092609   -5.4653365    0.9223929 
C     0.8749651    4.5440609    0.3659377 
C     0.4583433   -1.0337969    5.7471580 
H    -3.4615841   -1.0531771   -1.5449972 
H    -0.7935073   -3.1420143   -1.4009398 
H    -2.0320098    2.4463030    2.0848654 
H     0.9673102    1.2005294    3.3543792 
H    -2.0522086   -1.0068730    1.7784181 
H    -2.7889255    0.3601714    0.8960540 
H    -1.6792757    1.2675759   -2.4950645 
H    -3.0353621    1.3667586   -1.3452726 
H    -2.0747666   -2.5310341   -3.0101033 
H    -1.0974194   -1.1426351   -3.5253172 
H    -0.5020501   -2.9239986    1.6466742 
H     0.8201864   -2.7992138    0.4694400 
H    -3.2718910   -3.1822497   -0.9685041 
H    -2.9757566   -3.1012338    0.7814821 
H     0.0042972    3.1247475    3.4460039 
H    -0.7871929    4.4570151    2.6041279 
H    -1.9059767    4.1270096    0.3402681 
H    -1.8760059    2.5453380   -0.4458630 
H    -1.6721463   -0.2367100    4.0593789 
H    -1.3987114    1.5107084    4.2143199 
H     1.6819355   -1.0228713    2.4623479 
H     0.1796567   -1.7503341    3.0617348 
H    -3.7148705    2.1675237   -3.6074866 
H    -4.6642241    0.7580562   -3.0982462 
H    -4.0892790   -1.5982948   -4.1088314 
H    -2.7474256   -1.7281314   -5.2656180 
H     0.6771548   -5.1055630    1.4683684 
H     0.3771774   -5.1561702   -0.2803151 
H    -2.1299629   -5.3727924   -1.1248450 
H    -3.4272209   -5.4480071    0.0823804 
H     1.7576197    3.0127761    1.6255984 
H     1.7103266    4.6081110    2.3834326 
H    -0.2069995    4.0903610   -1.4823180 
H     0.6006918    2.6911956   -0.7413848 
H    -1.0959229    0.3501042    6.4139229 
H     0.4029202    1.1351326    5.8812359 
H     2.3160500   -0.3910508    4.8129801 
H     2.0243479   -2.1384840    4.6952398 
H    -3.9591783    0.4843855   -5.4799313 
H    -2.2560762    0.7040940   -5.0247462 
H    -1.3133526   -6.5652855    0.9067655 
H    -1.7723443   -5.1942942    1.9337444 
H     0.3452060    5.5085240    0.4948647 
H     1.8334988    4.7725707   -0.1312037 
H     0.9192512   -1.1445561    6.7444584 
H    -0.2647359   -1.8665782    5.6396977 
