102
Energy =
C     2.1346208   -1.5445177   -1.8175772 
C     2.7727713   -0.5058731   -1.0890595 
C     2.9390241   -0.6072676    0.3193123 
H     2.9947416    0.4468538   -1.5862361 
Pd    0.7848884   -0.7049440   -0.1747103 
P    -0.3055675    0.5599356    1.4615303 
P    -1.5462082   -1.0958154   -0.4746235 
H     2.2070125   -2.5616045   -1.4045488 
H     2.9968097   -1.6238677    0.7393683 
C     1.1015000   -1.3691355   -5.9941942 
C     1.2116789   -2.6026070   -5.3356142 
C     1.5615582   -2.6477861   -3.9800847 
C     1.7971073   -1.4606141   -3.2490843 
C     1.6846067   -0.2245415   -3.9297389 
C     1.3474257   -0.1806116   -5.2852142 
H     0.8312673   -1.3319212   -7.0543579 
H     1.0346873   -3.5347152   -5.8821897 
H     1.6641171   -3.6160977   -3.4789287 
H     1.8398885    0.7146267   -3.3880277 
H     1.2668772    0.7861863   -5.7930256 
C     4.5671459    2.4136247    2.9207972 
C     4.6673779    1.0539458    3.2499136 
C     4.1334808    0.0819980    2.3929613 
C     3.4992999    0.4492946    1.1851511 
C     3.4126077    1.8237354    0.8623152 
C     3.9381081    2.7935308    1.7218814 
H     4.9776440    3.1749624    3.5916485 
H     5.1584215    0.7481837    4.1793944 
H     4.2088915   -0.9783937    2.6586853 
H     2.9108869    2.1370593   -0.0596273 
H     3.8566097    3.8534836    1.4587672 
C    -2.5604032   -0.5522569   -1.9674468 
C    -2.2426355   -2.8067939   -0.0874391 
C    -0.2694349    2.3778700    1.0498963 
C    -0.0869395    0.4031168    3.3127684 
C    -2.0167533   -0.0608551    1.0232033 
C    -3.5126117    0.6361200   -1.7236696 
C    -1.6119482   -0.2979200   -3.1578394 
C    -2.0562416   -3.7901307   -1.2672206 
C    -1.6497772   -3.4194871    1.2000951 
C    -0.2378946    2.6181317   -0.4753748 
C    -1.3901902    3.1979195    1.7242656 
C     0.3060785   -1.0555482    3.6446273 
C     0.9625885    1.4005119    3.8541937 
C    -4.2843197    0.9862614   -3.0112138 
C    -2.3918329    0.0743302   -4.4287142 
C    -0.5901438   -4.2123234   -1.4460277 
C    -0.1788672   -3.8339904    1.0350777 
C    -0.0899199    4.1165047   -0.7915785 
C    -1.2358331    4.6966525    1.3984867 
C     0.5629751   -1.2508037    5.1486388 
C     1.2288059    1.1803192    5.3546900 
C    -3.3292148    1.2670763   -4.1830334 
C     0.0053280   -4.7930294   -0.1522159 
C    -1.1987511    4.9429952   -0.1187062 
C     1.6305896   -0.2709189    5.6586608 
H    -3.1885890   -1.4333667   -2.2030863 
H    -3.3231419   -2.6104660    0.0605606 
H     0.7078151    2.7009786    1.4594034 
H    -1.0736337    0.6289593    3.7656088 
H    -2.4300050   -0.6925983    1.8289952 
H    -2.7421122    0.7432013    0.8171906 
H    -2.9314309    1.5229330   -1.4049328 
H    -4.2225861    0.4029666   -0.9091668 
H    -0.9809466   -1.1861347   -3.3384010 
H    -0.9162266    0.5203121   -2.8894116 
H    -2.4514961   -3.3679040   -2.2086927 
H    -2.6774195   -4.6796673   -1.0469086 
H    -2.2555034   -4.3136382    1.4437766 
H    -1.7692699   -2.7345618    2.0587669 
H    -1.1760424    2.2416891   -0.9253946 
H     0.5813038    2.0321219   -0.9332380 
H    -1.3877305    3.0425935    2.8179595 
H    -2.3738406    2.8482220    1.3539895 
H     1.2226681   -1.3061892    3.0751598 
H    -0.4787052   -1.7517058    3.2991386 
H     0.6292555    2.4396860    3.6913051 
H     1.9060889    1.2740317    3.2944457 
H    -4.9373931    1.8567578   -2.8210469 
H    -4.9509143    0.1417562   -3.2741324 
H    -2.9873751   -0.7998191   -4.7584477 
H    -1.6785974    0.2929850   -5.2429334 
H    -0.0072773   -3.3254349   -1.7555979 
H    -0.5120279   -4.9436285   -2.2695847 
H     0.1902402   -4.2902259    1.9706816 
H     0.4367096   -2.9183332    0.8703894 
H    -0.1009631    4.2690836   -1.8858281 
H     0.8991076    4.4634682   -0.4317103 
H    -0.2986123    5.0690799    1.8563591 
H    -2.0621854    5.2628502    1.8636472 
H     0.8684413   -2.2958725    5.3360343 
H    -0.3812911   -1.0916976    5.7052597 
H     0.3168647    1.4365034    5.9290710 
H     2.0183314    1.8792277    5.6842599 
H    -3.9059243    1.4989342   -5.0957666 
H    -2.7243651    2.1672748   -3.9533746 
H    -0.4926146   -5.7547419    0.0794924 
H     1.0770533   -5.0235045   -0.2944383 
H    -1.0555871    6.0177434   -0.3277493 
H    -2.1773859    4.6635561   -0.5576261 
H     1.7889996   -0.4053262    6.7432271 
H     2.5963803   -0.4929576    5.1637399 
