102
Energy =
C     2.3646955   -1.6439109   -1.3802999 
C     2.8399813   -0.3374046   -1.0949307 
C     3.0353161    0.0896838    0.2455971 
H     2.9138006    0.3891063   -1.9144400 
Pd    0.8842451   -0.5232072   -0.1059509 
P    -0.5199572    0.6241415    1.3929622 
P    -1.3382758   -1.2215626   -0.5976188 
H     2.5953190   -2.4297820   -0.6444679 
H     3.2090098   -0.6973776    0.9959328 
C     1.4890820   -3.1203825   -5.3276715 
C     1.1669471   -1.7939730   -4.9920984 
C     1.4549835   -1.3014912   -3.7151788 
C     2.0648065   -2.1269740   -2.7425748 
C     2.3865146   -3.4563100   -3.0948780 
C     2.1053215   -3.9467032   -4.3766572 
H     1.2607268   -3.5056372   -6.3265724 
H     0.6853258   -1.1430141   -5.7296783 
H     1.1816347   -0.2728837   -3.4561892 
H     2.8632495   -4.1080442   -2.3544779 
H     2.3645191   -4.9793345   -4.6318342 
C     4.3585950    3.9898631    1.5059682 
C     4.3891978    2.9001093    2.3893240 
C     3.9674492    1.6365792    1.9589612 
C     3.4921213    1.4340578    0.6428674 
C     3.4891564    2.5385471   -0.2410872 
C     3.9175210    3.7992812    0.1856184 
H     4.6894696    4.9790012    1.8384232 
H     4.7520855    3.0326751    3.4138389 
H     4.0148438    0.7856836    2.6481083 
H     3.1358918    2.4181731   -1.2705675 
H     3.9051370    4.6410740   -0.5145050 
C    -1.9705946   -0.4446853   -2.1715004 
C    -2.1905847   -2.8998110   -0.4638124 
C    -0.8956078    2.4401456    1.1670282 
C    -0.3253894    0.2637976    3.2136732 
C    -2.0787045   -0.2470805    0.8259184 
C    -3.5080696   -0.4189812   -2.3142259 
C    -1.3870024    0.9696713   -2.3827867 
C    -2.2053897   -3.7108695   -1.7771793 
C    -1.5699922   -3.7419820    0.6767075 
C    -1.8006470    3.0373613    2.2656912 
C     0.3791644    3.2725913    0.9246873 
C    -0.1431147   -1.2550666    3.4363818 
C     0.8747210    1.0526785    3.7825722 
C    -3.9116632    0.1424318   -3.6926183 
C    -1.7784842    1.5198597   -3.7650968 
C    -0.8129476   -4.2344490   -2.1490719 
C    -0.1791066   -4.2889523    0.3123599 
C    -2.1334092    4.5083281    1.9465047 
C     0.0278246    4.7421870    0.6376717 
C     0.1261467   -1.5863312    4.9153360 
C     1.1403404    0.7039358    5.2576778 
C    -3.3060649    1.5331216   -3.9432114 
C    -0.2065631   -5.0720488   -1.0113417 
C    -0.8551313    5.3401048    1.7456067 
C     1.3353419   -0.8069034    5.4545735 
H    -1.5437806   -1.1047954   -2.9541198 
H    -3.2284335   -2.6253588   -0.1925906 
H    -1.4676569    2.4417518    0.2174291 
H    -1.2589709    0.5947885    3.7104662 
H    -2.4677135   -0.9312211    1.6002213 
H    -2.8939959    0.4388563    0.5355162 
H    -3.9363483    0.2219977   -1.5186653 
H    -3.9395985   -1.4256847   -2.1792006 
H    -0.2880696    0.9559332   -2.2537259 
H    -1.7850326    1.6463661   -1.6012651 
H    -2.6378302   -3.1249219   -2.6065203 
H    -2.8927553   -4.5643401   -1.6152562 
H    -2.2593206   -4.5856938    0.8726327 
H    -1.5216427   -3.1605652    1.6150437 
H    -1.2804693    2.9922176    3.2407503 
H    -2.7293628    2.4453030    2.3688247 
H     0.9398482    2.8358923    0.0816519 
H     1.0509717    3.2166834    1.8012784 
H     0.7056534   -1.6070099    2.8145662 
H    -1.0365024   -1.8051596    3.0910028 
H     0.7094366    2.1386267    3.6793432 
H     1.7683930    0.8148180    3.1774092 
H    -5.0129544    0.1807785   -3.7670023 
H    -3.5654196   -0.5580890   -4.4775861 
H    -1.3175028    0.8848426   -4.5474187 
H    -1.3636316    2.5356422   -3.8940755 
H    -0.1506834   -3.3764269   -2.3697846 
H    -0.8674032   -4.8262632   -3.0792408 
H     0.1942489   -4.9256065    1.1341234 
H     0.5273028   -3.4396592    0.2229166 
H    -2.7500578    4.9309489    2.7596104 
H    -2.7491131    4.5504528    1.0262845 
H    -0.5094041    4.8038608   -0.3298799 
H     0.9589574    5.3250205    0.5220754 
H     0.2812109   -2.6745969    5.0242235 
H    -0.7710739   -1.3323894    5.5128118 
H     0.2857862    1.0479633    5.8724277 
H     2.0267578    1.2617871    5.6092844 
H    -3.5711860    1.8880946   -4.9546704 
H    -3.7470201    2.2568228   -3.2291932 
H    -0.8078658   -5.9925942   -0.8771940 
H     0.8129767   -5.3996213   -1.2813769 
H    -1.1158871    6.3860460    1.5058830 
H    -0.2837786    5.3662615    2.6947651 
H     1.4956865   -1.0385193    6.5221917 
H     2.2494492   -1.1322770    4.9185641 
