102
Energy =
C     2.1503980   -1.3650458   -1.6547793 
C     2.8130616   -0.3598890   -0.9008255 
C     3.0361305   -0.5083552    0.4905299 
H     3.0337452    0.6072583   -1.3701417 
Pd    0.8354496   -0.6037008    0.0309092 
P    -0.3802837    0.6080405    1.6817573 
P    -1.4617530   -0.9829066   -0.4357912 
H     2.2272674   -2.4012636   -1.2936825 
H     3.0974493   -1.5350229    0.8839079 
C     1.1657476   -0.9738620   -5.8293152 
C     1.3767616    0.1772175   -5.0508786 
C     1.6936073    0.0618337   -3.6942585 
C     1.8196057   -1.2099123   -3.0831338 
C     1.6182202   -2.3573582   -3.8832091 
C     1.2891016   -2.2406594   -5.2397145 
H     0.9114945   -0.8817524   -6.8901030 
H     1.2816492    1.1695397   -5.5036131 
H     1.8184364    0.9711895   -3.0965784 
H     1.7312610   -3.3507390   -3.4363246 
H     1.1382190   -3.1430320   -5.8412042 
C     4.9570433    2.4526768    2.9500772 
C     4.1350933    2.8598678    1.8846216 
C     3.5019399    1.9074069    1.0803724 
C     3.6734970    0.5248494    1.3270847 
C     4.4984431    0.1302725    2.4032556 
C     5.1388428    1.0855614    3.2035859 
H     5.4512576    3.1997585    3.5792805 
H     3.9858750    3.9261788    1.6843451 
H     2.8498823    2.2366601    0.2644188 
H     4.6418265   -0.9366773    2.6067069 
H     5.7783678    0.7605895    4.0305630 
C    -2.3406395   -0.2218241   -1.8970320 
C    -2.2248109   -2.6779079   -0.1124016 
C    -0.2903371    2.4373059    1.3054936 
C    -0.5809825    0.4780569    3.5574651 
C    -2.0419890    0.0356774    1.0275907 
C    -1.7779063   -0.6705376   -3.2616293 
C    -3.8784749   -0.3464122   -1.8488393 
C    -2.1241004   -3.6406558   -1.3149802 
C    -1.5999403   -3.3514367    1.1316795 
C    -0.1439805    2.7004147   -0.2099977 
C    -1.4506251    3.2745537    1.8873761 
C    -0.3743580   -0.9802715    4.0304702 
C     0.3097978    1.4340988    4.3815111 
C    -2.4169660    0.1489559   -4.3961298 
C    -4.5125991    0.4699712   -2.9935322 
C    -0.6711536   -4.0574274   -1.5873733 
C    -0.1495525   -3.8041063    0.8961836 
C     0.0829517    4.1965970   -0.4886305 
C    -1.2290666    4.7745286    1.6065706 
C     1.1063200   -1.3969571    4.0174954 
C     1.7856561    1.0174385    4.3785440 
C    -3.9514905    0.0530838   -4.3640904 
C    -0.0255032   -4.7012050   -0.3470247 
C    -1.0487266    5.0516813    0.1052963 
C     1.9623368   -0.4327799    4.8549444 
H    -2.0767384    0.8490713   -1.7733840 
H    -3.2881595   -2.4478948    0.0910055 
H     0.6564794    2.7423324    1.7952971 
H    -1.6414016    0.7616592    3.7028015 
H    -2.5729648   -0.5824546    1.7728400 
H    -2.7100380    0.8670063    0.7409600 
H    -1.9925650   -1.7416621   -3.4257252 
H    -0.6832728   -0.5605996   -3.2740449 
H    -4.2752008   -0.0065940   -0.8739254 
H    -4.1643021   -1.4098966   -1.9589719 
H    -2.5850700   -3.2036721   -2.2163253 
H    -2.7265263   -4.5352946   -1.0638642 
H    -2.2261006   -4.2325295    1.3707705 
H    -1.6588058   -2.6904489    2.0138029 
H    -1.0675644    2.3723266   -0.7270413 
H     0.6779464    2.0874797   -0.6268207 
H    -1.5596115    3.1078783    2.9727932 
H    -2.4018678    2.9548566    1.4182784 
H    -0.9794776   -1.6782203    3.4250770 
H    -0.7672679   -1.0509263    5.0629558 
H    -0.0789911    1.4058591    5.4185226 
H     0.1984005    2.4791285    4.0447763 
H    -2.0223696   -0.2004134   -5.3666833 
H    -2.1080253    1.2085842   -4.2936447 
H    -4.3081850    1.5455999   -2.8231821 
H    -5.6103410    0.3489745   -2.9698601 
H    -0.0972704   -3.1593001   -1.8852518 
H    -0.6327984   -4.7519216   -2.4449392 
H     0.2310123   -4.3229318    1.7937996 
H     0.4896198   -2.8992945    0.7673413 
H     0.1668628    4.3647497   -1.5773688 
H     1.0509966    4.5017634   -0.0436786 
H    -0.3281582    5.1115327    2.1557442 
H    -2.0791128    5.3542583    2.0080173 
H     1.4731213   -1.3991947    2.9717276 
H     1.2023107   -2.4324196    4.3900916 
H     2.3718469    1.7080073    5.0092590 
H     2.1883334    1.1181833    3.3537237 
H    -4.3934298    0.6778282   -5.1604213 
H    -4.2542770   -0.9910443   -4.5777266 
H    -0.5230008   -5.6695840   -0.1439018 
H     1.0371185   -4.9334214   -0.5444138 
H    -0.8484329    6.1243139   -0.0641710 
H    -1.9940854    4.8194250   -0.4241691 
H     1.6633300   -0.5088757    5.9189239 
H     3.0265365   -0.7217907    4.8041835 
