101
Energy =
C    -1.5715640   -3.0330898    1.2156362 
C    -0.3338219   -3.4928896    0.6682991 
C     0.8923940   -3.2795750    1.3367613 
H    -0.3197009   -3.8922952   -0.3540570 
Pd   -0.1945598   -1.3100860    0.9016040 
P     1.6521236   -0.0402012    0.1562276 
P    -1.6867946    0.4702183    0.7212762 
H    -1.6679442   -3.0154680    2.3111749 
H     0.8474142   -3.0991392    2.4224367 
C    -5.2887617   -3.1524319   -0.9591540 
C    -4.0736091   -3.0370225   -1.6552340 
C    -2.8628340   -3.0026194   -0.9562040 
C    -2.8366903   -3.0918567    0.4561912 
C    -4.0656689   -3.2184135    1.1387827 
C    -5.2785699   -3.2448438    0.4397571 
H    -6.2367787   -3.1714944   -1.5061570 
H    -4.0723316   -2.9667517   -2.7483812 
H    -1.9266433   -2.8785196   -1.5121584 
H    -4.0668514   -3.2963277    2.2306593 
H    -6.2196943   -3.3347230    0.9912829 
C     4.7904053   -4.4525235   -0.0414859 
C     4.5428310   -4.2434582    1.3230507 
C     3.2720120   -3.8458459    1.7526057 
C     2.2183575   -3.6640810    0.8284438 
C     2.4843394   -3.8736723   -0.5449787 
C     3.7569689   -4.2606185   -0.9738416 
H     5.7852907   -4.7599077   -0.3797385 
H     5.3435559   -4.3844022    2.0557521 
H     3.0856660   -3.6789287    2.8187008 
H     1.6959783   -3.7235290   -1.2877739 
H     3.9447653   -4.4141911   -2.0414842 
F     0.3693174    6.8294691   -1.4294176 
F    -0.9966959    6.6190957    0.2354694 
F     1.4301083    2.4945981   -5.4569456 
F    -0.0439591    4.0581114   -5.2089683 
O    -0.3376627    4.7698479   -0.8639175 
O     0.6248071    2.9073629   -3.3950844 
O     1.1237021    5.9046719    0.4780367 
O    -0.6898254    1.9140388   -4.9787020 
C     0.5600497    2.4943987   -0.4698624 
C    -0.4124196    1.8527260   -1.4011874 
C     1.5853956    1.8042746    0.2548462 
C    -1.4767568    0.9690529   -1.0336482 
C     0.5458114    3.8737641   -0.3075005 
C    -0.2897391    2.0915537   -2.7677560 
C     1.4381479    4.5662606    0.5140319 
C    -1.0886843    1.4804287   -3.7358735 
C     2.4953258    2.5162185    1.0607900 
C    -2.2554277    0.3293975   -2.0232624 
C     2.4426554    3.9173143    1.2121497 
C    -2.0803049    0.5718072   -3.4000043 
C     3.2195271   -0.4721285    1.0033276 
C     1.8704560   -0.3065710   -1.6485999 
C    -3.4765532    0.2404566    1.0722470 
C    -1.3643929    1.9614889    1.7482469 
C     0.0363885    6.0435388   -0.3994373 
C     0.3352891    2.8513284   -4.7697576 
C     3.1981989   -0.4886635    2.4155354 
C     1.0343080   -1.2156292   -2.3244129 
C    -3.7670947   -0.3053863    2.3402881 
C    -0.4468212    1.9051402    2.8118620 
C     4.4137462   -0.7737869    0.3243643 
C     2.7956220    0.4657463   -2.3828154 
C    -4.5300363    0.7033613    0.2611899 
C    -2.0923697    3.1452069    1.5088726 
C     4.3688866   -0.7518321    3.1371508 
C     1.1292351   -1.3645924   -3.7143754 
C    -5.0892888   -0.3876506    2.7905549 
C    -0.2410821    3.0324563    3.6201987 
C     5.5791138   -1.0540643    1.0530347 
C     2.8960379    0.3047467   -3.7701819 
C    -5.8556711    0.5957797    0.7078866 
C    -1.8804938    4.2690743    2.3155392 
C     5.5639812   -1.0291596    2.4545694 
C     2.0626311   -0.6070914   -4.4375070 
C    -6.1380049    0.0545372    1.9698732 
C    -0.9532208    4.2143311    3.3695923 
H     3.2786459    1.9699246    1.5922706 
H    -3.0199050   -0.3897494   -1.7174855 
H     3.1507636    4.4574682    1.8441825 
H    -2.6910969    0.0750423   -4.1570403 
H     2.2600581   -0.2904822    2.9481827 
H     0.2826267   -1.7743996   -1.7550775 
H    -2.9484570   -0.6569767    2.9800768 
H     0.1142097    0.9810060    2.9936524 
H     4.4360447   -0.8068740   -0.7683934 
H     3.4153563    1.2119434   -1.8740860 
H    -4.3270909    1.1650248   -0.7092541 
H    -2.8130134    3.1925411    0.6852759 
H     4.3467841   -0.7495227    4.2318614 
H     0.4638609   -2.0613528   -4.2345643 
H    -5.3020140   -0.8062363    3.7796383 
H     0.4798943    2.9883480    4.4428868 
H     6.5023630   -1.2979381    0.5178707 
H     3.6060189    0.9141521   -4.3371467 
H    -6.6695556    0.9522651    0.0681365 
H    -2.4322268    5.1921629    2.1159437 
H     6.4791643   -1.2414353    3.0167600 
H     2.1282914   -0.7101742   -5.5252218 
H    -7.1740662   -0.0173998    2.3162711 
H    -0.7881769    5.0963220    3.9968263 
