101
Energy =
C    -1.4894442   -2.6716074    1.8175246 
C    -0.3225794   -3.3193047    1.3527820 
C     0.9669917   -2.8861449    1.8031940 
H    -0.3980861   -4.0362069    0.5257238 
Pd   -0.0621811   -1.2056465    0.7996660 
P     1.6548026    0.3767733    0.7823450 
P    -1.5374814    0.0104302   -0.5387353 
H    -1.3887001   -2.0795428    2.7414839 
H     1.0406646   -2.5099245    2.8329376 
C    -5.5889271   -3.3855358    0.7633026 
C    -5.2455721   -2.3677831    1.6661821 
C    -3.9039716   -2.1506206    1.9945541 
C    -2.8771432   -2.9395678    1.4228154 
C    -3.2387017   -3.9555082    0.5083614 
C    -4.5809803   -4.1763899    0.1875833 
H    -6.6387771   -3.5650589    0.5098656 
H    -6.0250504   -1.7476215    2.1203153 
H    -3.6400404   -1.3589365    2.7040717 
H    -2.4696546   -4.5879572    0.0554946 
H    -4.8444995   -4.9713651   -0.5168866 
C     4.7265080   -4.0844937    0.0797117 
C     4.6676872   -3.5677402    1.3819337 
C     3.4376964   -3.1975327    1.9390822 
C     2.2387819   -3.3338105    1.2039013 
C     2.3134778   -3.8594446   -0.1089952 
C     3.5418951   -4.2317321   -0.6622072 
H     5.6879682   -4.3731902   -0.3569638 
H     5.5841006   -3.4503973    1.9695506 
H     3.4004961   -2.7907071    2.9552818 
H     1.4028140   -3.9610861   -0.7105284 
H     3.5798934   -4.6352979   -1.6795767 
F    -0.8763676    6.9196011   -0.5270564 
F    -2.7610944    6.0172770    0.0329256 
F     3.3074283    4.2741792   -3.7603806 
F     1.4841446    5.4005697   -4.0547453 
O    -1.0863662    4.6843334   -0.6666031 
O     1.5624066    3.8875393   -2.3916954 
O    -0.9782618    5.7144769    1.3707998 
O     1.4995192    3.2107697   -4.5737587 
C     0.2110453    2.6538063   -0.0738152 
C     0.1129852    2.1038115   -1.4568876 
C     0.9280775    2.0609782    1.0156022 
C    -0.6600456    0.9669525   -1.8537639 
C    -0.3682805    3.8888650    0.1979286 
C     0.7716361    2.7645309   -2.4879766 
C    -0.3008312    4.5195061    1.4420459 
C     0.7330985    2.3511671   -3.8212335 
C     1.0019584    2.7155574    2.2617935 
C    -0.7048944    0.5693228   -3.2051926 
C     0.3841501    3.9594490    2.5075883 
C    -0.0019074    1.2479916   -4.2221265 
C     2.8165776    0.1412703    2.1853792 
C     2.6731672    0.5120323   -0.7284396 
C    -2.6163302   -1.1445313   -1.4695263 
C    -2.5903466    1.2609299    0.2804801 
C    -1.4302789    5.8453463    0.0481442 
C     1.9695358    4.2039628   -3.7001991 
C     4.2133769    0.1192447    2.0137890 
C     2.6051051   -0.5125220   -1.6913995 
C    -4.0086045   -0.9832357   -1.5852829 
C    -2.5736283    1.3463928    1.6864510 
C     2.2729471   -0.1055750    3.4665646 
C     3.4969021    1.6359328   -0.9498122 
C    -1.9893016   -2.2482528   -2.0923893 
C    -3.3407983    2.1903317   -0.4700444 
C     5.0519767   -0.1246857    3.1124528 
C     3.3514759   -0.4105244   -2.8730955 
C    -4.7557951   -1.8934421   -2.3476537 
C    -3.3024944    2.3505877    2.3376080 
C     3.1142160   -0.3365209    4.5616164 
C     4.2469334    1.7269227   -2.1286403 
C    -2.7376763   -3.1401473   -2.8697986 
C    -4.0768249    3.1842537    0.1864773 
C     4.5082194   -0.3469541    4.3850217 
C     4.1693284    0.7083729   -3.0925383 
C    -4.1233038   -2.9590081   -3.0033198 
C    -4.0537079    3.2687812    1.5877871 
H     1.5761597    2.2597931    3.0721858 
H    -1.3185760   -0.2885105   -3.4903660 
H     0.4567986    4.4587683    3.4762274 
H    -0.0472646    0.9307041   -5.2661903 
H     4.6499739    0.2756883    1.0232336 
H     1.9600273   -1.3791313   -1.5125725 
H    -4.5123326   -0.1550819   -1.0783360 
H    -1.9598081    0.6432059    2.2612257 
H     1.1844565   -0.1214677    3.6033884 
H     3.5319167    2.4465300   -0.2138333 
H    -0.9084069   -2.3966153   -1.9731587 
H    -3.3265073    2.1522574   -1.5647099 
H     6.1369678   -0.1452543    2.9674280 
H     3.2914204   -1.2040635   -3.6248934 
H    -5.8399942   -1.7653411   -2.4281924 
H    -3.2749184    2.4243558    3.4296174 
H     2.6830758   -0.5177187    5.5515716 
H     4.8758333    2.6039857   -2.3056961 
H    -2.2415373   -3.9819416   -3.3639486 
H    -4.6473202    3.9127061   -0.3970944 
H     5.1669122   -0.5360390    5.2387517 
H     4.7454221    0.7921384   -4.0197708 
H    -4.7116926   -3.6584772   -3.6059704 
H    -4.6116648    4.0628128    2.0942516 
