101
Energy =
C    -1.5858354   -3.0313635    1.2025738 
C    -0.3554231   -3.4956429    0.6426063 
C     0.8770515   -3.2967726    1.3039719 
H    -0.3515337   -3.8868118   -0.3830158 
Pd   -0.1985218   -1.3159868    0.8925055 
P     1.6524170   -0.0537202    0.1445499 
P    -1.6780503    0.4771695    0.7369642 
H    -1.6741749   -3.0221916    2.2988981 
H     0.8410714   -3.1249045    2.3913670 
C    -5.3191867   -3.1072061   -0.9463021 
C    -4.1083341   -2.9927856   -1.6500040 
C    -2.8924199   -2.9725433   -0.9594222 
C    -2.8567661   -3.0750356    0.4518523 
C    -4.0815786   -3.2003750    1.1420807 
C    -5.2995726   -3.2129214    0.4515669 
H    -6.2711850   -3.1152451   -1.4866103 
H    -4.1144244   -2.9121299   -2.7424164 
H    -1.9594221   -2.8490445   -1.5208416 
H    -4.0754370   -3.2885642    2.2331638 
H    -6.2372810   -3.3024015    1.0089626 
C     4.7564113   -4.4863133   -0.1121578 
C     4.5200441   -4.2874486    1.2558903 
C     3.2552731   -3.8843091    1.6979777 
C     2.1964693   -3.6868071    0.7829784 
C     2.4511279   -3.8864429   -0.5940621 
C     3.7178155   -4.2788216   -1.0353859 
H     5.7466146   -4.7978628   -0.4601892 
H     5.3248167   -4.4408996    1.9816122 
H     3.0777891   -3.7252401    2.7667891 
H     1.6586048   -3.7241236   -1.3298026 
H     3.8969128   -4.4242937   -2.1056555 
F     0.4114437    6.8378220   -1.3794672 
F    -0.9442546    6.6242734    0.2934440 
F     1.4101646    2.5267606   -5.4476229 
F    -0.0506151    4.0989187   -5.1767342 
O    -0.3068036    4.7790349   -0.8252090 
O     0.6228354    2.9291215   -3.3768070 
O     1.1724364    5.8923550    0.5151817 
O    -0.7104695    1.9578963   -4.9585372 
C     0.5757865    2.4938316   -0.4543517 
C    -0.4080197    1.8667768   -1.3836898 
C     1.6005129    1.7903023    0.2582017 
C    -1.4765790    0.9886217   -1.0152934 
C     0.5734682    3.8719922   -0.2816354 
C    -0.2933680    2.1153880   -2.7492209 
C     1.4767466    4.5513171    0.5389177 
C    -1.1039850    1.5180111   -3.7162120 
C     2.5215737    2.4890681    1.0630420 
C    -2.2677034    0.3631857   -2.0041317 
C     2.4809819    3.8893652    1.2251171 
C    -2.1005577    0.6148815   -3.3801850 
C     3.2222255   -0.5042601    0.9773952 
C     1.8563447   -0.3071629   -1.6638119 
C    -3.4672503    0.2590966    1.0980123 
C    -1.3362597    1.9570085    1.7741545 
C     0.0800276    6.0462114   -0.3533997 
C     0.3230043    2.8859968   -4.7497544 
C     3.2104338   -0.5319866    2.3895191 
C     2.7825300    0.4638416   -2.3981300 
C    -3.7543840   -0.2982645    2.3617517 
C    -0.4138287    1.8830308    2.8324887 
C     4.4095320   -0.8091218    0.2878095 
C     1.0085848   -1.2042324   -2.3411584 
C    -4.5217655    0.7407792    0.2992530 
C    -2.0545166    3.1493781    1.5488298 
C     4.3841640   -0.8091008    3.1009075 
C     2.8723555    0.3131876   -3.7873860 
C    -5.0743214   -0.3736820    2.8198380 
C    -0.1940053    3.0011639    3.6498371 
C     5.5777732   -1.1037122    1.0061534 
C     1.0928316   -1.3426229   -3.7328969 
C    -5.8453259    0.6403922    0.7536175 
C    -1.8285828    4.2640389    2.3644122 
C     5.5725025   -1.0895788    2.4079082 
C     2.0272231   -0.5866069   -4.4563010 
C    -6.1242892    0.0873932    2.0112768 
C    -0.8968360    4.1914991    3.4134331 
H     3.3042229    1.9327160    1.5849952 
H    -3.0360992   -0.3517965   -1.6983696 
H     3.1977234    4.4192501    1.8561126 
H    -2.7208821    0.1290791   -4.1365796 
H     2.2774091   -0.3314627    2.9302099 
H     3.4116065    1.2010017   -1.8876953 
H    -2.9348104   -0.6644534    2.9920590 
H     0.1395558    0.9522076    3.0033790 
H     4.4241261   -0.8335696   -0.8053033 
H     0.2565220   -1.7618147   -1.7711584 
H    -4.3209472    1.2112069   -0.6674349 
H    -2.7786594    3.2106323    0.7292183 
H     4.3696417   -0.8150613    4.1957298 
H     3.5833800    0.9214602   -4.3542629 
H    -5.2843668   -0.8016160    3.8054864 
H     0.5305097    2.9431963    4.4685443 
H     6.4954578   -1.3502424    0.4626992 
H     0.4185106   -2.0299747   -4.2540766 
H    -6.6601158    1.0114282    0.1233662 
H    -2.3728319    5.1938219    2.1756495 
H     6.4899880   -1.3127689    2.9620605 
H     2.0845574   -0.6812706   -5.5452502 
H    -7.1586401    0.0211664    2.3638649 
H    -0.7208917    5.0662937    4.0477448 
