101
Energy =
C    -1.4703269   -3.1667300    0.3548946 
C    -0.2225085   -3.4826878    0.9688324 
C     0.1679253   -2.8902549    2.1906095 
H     0.5167283   -4.0692561    0.4082807 
Pd   -0.2709538   -1.2965255    0.6046365 
P     1.3331812    0.3627096    1.0091897 
P    -1.6169171    0.0763748   -0.7350200 
H    -2.3103483   -2.9177714    1.0181089 
H    -0.6194904   -2.4186528    2.8008072 
C    -2.6508471   -4.4767844   -3.5728369 
C    -1.2857604   -4.3670682   -3.2566501 
C    -0.8900701   -3.9463110   -1.9841932 
C    -1.8505757   -3.6241848   -0.9957697 
C    -3.2181711   -3.7402005   -1.3283868 
C    -3.6137104   -4.1638219   -2.6030500 
H    -2.9588583   -4.8051488   -4.5707614 
H    -0.5281318   -4.6068037   -4.0100350 
H     0.1784493   -3.8505866   -1.7600177 
H    -3.9756823   -3.4920606   -0.5773139 
H    -4.6797669   -4.2461158   -2.8385930 
C     3.8225536   -3.6499224    4.3143262 
C     3.3992748   -4.5443933    3.3189420 
C     2.2160622   -4.3031041    2.6126236 
C     1.4263497   -3.1656520    2.8994053 
C     1.8563100   -2.2834938    3.9178427 
C     3.0466651   -2.5178010    4.6113603 
H     4.7510394   -3.8380466    4.8629172 
H     3.9910469   -5.4384983    3.0973140 
H     1.8870172   -5.0224245    1.8556994 
H     1.2577431   -1.3939660    4.1452136 
H     3.3735939   -1.8154186    5.3843539 
F     0.3933840    3.9064986   -5.2159806 
F     1.5143228    5.3632561   -4.0753017 
F    -0.3317632    7.0681281   -0.3911366 
F     0.5366631    6.5790606    1.5292307 
O     0.3776840    3.7682379   -2.9686832 
O     0.3389571    4.9536319   -0.0143810 
O     2.2602663    3.2411823   -4.1522316 
O    -1.5112418    5.7883605    1.0351884 
C     0.7460904    2.2196999   -1.0642345 
C    -0.5057014    2.6501196   -0.3802218 
C     1.6905867    1.2678280   -0.5631810 
C    -1.6658715    1.8377104   -0.1749629 
C     1.0862126    2.8114056   -2.2771043 
C    -0.6147754    3.9634213    0.0634388 
C     2.2360145    2.4895058   -3.0004562 
C    -1.7441719    4.4728541    0.7066592 
C     2.8531091    0.9588621   -1.2990089 
C    -2.8064579    2.3678035    0.4611702 
C     3.1509752    1.5567809   -2.5403565 
C    -2.8706057    3.6973945    0.9262713 
C     0.8687636    1.6623932    2.2127212 
C     2.9746391   -0.2670510    1.5376457 
C    -1.1135671    0.2022152   -2.4890476 
C    -3.3752068   -0.4536548   -0.6991020 
C     1.1350441    4.0795816   -4.1117902 
C    -0.2383549    6.1102630    0.5390266 
C    -0.1823837    1.4065682    3.1149228 
C     3.8060044    0.4243805    2.4402734 
C    -0.0898635   -0.6351790   -2.9702160 
C    -4.1487918   -0.6136888   -1.8631495 
C     1.5316646    2.9074855    2.2474865 
C     3.4090283   -1.4957754    0.9958286 
C    -1.6876858    1.1717462   -3.3386251 
C    -3.9483119   -0.7443550    0.5595232 
C    -0.5632138    2.3820970    4.0469542 
C     5.0640105   -0.0965003    2.7728773 
C     0.3590493   -0.5037677   -4.2909702 
C    -5.4837402   -1.0359486   -1.7655524 
C     1.1523171    3.8761721    3.1852350 
C     4.6702228   -2.0063100    1.3241959 
C    -1.2431129    1.2897097   -4.6607923 
C    -5.2830357   -1.1575711    0.6521272 
C     0.1047821    3.6153679    4.0831759 
C     5.5001295   -1.3058037    2.2126029 
C    -0.2161260    0.4578094   -5.1353676 
C    -6.0543207   -1.3025366   -0.5134764 
H     3.5673535    0.2394455   -0.8898713 
H    -3.6905325    1.7382836    0.5874571 
H     4.0571855    1.3104291   -3.0978976 
H    -3.7614394    4.0952373    1.4170506 
H    -0.7125852    0.4476648    3.0686267 
H     3.4735861    1.3633733    2.8917450 
H     0.3665366   -1.3682233   -2.2970849 
H    -3.7101375   -0.4288425   -2.8476476 
H     2.3225969    3.1302032    1.5229953 
H     2.7486102   -2.0545574    0.3213228 
H    -2.4591736    1.8499520   -2.9583223 
H    -3.3435933   -0.6445272    1.4697425 
H    -1.3863746    2.1819572    4.7404616 
H     5.7044868    0.4461397    3.4757714 
H     1.1650468   -1.1471551   -4.6582749 
H    -6.0756900   -1.1638712   -2.6775579 
H     1.6606155    4.8443724    3.1999873 
H     4.9967957   -2.9616402    0.9023213 
H    -1.6789157    2.0507749   -5.3143696 
H    -5.7205140   -1.3725992    1.6324730 
H    -0.1963720    4.3801115    4.8064350 
H     6.4824697   -1.7100612    2.4772740 
H     0.1429303    0.5695994   -6.1634573 
H    -7.0963241   -1.6308545   -0.4431349 
