101
Energy =
C    -1.4569719   -3.1291943    1.1939080 
C    -0.1109959   -3.4524419    0.9113247 
C     0.9535354   -3.0231155    1.7630031 
H     0.1326209   -3.9193130   -0.0517627 
Pd   -0.1563308   -1.2546552    0.9850753 
P     1.4472947    0.4282163    1.1426579 
P    -1.6278947    0.0576320   -0.3138376 
H    -1.7042529   -2.8782075    2.2374951 
H     0.7404505   -2.9357455    2.8385145 
C    -4.8886822   -4.1810458   -1.1700646 
C    -5.0168041   -3.8974102    0.1974622 
C    -3.8913715   -3.5409286    0.9484841 
C    -2.6121466   -3.4759285    0.3513012 
C    -2.4991385   -3.7601681   -1.0297428 
C    -3.6257982   -4.1056593   -1.7811792 
H    -5.7688846   -4.4560316   -1.7602346 
H    -5.9975253   -3.9477176    0.6806658 
H    -3.9980488   -3.3153752    2.0147467 
H    -1.5268173   -3.7010164   -1.5265069 
H    -3.5192360   -4.3177760   -2.8500119 
C     5.1131219   -3.4851457    0.7411776 
C     4.7055419   -3.4792846    2.0826155 
C     3.3503201   -3.3419463    2.4065420 
C     2.3732895   -3.2001870    1.3976976 
C     2.7995924   -3.2112258    0.0480245 
C     4.1522574   -3.3564641   -0.2760137 
H     6.1727158   -3.5908254    0.4873902 
H     5.4461897   -3.5787855    2.8822914 
H     3.0404962   -3.3436383    3.4563893 
H     2.0670545   -3.0786033   -0.7560117 
H     4.4617935   -3.3629456   -1.3267631 
F     0.3285133    2.1794160   -5.7608731 
F     1.7815942    3.6763527   -5.1891840 
F     0.5123323    6.7216708   -1.8419959 
F     1.3520769    6.5622931    0.1457151 
O     0.5542553    2.6928519   -3.5803074 
O     0.8953878    4.6746580   -0.9901418 
O     2.1849021    1.5227324   -4.6733437 
O    -0.7970916    5.9748298   -0.1717953 
C     0.9158145    1.7257254   -1.3225742 
C    -0.2302701    2.4814087   -0.7391841 
C     1.7703317    0.8144487   -0.6234233 
C    -1.4612957    1.8982728   -0.2946292 
C     1.1970919    1.8750996   -2.6783702 
C    -0.1665954    3.8664656   -0.6548309 
C     2.1892719    1.1563190   -3.3476952 
C    -1.2007702    4.6602685   -0.1535287 
C     2.7473397    0.0672262   -1.3175377 
C    -2.5066957    2.7112593    0.1854181 
C     2.9810989    0.2220332   -2.6981991 
C    -2.4009286    4.1149107    0.2705031 
C     0.9581247    2.0026981    1.9577091 
C     3.0466879    0.1281143    1.9979552 
C    -1.3561068   -0.3185228   -2.0916549 
C    -3.3946147   -0.2311654    0.0813333 
C     1.2108568    2.5252566   -4.8121851 
C     0.4959785    5.9956195   -0.7186248 
C    -0.2156309    2.0674024    2.7286822 
C     2.9306511   -0.3412531    3.3233253 
C    -1.9876070    0.4490378   -3.0933953 
C    -3.7641888   -0.1541415    1.4424306 
C     1.8018977    3.1286968    1.8646205 
C     4.3153953    0.4747802    1.4960058 
C    -0.4292723   -1.3123803   -2.4595617 
C    -4.3738326   -0.5126555   -0.8882643 
C    -0.5559423    3.2573762    3.3881688 
C     4.0643482   -0.4619906    4.1343876 
C    -1.7117599    0.2000875   -4.4434525 
C    -5.1038894   -0.3045366    1.8207186 
C     1.4554928    4.3156139    2.5201876 
C     5.4516061    0.3279816    2.3058521 
C    -0.1467200   -1.5498339   -3.8112379 
C    -5.7116057   -0.6800306   -0.5008341 
C     0.2758402    4.3813296    3.2804030 
C     5.3297528   -0.1361930    3.6230339 
C    -0.7907456   -0.7963837   -4.8039370 
C    -6.0813043   -0.5619033    0.8462432 
H     3.3435041   -0.6681799   -0.7708462 
H    -3.4421146    2.2449420    0.5048435 
H     3.7424156   -0.3578011   -3.2246080 
H    -3.2164444    4.7342225    0.6499846 
H    -0.8663748    1.1878426    2.7981793 
H     1.9426373   -0.6023654    3.7217885 
H    -2.6713481    1.2586723   -2.8166509 
H    -2.9972194    0.0280727    2.2050879 
H     2.7203238    3.0821138    1.2693829 
H     4.4256704    0.8763667    0.4848223 
H     0.0967715   -1.8686816   -1.6753038 
H    -4.0966963   -0.6177839   -1.9407555 
H    -1.4741725    3.3073658    3.9822567 
H     3.9610937   -0.8196838    5.1640315 
H    -2.1943180    0.8055570   -5.2164353 
H    -5.3839057   -0.2299726    2.8765947 
H     2.1014340    5.1936512    2.4302012 
H     6.4355370    0.5932587    1.9055420 
H     0.5875712   -2.3131673   -4.0885979 
H    -6.4666707   -0.9090386   -1.2595845 
H     0.0069639    5.3121074    3.7902349 
H     6.2193325   -0.2385252    4.2529493 
H    -0.5605617   -0.9692450   -5.8599468 
H    -7.1285789   -0.6860414    1.1402597 
