101
Energy =
C    -1.6299941   -3.1105119   -0.4227090 
C    -1.4497976   -3.1374295    0.9985694 
C    -2.1245212   -2.2029439    1.8161363 
H    -0.6661450   -3.7681744    1.4362918 
Pd   -0.8201032   -1.1656574    0.2516456 
P     0.2236123    0.4745400    1.5420598 
P    -0.4349834   -0.1436033   -1.8118367 
H    -2.6179652   -2.8122075   -0.7996929 
H    -3.0003102   -1.7029701    1.3717985 
C     0.7761220   -5.2696502   -3.2671395 
C    -0.5006005   -4.8055277   -3.6147942 
C    -1.2815123   -4.1195047   -2.6767903 
C    -0.8006187   -3.8799402   -1.3699104 
C     0.4896819   -4.3564112   -1.0326618 
C     1.2663606   -5.0442585   -1.9693551 
H     1.3874584   -5.8056639   -4.0002303 
H    -0.8930004   -4.9766123   -4.6225511 
H    -2.2760551   -3.7567097   -2.9572556 
H     0.8974728   -4.1714793   -0.0321677 
H     2.2623388   -5.4040688   -1.6903306 
C    -1.9132751   -1.6740642    6.0709319 
C    -1.1607905   -2.6931991    5.4643581 
C    -1.2062219   -2.8775095    4.0796879 
C    -2.0161831   -2.0471894    3.2712083 
C    -2.7684217   -1.0241746    3.8968252 
C    -2.7155830   -0.8363677    5.2813491 
H    -1.8755231   -1.5365252    7.1564395 
H    -0.5342352   -3.3491488    6.0766287 
H    -0.6188814   -3.6822321    3.6279645 
H    -3.4002642   -0.3719015    3.2842426 
H    -3.3068101   -0.0409873    5.7464033 
F    -0.4607614    6.5548323    0.8358953 
F     0.4787036    6.8958681   -1.0828463 
F     4.3708382    4.9000647   -2.1661320 
F     4.4166155    3.2890939   -3.6092420 
O     0.5290084    4.8234411   -0.2096717 
O     2.7254895    3.3662731   -2.1256889 
O    -1.4257594    5.6993303   -1.0071122 
O     4.8390368    2.8185545   -1.4501638 
C     0.1640769    2.4840701   -0.9520927 
C     1.4894879    2.0396087   -0.4321890 
C    -0.7732200    1.6682045   -1.6649381 
C     1.7041792    1.1888634    0.6980412 
C    -0.1921885    3.8221332   -0.8203963 
C     2.6426362    2.5222304   -1.0410370 
C    -1.3853659    4.3580622   -1.3094250 
C     3.9339608    2.1879706   -0.6280253 
C    -1.9666331    2.2251198   -2.1675491 
C     3.0124250    0.8724867    1.1162791 
C    -2.3049426    3.5837630   -1.9972359 
C     4.1607698    1.3584897    0.4575076 
C     1.2497253   -0.2518284   -2.5100129 
C    -1.5858259   -0.7571541   -3.1049692 
C    -0.7624904    1.9422044    2.0078389 
C     0.9010218   -0.2825967    3.0690794 
C    -0.2161494    6.0059528   -0.3638629 
C     4.0943994    3.6021865   -2.3457096 
C     1.6562178    0.5952493   -3.5624997 
C    -1.1429189   -1.1710631   -4.3751480 
C    -0.1556868    3.0771707    2.5855906 
C     0.7401353    0.2769359    4.3492372 
C     2.1560029   -1.1789571   -1.9616648 
C    -2.9533421   -0.8881064   -2.7724588 
C    -2.1366101    1.9633744    1.6988103 
C     1.6173620   -1.4929412    2.9235631 
C     2.9624358    0.5091416   -4.0594146 
C    -2.0592383   -1.6878539   -5.3041987 
C    -0.9247821    4.2141209    2.8620330 
C     1.3232071   -0.3470591    5.4621432 
C     3.4644136   -1.2535790   -2.4578153 
C    -3.8654442   -1.3926868   -3.7071821 
C    -2.8990307    3.1081402    1.9670938 
C     2.2152395   -2.0984690    4.0352545 
C     3.8678834   -0.4093347   -3.5034069 
C    -3.4179320   -1.7948015   -4.9770600 
C    -2.2932628    4.2326302    2.5485715 
C     2.0736185   -1.5209592    5.3068168 
H    -2.6562598    1.5924309   -2.7318168 
H     3.1547850    0.2383190    1.9945589 
H    -3.2296240    4.0032739   -2.3994865 
H     5.1690686    1.1070243    0.7934735 
H     0.9607678    1.3347485   -3.9742046 
H    -0.0830023   -1.1071742   -4.6373850 
H     0.9199196    3.0796609    2.7928652 
H     0.1572604    1.1930140    4.4818893 
H     1.8324869   -1.8303844   -1.1429536 
H    -3.3019171   -0.5976609   -1.7735884 
H    -2.5936579    1.0910553    1.2174360 
H     1.7132986   -1.9509520    1.9307331 
H     3.2812624    1.1749284   -4.8662904 
H    -1.7036809   -2.0127105   -6.2873669 
H    -0.4501632    5.0984775    3.2971665 
H     1.1888081    0.0909244    6.4563473 
H     4.1706121   -1.9692750   -2.0247002 
H    -4.9242360   -1.4812559   -3.4428893 
H    -3.9634562    3.1274024    1.7116056 
H     2.7839513   -3.0258895    3.9111909 
H     4.8928522   -0.4614242   -3.8847055 
H    -4.1286972   -2.1976251   -5.7057933 
H    -2.8845486    5.1325531    2.7456197 
H     2.5356144   -1.9955539    6.1785724 
