101
Energy =
C    -1.5946737   -3.1306311   -0.4064364 
C    -1.2422685   -3.2298489    0.9789849 
C    -1.8338261   -2.3628309    1.9251165 
H    -0.3958493   -3.8584529    1.2819322 
Pd   -0.7563646   -1.2016430    0.2778360 
P     0.4006502    0.3929166    1.5278342 
P    -0.6519196   -0.0530185   -1.7518324 
H    -2.6283804   -2.8444814   -0.6446217 
H    -2.7688657   -1.8656077    1.6203381 
C     0.5050299   -5.0499592   -3.6390943 
C    -0.8150151   -4.6069054   -3.8051879 
C    -1.4943666   -3.9995288   -2.7422190 
C    -0.8664376   -3.8191862   -1.4893094 
C     0.4661847   -4.2733870   -1.3359466 
C     1.1414846   -4.8828859   -2.3971905 
H     1.0369864   -5.5246298   -4.4698794 
H    -1.3210833   -4.7334130   -4.7678379 
H    -2.5239142   -3.6526977   -2.8810874 
H     0.9860579   -4.1321941   -0.3814178 
H     2.1721261   -5.2266878   -2.2597613 
C    -1.1130327   -2.0646124    6.1464148 
C    -2.0197968   -1.2037793    5.5094762 
C    -2.2384389   -1.3161328    4.1330625 
C    -1.5510533   -2.2847039    3.3629901 
C    -0.6342790   -3.1388683    4.0180151 
C    -0.4231559   -3.0304139    5.3953633 
H    -0.9454128   -1.9865672    7.2255209 
H    -2.5626771   -0.4492281    6.0877270 
H    -2.9511466   -0.6459633    3.6402612 
H    -0.0933814   -3.9032949    3.4527448 
H     0.2843468   -3.7043045    5.8883778 
F    -0.5196810    6.4754121    1.2858987 
F     0.1658413    6.9597289   -0.7080733 
F     3.9457514    5.1576284   -2.3829571 
F     3.8560200    3.6303356   -3.9122901 
O     0.3775285    4.8424600    0.0215391 
O     2.3580688    3.5708620   -2.2329664 
O    -1.6829168    5.6978888   -0.4753716 
O     4.5520511    3.0566282   -1.8513723 
C    -0.0165972    2.5390023   -0.8128955 
C     1.3738443    2.1090096   -0.4864053 
C    -1.0142335    1.7353261   -1.4542002 
C     1.7475752    1.2018459    0.5551517 
C    -0.3878889    3.8548391   -0.5567888 
C     2.4306599    2.6639046   -1.1995619 
C    -1.6459384    4.3784608   -0.8621686 
C     3.7711801    2.3497336   -0.9664343 
C    -2.2746819    2.2807427   -1.7717075 
C     3.1049662    0.9050656    0.7918762 
C    -2.6238876    3.6153304   -1.4781573 
C     4.1509249    1.4668195    0.0306764 
C     0.9358350   -0.0679006   -2.6552047 
C    -1.9371465   -0.6280985   -2.9310513 
C    -0.5532479    1.7994462    2.2022730 
C     1.2803246   -0.4344328    2.9082845 
C    -0.4112891    6.0064029    0.0333637 
C     3.6830927    3.8632101   -2.6028872 
C     1.9213521   -1.0022920   -2.2846946 
C    -1.6435613   -0.9515739   -4.2690416 
C    -1.9549050    1.7985602    2.0622675 
C     1.2706662    0.0421121    4.2313545 
C     1.1908536    0.8537175   -3.6926020 
C    -3.2491959   -0.8244278   -2.4435475 
C     0.0943065    2.9152726    2.7730410 
C     1.9968939   -1.6132888    2.5982142 
C     3.1579917   -1.0113496   -2.9437840 
C    -2.6535182   -1.4438994   -5.1101114 
C    -2.7040034    2.9023082    2.4916040 
C     2.0008453   -0.6320351    5.2214958 
C     2.4257058    0.8337509   -4.3523482 
C    -4.2559539   -1.3041759   -3.2900243 
C    -0.6603558    4.0102440    3.2113167 
C     2.7410122   -2.2686936    3.5865238 
C     3.4107311   -0.0933953   -3.9745031 
C    -3.9580691   -1.6159594   -4.6273894 
C    -2.0568683    4.0071314    3.0662132 
C     2.7483615   -1.7736328    4.9000871 
H    -3.0125425    1.6592429   -2.2851171 
H     3.3701538    0.2252622    1.6051491 
H    -3.6019594    4.0266165   -1.7371369 
H     5.1990808    1.2304463    0.2264089 
H     1.7156245   -1.7118854   -1.4762059 
H    -0.6262718   -0.8361595   -4.6538876 
H    -2.4476959    0.9436498    1.5849650 
H     0.6913896    0.9323432    4.4931167 
H     0.4353561    1.5984187   -3.9659802 
H    -3.4794896   -0.6046478   -1.3936637 
H     1.1868414    2.9371422    2.8486932 
H     1.9771719   -2.0068957    1.5737279 
H     3.9261067   -1.7338040   -2.6495839 
H    -2.4137032   -1.6978789   -6.1476949 
H    -3.7916928    2.9057943    2.3668792 
H     1.9837383   -0.2589787    6.2505211 
H     2.6280711    1.5566954   -5.1476083 
H    -5.2712569   -1.4441249   -2.9048991 
H    -0.1560150    4.8804851    3.6415344 
H     3.3080201   -3.1708148    3.3342130 
H     4.3801136   -0.0947222   -4.4834107 
H    -4.7423681   -1.9994240   -5.2879306 
H    -2.6393980    4.8758814    3.3890546 
H     3.3247536   -2.2877258    5.6760409 
