101
Energy =
C    -0.8462883   -3.3595127   -0.5435844 
C    -1.0059489   -3.3661063    0.8733091 
C    -2.0216836   -2.6122293    1.5030198 
H    -0.2333164   -3.8339224    1.4968442 
Pd   -0.6666976   -1.2709694    0.2346564 
P    -0.5079697    0.7095139    1.4753668 
P     0.1573866   -0.3132775   -1.7401290 
H    -1.7517743   -3.2315239   -1.1528998 
H    -2.8584292   -2.2652087    0.8752358 
C     2.4390002   -5.2016176   -2.6295866 
C     2.6039952   -4.7909035   -1.2955763 
C     1.5442806   -4.1944600   -0.6070370 
C     0.2923438   -3.9937577   -1.2360295 
C     0.1418350   -4.4127464   -2.5762933 
C     1.2037565   -5.0118410   -3.2648756 
H     3.2708965   -5.6670046   -3.1680392 
H     3.5667126   -4.9332975   -0.7937228 
H     1.6953536   -3.8652477    0.4273215 
H    -0.8188721   -4.2628684   -3.0803285 
H     1.0642525   -5.3284603   -4.3036266 
C    -2.8117303   -2.4485172    5.7210734 
C    -3.3548709   -1.4858039    4.8550941 
C    -3.0943582   -1.5516141    3.4837816 
C    -2.2703126   -2.5703927    2.9514220 
C    -1.7319431   -3.5344999    3.8347878 
C    -2.0065504   -3.4759279    5.2051948 
H    -3.0216227   -2.4018618    6.7944968 
H    -3.9811383   -0.6809108    5.2522008 
H    -3.5124819   -0.7936205    2.8114535 
H    -1.1212281   -4.3552933    3.4450301 
H    -1.5965348   -4.2396750    5.8740455 
F    -1.1928829    6.6543869   -0.4534073 
F     0.3364220    6.7985744   -1.9769445 
F     4.4038297    5.2039089   -1.0869589 
F     5.0935737    3.4603538   -2.1659684 
O     0.1808123    4.9017891   -0.7766663 
O     2.9664575    3.5076615   -1.4294021 
O    -1.4133904    5.4277577   -2.3270002 
O     4.7005999    3.2793221    0.0414005 
C     0.2196732    2.4526437   -1.1676417 
C     1.2741588    2.2306298   -0.1387188 
C    -0.3680815    1.4413193   -1.9921422 
C     1.1030136    1.5371840    1.1018544 
C    -0.2194405    3.7486939   -1.4141577 
C     2.5378250    2.7764726   -0.3442985 
C    -1.1948241    4.0698374   -2.3598034 
C     3.5972704    2.6373735    0.5540662 
C    -1.3398985    1.7796934   -2.9553285 
C     2.1784110    1.4132630    2.0055254 
C    -1.7844376    3.1026325   -3.1568819 
C     3.4551025    1.9537190    1.7503928 
C     1.9798712   -0.2322023   -1.8733828 
C    -0.4708765   -1.1849278   -3.2297794 
C    -1.7872052    1.9766536    1.1410242 
C    -0.4752035    0.4802916    3.2963382 
C    -0.5202849    5.9589690   -1.3834326 
C     4.2990383    3.8713115   -1.1664955 
C     2.5976437    0.5279776   -2.8892233 
C     0.3644511   -1.5941475   -4.2851430 
C    -1.5923570    3.3315116    1.4835440 
C     0.1756485   -0.6662419    3.8001556 
C     2.7678577   -0.8805455   -0.9040546 
C    -1.8519351   -1.4797979   -3.2842760 
C    -2.9876863    1.5799455    0.5199048 
C    -1.0577650    1.3965453    4.1935910 
C     3.9934069    0.6252996   -2.9347879 
C    -0.1798259   -2.2681944   -5.3894121 
C    -2.5956311    4.2717556    1.2169128 
C     0.2748698   -0.8726865    5.1809796 
C     4.1639079   -0.7693546   -0.9482170 
C    -2.3913114   -2.1453734   -4.3919514 
C    -3.9859253    2.5260915    0.2485789 
C    -0.9645805    1.1790645    5.5751110 
C     4.7763074   -0.0170199   -1.9618850 
C    -1.5534987   -2.5399395   -5.4488504 
C    -3.7906392    3.8707102    0.5981822 
C    -0.2943679    0.0512547    6.0704619 
H    -1.7594170    0.9964122   -3.5911281 
H     2.0203754    0.8929335    2.9538454 
H    -2.5384406    3.3505534   -3.9070600 
H     4.2779466    1.8529664    2.4614081 
H     1.9875875    1.0645854   -3.6239132 
H     1.4409795   -1.4065877   -4.2420313 
H    -0.6462152    3.6553504    1.9306728 
H     0.5965299   -1.4010370    3.1029723 
H     2.2793076   -1.4478094   -0.1050931 
H    -2.5054929   -1.1841196   -2.4539345 
H    -3.1260748    0.5306635    0.2327686 
H    -1.5910242    2.2752512    3.8199265 
H     4.4707161    1.2265965   -3.7138721 
H     0.4794085   -2.5882880   -6.2026976 
H    -2.4349426    5.3229083    1.4723412 
H     0.7785074   -1.7660777    5.5623963 
H     4.7736079   -1.2634863   -0.1849559 
H    -3.4639200   -2.3620358   -4.4287738 
H    -4.9135828    2.2146864   -0.2423963 
H    -1.4207491    1.8950667    6.2664627 
H     5.8663400    0.0806188   -1.9895328 
H    -1.9728834   -3.0656399   -6.3127129 
H    -4.5670631    4.6113029    0.3805999 
H    -0.2256656   -0.1154231    7.1502905 
