101
Energy =
C    -0.8432051   -3.5009227   -0.4328534 
C     0.0159718   -3.4994487    0.7093780 
C    -0.4339600   -3.0445464    1.9689736 
H     1.0821564   -3.7222828    0.5740285 
Pd   -0.6348679   -1.4280685    0.3571710 
P     0.1717697    0.4123570    1.5986903 
P    -1.1153102   -0.1431484   -1.5260534 
H    -1.9159899   -3.6730846   -0.2618161 
H    -1.5214380   -3.0462701    2.1438169 
C     0.5487752   -4.3650315   -4.4173338 
C     1.4265820   -3.8019823   -3.4756052 
C     0.9832513   -3.5236822   -2.1787816 
C    -0.3472211   -3.8092678   -1.7891494 
C    -1.2125536   -4.3846225   -2.7443714 
C    -0.7710699   -4.6565254   -4.0450211 
H     0.8941119   -4.5760221   -5.4344503 
H     2.4600310   -3.5731111   -3.7574823 
H     1.6709525   -3.0543775   -1.4663488 
H    -2.2433272   -4.6200323   -2.4609237 
H    -1.4627287   -5.0948024   -4.7713213 
C     1.8782873   -2.8380588    5.5858086 
C     0.4783614   -2.9108686    5.6302436 
C    -0.2595882   -2.9604874    4.4424998 
C     0.3875677   -2.9541462    3.1861025 
C     1.7996518   -2.8754378    3.1569659 
C     2.5351302   -2.8156218    4.3439545 
H     2.4571435   -2.7947763    6.5141108 
H    -0.0420346   -2.9230291    6.5929800 
H    -1.3527217   -3.0115535    4.4830058 
H     2.3302678   -2.8497313    2.2011776 
H     3.6272953   -2.7519041    4.3012581 
F     4.1547953    4.5825137   -2.2988968 
F     4.9985208    3.5652895   -0.5863019 
F    -1.7586278    5.9603089   -2.5132997 
F     0.0587035    6.7820413   -1.6743467 
O     2.7807338    3.4226034   -0.9467471 
O    -0.2068758    4.5481315   -1.7006245 
O     4.2524008    2.3338414   -2.3147619 
O    -1.4468464    5.8480089   -0.2873049 
C     0.8837737    1.8384782   -1.1809084 
C     0.0458019    2.5905834   -0.2027318 
C     0.5072322    0.6439396   -1.8738277 
C    -0.3139673    2.1255099    1.1038014 
C     2.1701684    2.2973437   -1.4531516 
C    -0.3916363    3.8708281   -0.5171973 
C     3.0713638    1.6296539   -2.2843757 
C    -1.1504067    4.6639968    0.3464919 
C     1.4381971   -0.0409500   -2.6855949 
C    -1.0583320    2.9442454    1.9755330 
C     2.7441248    0.4372103   -2.9110490 
C    -1.4977680    4.2353317    1.6166696 
C    -1.7475859   -0.9239371   -3.0656729 
C    -2.3433653    1.2142008   -1.3462236 
C    -0.2531973    0.3281135    3.3799984 
C     2.0006082    0.4858092    1.4366846 
C     4.0555696    3.4863109   -1.5361976 
C    -0.8374292    5.7964367   -1.5512244 
C    -2.9039263   -1.7147567   -2.8995663 
C    -3.1824502    1.2674961   -0.2194830 
C    -1.6094464    0.1010167    3.7027112 
C     2.7236456    1.5875983    1.9413270 
C    -1.2695409   -0.6624978   -4.3638971 
C    -2.4879113    2.1656835   -2.3768816 
C     0.6889769    0.4816789    4.4129906 
C     2.6761843   -0.5144048    0.7119037 
C    -3.5714760   -2.2369209   -4.0129266 
C    -4.1479768    2.2789552   -0.1123852 
C    -2.0240696    0.0811654    5.0399746 
C     4.1078059    1.6654341    1.7442992 
C    -1.9294544   -1.2083455   -5.4751153 
C    -3.4495396    3.1760797   -2.2633276 
C     0.2700685    0.4427438    5.7511415 
C     4.0593061   -0.4262731    0.5061617 
C    -3.0791681   -1.9920407   -5.3038055 
C    -4.2782335    3.2348247   -1.1303491 
C    -1.0832955    0.2587247    6.0669105 
C     4.7764369    0.6616793    1.0256280 
H     1.1442715   -0.9839267   -3.1541598 
H    -1.3077962    2.5739368    2.9730736 
H     3.4549774   -0.0985159   -3.5439955 
H    -2.0789699    4.8587278    2.2994996 
H    -3.2861564   -1.9114502   -1.8904850 
H    -3.0663969    0.5233957    0.5772470 
H    -2.3408929   -0.0568401    2.9007534 
H     2.2004147    2.3966685    2.4621290 
H    -0.3970866   -0.0216180   -4.5195953 
H    -1.8400957    2.1256781   -3.2593091 
H     1.7489592    0.6152551    4.1801383 
H     2.1007047   -1.3398577    0.2773925 
H    -4.4717561   -2.8438983   -3.8721148 
H    -4.7952826    2.3227887    0.7694711 
H    -3.0796573   -0.0814539    5.2810607 
H     4.6627847    2.5269664    2.1273218 
H    -1.5476660   -1.0053057   -6.4809777 
H    -3.5462078    3.9247411   -3.0548826 
H     1.0105614    0.5521061    6.5498603 
H     4.5745732   -1.1997804   -0.0726241 
H    -3.5950095   -2.4068365   -6.1758409 
H    -5.0277731    4.0281041   -1.0437298 
H    -1.4041638    0.2372072    7.1134524 
H     5.8544822    0.7407102    0.8536099 
