85
Energy =
C     0.1999060    2.7135442    0.6439584 
C     0.1087388    1.9864998    1.8601760 
C     1.1721188    1.1319054    2.2730094 
H    -0.8513389    1.9401604    2.3888048 
Pd    0.4034842    0.5066032    0.2670952 
P     1.0207019   -1.7285641    0.1354126 
P    -0.5726518    0.2080790   -1.8166478 
H     1.2126484    2.9308029    0.2702266 
H     2.1881650    1.4112735    1.9585931 
C    -2.8435110    5.1134804   -1.2363048 
C    -1.5235156    5.1210013   -1.7111247 
C    -0.5444351    4.3471206   -1.0746315 
C    -0.8626812    3.5424238    0.0448255 
C    -2.1935070    3.5634284    0.5236621 
C    -3.1704412    4.3383603   -0.1104446 
H    -3.6109216    5.7183794   -1.7296196 
H    -1.2530064    5.7378433   -2.5743288 
H     0.4887729    4.3688568   -1.4405174 
H    -2.4714509    2.9752727    1.4040890 
H    -4.1942427    4.3416329    0.2777155 
C     1.0633039   -1.6757192    5.5396970 
C     2.2865235   -1.2301892    5.0166258 
C     2.3066997   -0.2993663    3.9695880 
C     1.1056603    0.1999858    3.4152437 
C    -0.1196633   -0.2568914    3.9555655 
C    -0.1388201   -1.1782415    5.0083964 
H     1.0448779   -2.4011445    6.3591787 
H     3.2293097   -1.6020308    5.4310654 
H     3.2664760    0.0564140    3.5783410 
H    -1.0680343    0.0906855    3.5323757 
H    -1.0978076   -1.5181937    5.4132390 
C     0.9333203   -2.9253426    1.5935574 
C     2.8123168   -2.1129031   -0.2893703 
C    -0.4847110    1.4517611   -3.2150897 
C    -2.4575436    0.0876916   -1.8114332 
C     0.0797000   -2.4633822   -1.3118221 
C     0.0217404   -1.4423483   -2.4631901 
C     2.3083195   -3.6603028    1.5983711 
C     2.9483497   -3.5724670    0.2016546 
C    -1.8831450    1.3820279   -3.8657807 
C    -2.9073648    1.2511276   -2.7291370 
C    -0.2932176   -3.8615264    1.5852727 
C     3.7952270   -1.1362766    0.3935095 
C     0.7103807    1.3255648   -4.1706484 
C    -3.0754344    0.0782842   -0.4024084 
C    -1.6256281   -3.1405857    1.8196164 
C     3.8887540    0.2307507   -0.2893460 
C     2.0701012    1.5222004   -3.4894940 
C    -4.6065140   -0.0173799   -0.4061066 
H     0.8584120   -2.2777337    2.4839574 
H     2.9336654   -2.0460863   -1.3867550 
H    -0.4144210    2.4188744   -2.6801736 
H    -2.6877549   -0.8712730   -2.3172290 
H    -0.9380032   -2.7125794   -0.9642937 
H     0.5567695   -3.4045782   -1.6369043 
H    -0.6337502   -1.7942713   -3.2796185 
H     1.0280876   -1.2842824   -2.8912768 
H     2.9683646   -3.1832093    2.3434040 
H     2.1792466   -4.7101893    1.9127940 
H     2.4256044   -4.2531778   -0.4960502 
H     4.0085521   -3.8835479    0.2137447 
H    -2.0641847    2.2806901   -4.4819382 
H    -1.9424007    0.5062037   -4.5411147 
H    -3.9263441    1.0724867   -3.1127093 
H    -2.9347241    2.1897314   -2.1434109 
H    -0.3223098   -4.4501044    0.6484342 
H    -0.1405945   -4.5986595    2.3957043 
H     3.5131059   -1.0088245    1.4553407 
H     4.7940132   -1.6123123    0.3990287 
H     0.6752525    0.3476402   -4.6879825 
H     0.5814105    2.0870369   -4.9629868 
H    -2.6515401   -0.7684171    0.1681632 
H    -2.7564414    0.9944796    0.1267101 
H    -1.6280768   -2.6410807    2.8033138 
H    -2.4722227   -3.8468872    1.7886598 
H    -1.8115605   -2.3585051    1.0607620 
H     4.2743391    0.1373713   -1.3197834 
H     2.8916980    0.7134643   -0.3478694 
H     4.5597900    0.9093692    0.2643797 
H     2.8950464    1.4686801   -4.2195099 
H     2.2532130    0.7528727   -2.7180624 
H     2.1239819    2.5050880   -2.9876955 
H    -4.9952987   -0.0842381    0.6245100 
H    -4.9512575   -0.9121625   -0.9555030 
H    -5.0656773    0.8678247   -0.8794599 
