85
Energy =
C     0.0952884    2.6640416    0.6823080 
C     0.0131902    1.9236302    1.8862880 
C     1.1061190    1.0965629    2.2982819 
H    -0.9484989    1.8440237    2.4087321 
Pd    0.3839913    0.4459584    0.3051695 
P     1.3152311   -1.6725919    0.1342198 
P    -0.7011169    0.0349000   -1.7104987 
H     1.1073472    2.8612964    0.2941901 
H     2.1170092    1.4453230    2.0430494 
C    -2.9085049    5.1063097   -1.1978817 
C    -1.6168991    5.0070075   -1.7378771 
C    -0.6509721    4.2176876   -1.1022458 
C    -0.9545092    3.5049602    0.0821447 
C    -2.2532532    3.6358739    0.6268991 
C    -3.2184892    4.4239580   -0.0093036 
H    -3.6660740    5.7237325   -1.6908756 
H    -1.3598923    5.5516273   -2.6522136 
H     0.3603751    4.1531402   -1.5202801 
H    -2.5125232    3.1283425    1.5614597 
H    -4.2178264    4.5135113    0.4287584 
C     0.9454128   -1.8052550    5.4843900 
C    -0.2351367   -1.4205316    4.8267108 
C    -0.1944890   -0.4699608    3.8006970 
C     1.0279522    0.1277111    3.4125062 
C     2.2043071   -0.2595249    4.0926768 
C     2.1647138   -1.2183268    5.1139399 
H     0.9128458   -2.5528344    6.2833337 
H    -1.1920843   -1.8710489    5.1107371 
H    -1.1186412   -0.2094305    3.2733145 
H     3.1592193    0.2065029    3.8252793 
H     3.0888615   -1.5006628    5.6289263 
C     0.8247688   -3.0534441    1.3117152 
C     3.1790597   -1.9538680    0.3375338 
C    -0.3840239    1.1037890   -3.2319855 
C    -2.5794438    0.2240792   -1.7784030 
C     0.9501328   -2.2801106   -1.6041428 
C    -0.4022565   -1.7702591   -2.1286008 
C     2.0591866   -3.9790376    1.3088430 
C     3.2957222   -3.0770229    1.4000778 
C    -1.7727833    1.2433632   -3.8924328 
C    -2.8057961    1.3889919   -2.7679553 
C    -0.5169148   -3.7450993    1.0302748 
C     4.0126792   -0.7088425    0.6850881 
C     0.7486717    0.6702057   -4.1733150 
C    -3.2393355    0.3773738   -0.3968901 
C    -1.7356712   -2.8525375    1.2840584 
C     4.0090152    0.3989294   -0.3702610 
C     2.1468862    0.7803143   -3.5582573 
C    -4.7458612    0.6603995   -0.4640347 
H     0.7704859   -2.5465637    2.2959762 
H     3.5064489   -2.3450989   -0.6456147 
H    -0.1241327    2.0843153   -2.7876710 
H    -2.9423486   -0.7085705   -2.2556883 
H     1.0027952   -3.3835296   -1.6352009 
H     1.7761055   -1.9012391   -2.2316342 
H    -1.2329122   -2.3174811   -1.6480075 
H    -0.4980726   -1.9302016   -3.2173150 
H     2.0063106   -4.6919006    2.1509536 
H     2.0805458   -4.5797332    0.3781432 
H     4.2362753   -3.6379135    1.2618372 
H     3.3315710   -2.6155894    2.4047602 
H    -1.7823693    2.1078106   -4.5801306 
H    -1.9919208    0.3427012   -4.4987543 
H    -3.8386557    1.3736746   -3.1555783 
H    -2.6632161    2.3545084   -2.2471799 
H    -0.5275921   -4.1358690   -0.0057606 
H    -0.5744497   -4.6377667    1.6813449 
H     3.6595898   -0.3109660    1.6531252 
H     5.0510210   -1.0497885    0.8592712 
H     0.5645394   -0.3603885   -4.5332080 
H     0.6923367    1.3115780   -5.0733593 
H    -3.0628693   -0.5414813    0.1892748 
H    -2.7317087    1.1946971    0.1454104 
H    -1.6578484   -1.9043228    0.7211287 
H    -1.8113070   -2.5863584    2.3517131 
H    -2.6726802   -3.3532817    0.9873964 
H     4.3806917    0.0331788   -1.3436180 
H     2.9852428    0.7926999   -0.5260007 
H     4.6486060    1.2427404   -0.0598797 
H     2.9261203    0.4657188   -4.2726237 
H     2.2400711    0.1509221   -2.6570354 
H     2.3664434    1.8184880   -3.2514682 
H    -5.1812508    0.6820246    0.5497838 
H    -5.2773561   -0.1168811   -1.0423390 
H    -4.9515002    1.6367093   -0.9362005 
