85
Energy =
C     0.3071720    2.8014174    0.6224872 
C     0.1852939    2.0672116    1.8328957 
C     1.2204865    1.1771315    2.2447498 
H    -0.7824266    2.0386398    2.3488146 
Pd    0.4721198    0.6035941    0.2312402 
P     1.0169104   -1.6548492    0.1234596 
P    -0.4715796    0.3265175   -1.8731474 
H     1.3279742    3.0197465    0.2720907 
H     2.2488669    1.4340191    1.9493414 
C    -2.7048376    5.1974396   -1.3121239 
C    -1.3591419    5.2831148   -1.6979236 
C    -0.3909223    4.5088307   -1.0448531 
C    -0.7456236    3.6301970    0.0052238 
C    -2.1047394    3.5665109    0.3915461 
C    -3.0708163    4.3404135   -0.2597093 
H    -3.4640548    5.8011760   -1.8194065 
H    -1.0604054    5.9589183   -2.5058933 
H     0.6600765    4.5846456   -1.3463774 
H    -2.4142132    2.9056211    1.2075900 
H    -4.1175803    4.2770392    0.0553396 
C     0.9679956   -1.6965372    5.4472703 
C    -0.2081916   -1.1474977    4.9084221 
C    -0.1414124   -0.2084668    3.8735730 
C     1.1071896    0.2197093    3.3636059 
C     2.2814676   -0.3346954    3.9218494 
C     2.2133672   -1.2862327    4.9483096 
H     0.9121972   -2.4360102    6.2524000 
H    -1.1844269   -1.4603120    5.2930061 
H    -1.0710854    0.1804389    3.4446568 
H     3.2590259   -0.0080126    3.5497168 
H     3.1364684   -1.7004928    5.3668572 
C     0.5747554   -2.8632101    1.4784831 
C     2.8378202   -2.1684582    0.0375844 
C    -0.5601987    1.6085517   -3.2377136 
C    -2.3301778   -0.0136134   -1.8339717 
C     0.2580125   -2.3174251   -1.4593153 
C     0.2742771   -1.2415836   -2.5613843 
C     1.6186076   -3.9872015    1.3046967 
C     2.9759385   -3.2987110    1.0959950 
C    -1.9590473    1.3937080   -3.8571549 
C    -2.9353200    1.1127319   -2.7065232 
C    -0.9037113   -3.2776777    1.5485046 
C     3.8526959   -1.0302080    0.2407954 
C     0.6068653    1.6355705   -4.2364111 
C    -2.9128982   -0.1387727   -0.4148262 
C    -1.2148745   -4.1775293    2.7538366 
C     3.8224178    0.0532774   -0.8383024 
C     1.9500456    2.0335171   -3.6143611 
C    -4.4178348   -0.4373383   -0.3966311 
H     0.8226716   -2.3044603    2.4025596 
H     2.9685181   -2.5893879   -0.9779024 
H    -0.5792015    2.5673793   -2.6828203 
H    -2.4589434   -0.9780020   -2.3655282 
H    -0.7829493   -2.6028250   -1.2225283 
H     0.7841332   -3.2334920   -1.7806136 
H    -0.2800802   -1.5756974   -3.4566486 
H     1.3100037   -1.0114340   -2.8724564 
H     1.6394324   -4.6469434    2.1893110 
H     1.3557302   -4.6194574    0.4342028 
H     3.7639967   -4.0104808    0.7955838 
H     3.2934687   -2.8450498    2.0535812 
H    -2.2567536    2.2808425   -4.4437860 
H    -1.9326034    0.5351369   -4.5562591 
H    -3.9346408    0.8262388   -3.0763406 
H    -3.0578886    2.0253986   -2.0926421 
H    -1.5228230   -2.3623522    1.6077088 
H    -1.1952301   -3.7998026    0.6172703 
H     3.6833176   -0.5769732    1.2353275 
H     4.8595004   -1.4878827    0.2812868 
H     0.6903079    0.6542087   -4.7414196 
H     0.3413800    2.3588566   -5.0306823 
H    -2.3706644   -0.9362713    0.1264313 
H    -2.7053535    0.7982512    0.1347974 
H    -2.2959126   -4.3900680    2.8116297 
H    -0.9090450   -3.6902344    3.6959626 
H    -0.6879249   -5.1446359    2.6843618 
H     3.9875140   -0.3714733   -1.8449174 
H     2.8390043    0.5677566   -0.8431879 
H     4.5969617    0.8189257   -0.6624597 
H     2.7484372    2.0636253   -4.3745801 
H     2.2598577    1.3217869   -2.8298861 
H     1.8884514    3.0324589   -3.1472424 
H    -4.7764767   -0.5732426    0.6381277 
H    -4.6486366   -1.3608560   -0.9579569 
H    -5.0000866    0.3853030   -0.8465966 
