85
Energy =
C     0.1975323    2.6637901    0.6241315 
C     0.0956681    1.9500177    1.8471790 
C     1.1326913    1.0537873    2.2408185 
H    -0.8519962    1.9555111    2.3999110 
Pd    0.2993880    0.4369091    0.2680898 
P     0.9700215   -1.7919082    0.1600393 
P    -0.5693390    0.1509791   -1.8790081 
H     1.2129750    2.8308295    0.2327494 
H     2.1487173    1.2928684    1.8933362 
C    -2.7579021    5.1716120   -1.2482394 
C    -1.4262777    5.1762979   -1.6885663 
C    -0.4756096    4.3665334   -1.0537157 
C    -0.8342962    3.5321809    0.0317134 
C    -2.1756929    3.5581994    0.4785507 
C    -3.1246955    4.3654657   -0.1564962 
H    -3.5043582    5.8024338   -1.7413843 
H    -1.1249242    5.8163505   -2.5241890 
H     0.5659687    4.3817966   -1.3944833 
H    -2.4848471    2.9406253    1.3267904 
H    -4.1584819    4.3713485    0.2044716 
C     1.0297618   -1.6894252    5.5633190 
C     2.2493321   -1.3152637    4.9790020 
C     2.2678622   -0.4070420    3.9128083 
C     1.0692897    0.1383701    3.3976874 
C    -0.1508775   -0.2469266    3.9985265 
C    -0.1681125   -1.1436101    5.0726066 
H     1.0117221   -2.3952415    6.3997982 
H     3.1906930   -1.7225479    5.3622851 
H     3.2267627   -0.1045747    3.4772989 
H    -1.0987278    0.1408534    3.6111462 
H    -1.1236221   -1.4246098    5.5278018 
C     0.6098356   -3.0960522    1.4649443 
C     2.8300362   -2.1766369    0.0756806 
C    -0.5727227    1.5053248   -3.1882706 
C    -2.4095733   -0.2512652   -2.0884485 
C     0.2996319   -2.4602918   -1.4594916 
C     0.3059084   -1.3629049   -2.5414936 
C     1.7455677   -4.1201914    1.2594795 
C     3.0457631   -3.3236474    1.0998028 
C    -1.9647252    1.4143025   -3.8550625 
C    -2.9738392    1.0116842   -2.7741388 
C    -0.8104981   -3.6826065    1.4848899 
C     3.7805042   -0.9911624    0.3110634 
C     0.6059548    1.5346546   -4.1746934 
C    -3.1874241   -0.7662119   -0.8650912 
C    -1.8647564   -2.7129248    2.0296212 
C     3.7100655    0.1099625   -0.7458196 
C     1.9470054    1.9193742   -3.5426638 
C    -3.3226186    0.2159521    0.3013937 
H     0.7912167   -2.5608367    2.4191068 
H     2.9858844   -2.5612004   -0.9508772 
H    -0.5540769    2.4320261   -2.5830000 
H    -2.3998133   -1.0610630   -2.8450331 
H    -0.7336601   -2.8024088   -1.2698549 
H     0.8827238   -3.3421342   -1.7786504 
H    -0.1766107   -1.7152019   -3.4706213 
H     1.3412610   -1.0671497   -2.7924671 
H     1.7951661   -4.8140876    2.1176070 
H     1.5441107   -4.7335996    0.3597859 
H     3.8924890   -3.9594245    0.7885046 
H     3.3130563   -2.8777008    2.0761685 
H    -2.2193521    2.3806232   -4.3248041 
H    -1.9467989    0.6533728   -4.6591228 
H    -3.9759543    0.8048009   -3.1899155 
H    -3.0826406    1.8338465   -2.0419308 
H    -1.0866258   -4.0383505    0.4740741 
H    -0.7852533   -4.5903207    2.1167309 
H     3.5799345   -0.5689725    1.3122229 
H     4.8083654   -1.3991227    0.3546639 
H     0.6864582    0.5600267   -4.6929779 
H     0.3498133    2.2695200   -4.9615991 
H    -4.1955391   -1.0537030   -1.2201098 
H    -2.7190878   -1.7013795   -0.5092120 
H    -2.8864031   -3.1001442    1.8787317 
H    -1.7912757   -1.7283631    1.5356918 
H    -1.7156428   -2.5452905    3.1085498 
H     3.9247395   -0.2841222   -1.7553603 
H     2.6978868    0.5632742   -0.7644739 
H     4.4330413    0.9168448   -0.5371810 
H     2.7516727    1.9419591   -4.2965577 
H     2.2430398    1.2061532   -2.7562010 
H     1.8917816    2.9193201   -3.0768808 
H    -3.8667237   -0.2486815    1.1405271 
H    -3.8668885    1.1285543    0.0078997 
H    -2.3230348    0.5199661    0.6708860 
