85
Energy =
C    -0.1331391    2.6922781    0.6658372 
C    -0.0374108    1.9670796    1.8829936 
C     1.0971556    1.1528710    2.1548972 
H    -0.9186023    1.8876316    2.5309064 
Pd    0.1198747    0.4853758    0.2659877 
P     0.7470236   -1.7547192    0.1872959 
P    -0.7126777    0.1974933   -1.8931803 
H     0.8096563    2.9595306    0.1658475 
H     2.0454151    1.4498240    1.6819013 
C    -3.5332491    4.9399927   -0.7270187 
C    -2.3181583    4.9634851   -1.4291168 
C    -1.2178023    4.2421299   -0.9504801 
C    -1.3095268    3.4685713    0.2302805 
C    -2.5354035    3.4695499    0.9348700 
C    -3.6317928    4.1982092    0.4618582 
H    -4.3942866    5.5065525   -1.0954736 
H    -2.2243582    5.5553963   -2.3455345 
H    -0.2654648    4.2804793   -1.4912262 
H    -2.6421140    2.8906379    1.8571928 
H    -4.5715991    4.1870435    1.0234790 
C     1.5971715   -1.5904537    5.4369789 
C     2.6983456   -1.1725047    4.6743413 
C     2.5208151   -0.2634378    3.6234552 
C     1.2394913    0.2430163    3.3073079 
C     0.1404991   -0.1825159    4.0889739 
C     0.3191942   -1.0856639    5.1427790 
H     1.7329914   -2.2992230    6.2600252 
H     3.7001909   -1.5508481    4.9023940 
H     3.3860278    0.0641793    3.0358194 
H    -0.8671296    0.1804355    3.8620813 
H    -0.5445103   -1.4026974    5.7364431 
C     0.6000533   -2.9429108    1.6330195 
C     2.5561124   -2.1576195   -0.1856458 
C    -0.2649664    1.3481484   -3.2969884 
C    -2.5519640    0.1669362   -2.3267322 
C    -0.1926775   -2.4811297   -1.2531327 
C    -0.1247942   -1.5001838   -2.4365691 
C     1.8132993   -3.8839080    1.4595477 
C     3.0073220   -3.0306647    1.0109600 
C    -1.2578703    0.9261420   -4.3993460 
C    -2.6460233    0.8257494   -3.7410213 
C    -0.7543698   -3.6508757    1.7927020 
C     3.4318497   -0.9259868   -0.4734019 
C     1.2160746    1.4155959   -3.6989395 
C    -3.4746941    0.8623102   -1.3088887 
C    -1.9226581   -2.7048676    2.0897080 
C     4.8920652   -1.2750763   -0.7918624 
C     2.1128929    2.0849569   -2.6497708 
C    -3.5281775    0.2114235    0.0737485 
H     0.7775906   -2.3033910    2.5189119 
H     2.5244310   -2.7927652   -1.0933493 
H    -0.5788243    2.3409438   -2.9156267 
H    -2.8160053   -0.9062375   -2.3798643 
H    -1.2394604   -2.6283490   -0.9296531 
H     0.2170408   -3.4709024   -1.5226029 
H    -0.7272355   -1.8602421   -3.2884706 
H     0.9172465   -1.3936335   -2.7907249 
H     2.0205194   -4.4168247    2.4043205 
H     1.5839715   -4.6529707    0.6961482 
H     3.8759229   -3.6524707    0.7348207 
H     3.3220968   -2.3739715    1.8434087 
H    -1.2590860    1.6620788   -5.2234175 
H    -0.9467293   -0.0405962   -4.8386432 
H    -3.3638643    0.2785124   -4.3748836 
H    -3.0453017    1.8479332   -3.6103665 
H    -0.9652836   -4.2570691    0.8907943 
H    -0.6485734   -4.3765101    2.6212947 
H     2.9946753   -0.3681059   -1.3211175 
H     3.3874913   -0.2433592    0.3967785 
H     1.5904548    0.4010699   -3.9351399 
H     1.2790974    1.9811551   -4.6476703 
H    -3.1738563    1.9214358   -1.2158984 
H    -4.4901413    0.8728510   -1.7498760 
H    -2.8715302   -3.2594142    2.1833191 
H    -2.0479243   -1.9531041    1.2903913 
H    -1.7516900   -2.1559359    3.0311669 
H     5.3928337   -1.7539855    0.0672327 
H     4.9576034   -1.9681614   -1.6500387 
H     5.4631501   -0.3661499   -1.0471769 
H     3.1699100    2.0771127   -2.9642637 
H     2.0443011    1.5687704   -1.6739581 
H     1.8164226    3.1368890   -2.4901667 
H    -4.2366257    0.7436570    0.7304064 
H    -2.5329137    0.2385008    0.5611932 
H    -3.8478154   -0.8444986    0.0134182 
