85
Energy =
C     0.1182461    2.7147402    0.6571372 
C    -0.0127878    1.9824585    1.8665744 
C     1.0477212    1.1475369    2.3246253 
H    -0.9943489    1.9158192    2.3517698 
Pd    0.3812639    0.5138030    0.2851305 
P     1.0499117   -1.7078420    0.1756011 
P    -0.4969249    0.2017227   -1.8396604 
H     1.1422284    2.9527765    0.3294442 
H     2.0711818    1.4478480    2.0570661 
C    -2.8834681    5.0622897   -1.3517795 
C    -3.2456391    4.2772799   -0.2437100 
C    -2.2834272    3.5190555    0.4317522 
C    -0.9322814    3.5252139    0.0132111 
C    -0.5796420    4.3396292   -1.0887564 
C    -1.5438747    5.0967742   -1.7666831 
H    -3.6394668    5.6540583   -1.8775753 
H    -4.2857072    4.2597229    0.0980394 
H    -2.5892889    2.9227197    1.2973110 
H     0.4683395    4.3822808   -1.4078244 
H    -1.2467988    5.7215770   -2.6153076 
C     0.8460834   -1.6678498    5.5801937 
C    -0.3401013   -1.1969969    4.9918178 
C    -0.2911432   -0.2739523    3.9414768 
C     0.9481108    0.2112416    3.4608935 
C     2.1321694   -0.2623075    4.0714820 
C     2.0826638   -1.1945086    5.1163352 
H     0.8047177   -2.3944268    6.3978213 
H    -1.3095051   -1.5591071    5.3499690 
H    -1.2255561    0.0525382    3.4728758 
H     3.1013812    0.1150856    3.7264948 
H     3.0125700   -1.5457617    5.5754154 
C     0.9234719   -2.9109593    1.6255795 
C     2.8664485   -2.0522823   -0.1698445 
C    -0.3769408    1.4514110   -3.2302469 
C    -2.3771547    0.0397472   -1.9152427 
C     0.1898327   -2.4571971   -1.3138939 
C     0.1604601   -1.4333219   -2.4638884 
C     2.3124653   -3.6161786    1.6901557 
C     3.0122726   -3.5100870    0.3236778 
C    -1.7438087    1.3515614   -3.9413433 
C    -2.8133047    1.1943153   -2.8506978 
C    -0.2810394   -3.8731168    1.5603064 
C     3.7967260   -1.0569278    0.5583098 
C     0.8610990    1.3558929   -4.1332373 
C    -3.0546813    0.0145981   -0.5341505 
C    -1.6376383   -3.1813906    1.7371296 
C     3.8903631    0.3143872   -0.1160061 
C     2.1852566    1.5795097   -3.3928879 
C    -4.5810118   -0.1225659   -0.6038287 
H     0.7950597   -2.2680247    2.5132559 
H     3.0349060   -1.9793995   -1.2605673 
H    -0.3522967    2.4182118   -2.6906181 
H    -2.5641582   -0.9233737   -2.4308833 
H    -0.8365270   -2.7293322   -1.0121801 
H     0.7008329   -3.3866994   -1.6204496 
H    -0.4508897   -1.7962754   -3.3091945 
H     1.1809466   -1.2521330   -2.8469521 
H     2.9280883   -3.1273713    2.4650027 
H     2.1922238   -4.6696094    1.9960877 
H     2.5363530   -4.1999968   -0.3980878 
H     4.0774281   -3.7979774    0.3826662 
H    -1.9183976    2.2475208   -4.5633032 
H    -1.7535680    0.4764973   -4.6201280 
H    -3.8101435    0.9929591   -3.2786858 
H    -2.8878701    2.1307480   -2.2656453 
H    -0.2559429   -4.4587809    0.6215366 
H    -0.1488432   -4.6097081    2.3747821 
H     3.4654461   -0.9396060    1.6070856 
H     4.8044995   -1.5111090    0.6066233 
H     0.8703645    0.3797360   -4.6549979 
H     0.7496826    2.1178886   -4.9277292 
H    -2.6332111   -0.8199605    0.0557459 
H    -2.7834745    0.9394013    0.0064755 
H    -2.4668843   -3.9051650    1.6659165 
H    -1.8059424   -2.4000615    0.9734061 
H    -1.6945619   -2.6863281    2.7213912 
H     4.3221768    0.2332271   -1.1289805 
H     2.8865281    0.7760221   -0.2165678 
H     4.5219145    1.0050511    0.4684050 
H     3.0419401    1.5487041   -4.0867540 
H     2.3523539    0.8102151   -2.6178060 
H     2.1949544    2.5605971   -2.8847566 
H    -5.0122281   -0.1975023    0.4091896 
H    -4.8771289   -1.0277696   -1.1644136 
H    -5.0430740    0.7485899   -1.0999009 
