85
Energy =
C     0.2631076    2.7802382    0.5635141 
C     0.1170119    2.0631300    1.7784685 
C     1.1220932    1.1392002    2.1965835 
H    -0.8471917    2.0800154    2.3018970 
Pd    0.3476440    0.5525367    0.2025574 
P     0.9823799   -1.6788608    0.0953237 
P    -0.5686342    0.2358700   -1.9101507 
H     1.2902785    2.9339380    0.1977525 
H     2.1597600    1.3693871    1.9132759 
C    -2.6254548    5.3060784   -1.3869650 
C    -1.2778377    5.3220678   -1.7746136 
C    -0.3490100    4.5055677   -1.1158699 
C    -0.7461566    3.6555330   -0.0569611 
C    -2.1054178    3.6650560    0.3335045 
C    -3.0322923    4.4786137   -0.3255336 
H    -3.3544935    5.9421896   -1.8990142 
H    -0.9468613    5.9752935   -2.5885436 
H     0.7041178    4.5263718   -1.4186136 
H    -2.4447297    3.0274133    1.1549503 
H    -4.0803806    4.4719605   -0.0084276 
C     0.7459026   -1.7021040    5.4161628 
C    -0.4079212   -1.1565355    4.8275240 
C    -0.2997683   -0.2272968    3.7874363 
C     0.9684743    0.1942869    3.3218719 
C     2.1195604   -0.3571536    3.9288320 
C     2.0101433   -1.2987006    4.9611816 
H     0.6580767   -2.4344619    6.2249418 
H    -1.3987428   -1.4657761    5.1760914 
H    -1.2111209    0.1563762    3.3165259 
H     3.1113709   -0.0361698    3.5910554 
H     2.9157304   -1.7108595    5.4182907 
C     0.5426338   -2.8963625    1.4401157 
C     2.8232474   -2.1272210    0.0692326 
C    -0.6741065    1.5922309   -3.2061359 
C    -2.4037880   -0.2149095   -2.0135411 
C     0.3191304   -2.3641155   -1.5213702 
C     0.2993293   -1.2669902   -2.6040551 
C     1.6294246   -3.9838203    1.3052710 
C     2.9668494   -3.2450109    1.1399061 
C    -2.1060361    1.4843341   -3.7811511 
C    -3.0367079    1.0461203   -2.6415865 
C    -0.9250074   -3.3500627    1.4765333 
C     3.7966459   -0.9560570    0.2836288 
C     0.4513812    1.6328840   -4.2522346 
C    -3.0886153   -0.7832229   -0.7563237 
C    -1.2403874   -4.2547030    2.6770933 
C     3.7576387    0.1137336   -0.8094796 
C     1.8266923    1.9902463   -3.6764849 
C    -3.1405344    0.1384876    0.4651937 
H     0.7482249   -2.3222738    2.3654195 
H     2.9942924   -2.5534912   -0.9379266 
H    -0.6264591    2.5170107   -2.5993775 
H    -2.4205781   -1.0087693   -2.7869300 
H    -0.7049948   -2.7300321   -1.3294772 
H     0.9216024   -3.2327986   -1.8398364 
H    -0.2046264   -1.6188641   -3.5218098 
H     1.3274778   -0.9677387   -2.8777799 
H     1.6447523   -4.6397394    2.1928441 
H     1.4194505   -4.6274858    0.4287361 
H     3.7914634   -3.9276422    0.8715809 
H     3.2327572   -2.7745825    2.1050789 
H    -2.4101261    2.4514089   -4.2184964 
H    -2.1282265    0.7343492   -4.5953202 
H    -4.0588013    0.8251285   -2.9969966 
H    -3.1143806    1.8557224   -1.8916505 
H    -1.5662873   -2.4496015    1.5204987 
H    -1.1815456   -3.8814567    0.5401034 
H     3.5911414   -0.4983253    1.2689976 
H     4.8160145   -1.3813920    0.3524187 
H     0.4964459    0.6680820   -4.7927684 
H     0.1659581    2.3873258   -5.0099445 
H    -4.1190564   -1.0617306   -1.0489411 
H    -2.5923581   -1.7300354   -0.4767366 
H    -2.3164185   -4.4959882    2.7102159 
H    -0.9702824   -3.7559320    3.6242024 
H    -0.6861072   -5.2074741    2.6237831 
H     3.9635963   -0.3174814   -1.8058075 
H     2.7584572    0.5945359   -0.8463963 
H     4.5020738    0.9064175   -0.6235164 
H     2.5938982    2.0221188   -4.4681194 
H     2.1558910    1.2572390   -2.9197973 
H     1.8038774    2.9797539   -3.1867001 
H    -3.6274456   -0.3700671    1.3146621 
H    -3.7018997    1.0644469    0.2577822 
H    -2.1152093    0.4205962    0.7803449 
