85
Energy =
C     0.2090406    2.5790853    0.7895384 
C     0.1486839    1.8540843    2.0074920 
C     1.1884821    0.9404016    2.3503914 
H    -0.7787344    1.8583972    2.5933274 
Pd    0.2858060    0.3550867    0.4074468 
P     0.9271633   -1.8789545    0.2719053 
P    -0.6074347    0.1029845   -1.7258603 
H     1.2080479    2.7326991    0.3525248 
H     2.1960075    1.1760324    1.9764614 
C    -2.7916327    5.1702282   -0.8867708 
C    -1.5225152    5.0616745   -1.4757764 
C    -0.5544978    4.2268065   -0.9048002 
C    -0.8356099    3.4730218    0.2588320 
C    -2.1119912    3.6086445    0.8513166 
C    -3.0771027    4.4471651    0.2837581 
H    -3.5502129    5.8246678   -1.3278360 
H    -1.2829894    5.6355950   -2.3770904 
H     0.4389104    4.1533972   -1.3623714 
H    -2.3593016    3.0519782    1.7603237 
H    -4.0597295    4.5396118    0.7577609 
C     1.1510407   -1.9023631    5.5870892 
C     2.3590124   -1.5082186    4.9919611 
C     2.3577129   -0.5648820    3.9559048 
C     1.1497246   -0.0001596    3.4875195 
C    -0.0593424   -0.4042645    4.0999429 
C    -0.0568843   -1.3405270    5.1398508 
H     1.1493814   -2.6383004    6.3973990 
H     3.3069350   -1.9315840    5.3400118 
H     3.3061934   -0.2549547    3.5025698 
H    -1.0136491   -0.0008904    3.7450964 
H    -1.0037842   -1.6405728    5.6006988 
C     0.6580396   -3.1436209    1.6346488 
C     2.7778326   -2.2451998    0.0695348 
C    -0.4051560    1.3626471   -3.0784805 
C    -2.4537148   -0.0719880   -2.0260024 
C     0.1244027   -2.5631346   -1.2730537 
C     0.1042663   -1.5007349   -2.3855080 
C     1.8692974   -4.0923364    1.5020000 
C     3.1037835   -3.2270921    1.2233248 
C    -1.3342718    0.8184071   -4.1819925 
C    -2.6586200    0.3568074   -3.5229562 
C    -0.7099175   -3.8424425    1.6557827 
C     3.7086253   -1.0223111    0.0299989 
C     1.0371954    1.7060049   -3.4802478 
C    -3.3043211    0.7888959   -1.0656915 
C    -1.8975101   -2.8936540    1.8438710 
C     3.4955395   -0.0926761   -1.1664588 
C     1.1181501    2.8437727   -4.5090407 
C    -3.3281605    0.3220165    0.3907443 
H     0.7738610   -2.5520943    2.5635878 
H     2.8510289   -2.7832875   -0.8959794 
H    -0.8712001    2.2669402   -2.6357793 
H    -2.7068522   -1.1382849   -1.8791779 
H    -0.9075381   -2.8480405   -0.9994989 
H     0.6435181   -3.4815224   -1.6001659 
H    -0.4778053   -1.8529959   -3.2547282 
H     1.1290573   -1.2820862   -2.7366778 
H     1.9877112   -4.6925429    2.4215209 
H     1.6987448   -4.8032430    0.6699054 
H     3.9913574   -3.8326132    0.9697796 
H     3.3514399   -2.6452035    2.1304478 
H    -1.5311130    1.5883868   -4.9478246 
H    -0.8319875   -0.0185899   -4.7019583 
H    -3.1205371   -0.4610132   -4.0999738 
H    -3.3764992    1.1951245   -3.5353080 
H    -0.8345500   -4.4405449    0.7325926 
H    -0.6882618   -4.5755223    2.4840994 
H     3.5939320   -0.4556282    0.9729365 
H     4.7489325   -1.3993644    0.0258253 
H     1.5966832    1.9958219   -2.5712387 
H     1.5402773    0.8055252   -3.8815046 
H    -2.9611056    1.8397280   -1.1202982 
H    -4.3377247    0.7886304   -1.4621415 
H    -2.8520119   -3.4462749    1.8598112 
H    -1.9511409   -2.1491238    1.0298979 
H    -1.8078491   -2.3342130    2.7903384 
H     3.6154942   -0.6306355   -2.1243130 
H     2.4762561    0.3418353   -1.1444296 
H     4.2138522    0.7446184   -1.1570144 
H     2.1686624    3.1053960   -4.7208515 
H     0.6100168    3.7511767   -4.1350983 
H     0.6445039    2.5623413   -5.4651536 
H    -3.9523462    0.9930123    1.0044685 
H    -2.3082956    0.3133870    0.8261986 
H    -3.7407017   -0.6983510    0.4786145 
