85
Energy =
C     0.1746182    2.6904518    0.7159870 
C     0.0275515    1.9793020    1.9345985 
C     1.0451087    1.0726539    2.3596294 
H    -0.9380734    1.9877414    2.4551651 
Pd    0.2655727    0.4602550    0.3713224 
P     0.8798676   -1.7801293    0.2615886 
P    -0.6723930    0.1672552   -1.7325566 
H     1.2035202    2.8354294    0.3519144 
H     2.0773550    1.3097992    2.0624822 
C    -2.6643597    5.2712890   -1.2378372 
C    -1.3475495    5.1599038   -1.7088132 
C    -0.4348326    4.3282177   -1.0477683 
C    -0.8190783    3.5819421    0.0914571 
C    -2.1436628    3.7232963    0.5663420 
C    -3.0538293    4.5570747   -0.0918512 
H    -3.3801233    5.9223829   -1.7496810 
H    -1.0275381    5.7290144   -2.5877736 
H     0.5977977    4.2586295   -1.4094384 
H    -2.4679017    3.1822291    1.4612133 
H    -4.0744008    4.6540377    0.2924859 
C     0.7641183   -1.7167990    5.6300160 
C     2.0141220   -1.2969779    5.1511486 
C     2.0909201   -0.3733754    4.1001071 
C     0.9204661    0.1462919    3.5019244 
C    -0.3331693   -0.2883645    3.9939013 
C    -0.4085323   -1.2038432    5.0491074 
H     0.7018311   -2.4373582    6.4516576 
H     2.9334592   -1.6857483    5.6011312 
H     3.0710192   -0.0431849    3.7369684 
H    -1.2578520    0.0694069    3.5282865 
H    -1.3879462   -1.5277921    5.4163370 
C     0.9286537   -2.9659597    1.7360420 
C     2.6577309   -2.0955753   -0.2886987 
C    -0.2972724    1.3459562   -3.1368450 
C    -2.5528749    0.2703563   -1.9217966 
C    -0.1277707   -2.5349979   -1.1248911 
C    -0.1860221   -1.5483465   -2.3054929 
C     2.4002153   -3.4695746    1.7641240 
C     2.9518099   -3.4814616    0.3301803 
C    -1.6003323    1.3770977   -3.9646462 
C    -2.7621224    1.4011977   -2.9615297 
C    -0.1169682   -4.1035636    1.7091233 
C     3.6330202   -0.9905261    0.1751548 
C     1.0089106    1.0791100   -3.9031886 
C    -3.3431577    0.4865247   -0.6216808 
C    -1.5480824   -3.6515219    2.0175182 
C     3.5472614    0.2979769   -0.6479200 
C     1.3905936    2.2318522   -4.8442524 
C    -3.2194494   -0.6441739    0.4008472 
H     0.7321551   -2.3424763    2.6244656 
H     2.6699111   -2.1424571   -1.3934367 
H    -0.2102912    2.3190722   -2.6149912 
H    -2.8452130   -0.6983443   -2.3730015 
H    -1.1392255   -2.7424654   -0.7358353 
H     0.3146516   -3.4978763   -1.4356064 
H    -0.8775670   -1.9023392   -3.0905786 
H     0.8126053   -1.4502948   -2.7682429 
H     3.0051588   -2.7936355    2.3938106 
H     2.4506497   -4.4689159    2.2297114 
H     2.4489800   -4.2710757   -0.2594886 
H     4.0342725   -3.7009797    0.3023147 
H    -1.6239253    2.2575737   -4.6301566 
H    -1.6589109    0.4782324   -4.6092615 
H    -3.7431028    1.2869697   -3.4547737 
H    -2.7714682    2.3751844   -2.4357846 
H    -0.0763058   -4.6501829    0.7479153 
H     0.1956793   -4.8334371    2.4791724 
H     3.4634693   -0.7658792    1.2452094 
H     4.6590355   -1.3987722    0.1078201 
H     1.8290015    0.9144652   -3.1785433 
H     0.9096623    0.1441141   -4.4866326 
H    -3.0189927    1.4405657   -0.1694336 
H    -4.4052189    0.6236326   -0.9004024 
H    -2.2402908   -4.5103956    2.0218689 
H    -1.9226455   -2.9241336    1.2787969 
H    -1.5963755   -3.1657071    3.0075882 
H     3.7971906    0.1116812   -1.7076814 
H     2.5204687    0.7211559   -0.6136098 
H     4.2400741    1.0659359   -0.2638933 
H     2.3477265    2.0227580   -5.3512372 
H     1.5020629    3.1783111   -4.2849239 
H     0.6259614    2.3883930   -5.6245584 
H    -3.8495577   -0.4545306    1.2865917 
H    -2.1725749   -0.7360830    0.7531059 
H    -3.5272790   -1.6154654   -0.0273976 
