85
Energy =
C     0.0509136    2.8431742    0.5807148 
C    -0.0251717    2.1202286    1.8008114 
C     1.0247937    1.2278399    2.1689473 
H    -0.9675735    2.1038154    2.3622296 
Pd    0.1810184    0.6315992    0.2059962 
P     0.7681607   -1.6179151    0.0940983 
P    -0.7490064    0.3606070   -1.9048790 
H     1.0587922    3.0302009    0.1781425 
H     2.0367377    1.4824413    1.8199341 
C    -2.9790067    5.3153646   -1.2241118 
C    -1.6622328    5.3215122   -1.7075182 
C    -0.6866405    4.5239311   -1.0953653 
C    -1.0056928    3.6975243    0.0076073 
C    -2.3332629    3.7183050    0.4947499 
C    -3.3065025    4.5170009   -0.1147143 
H    -3.7437969    5.9388647   -1.6980467 
H    -1.3914612    5.9553176   -2.5582692 
H     0.3440688    4.5441331   -1.4677451 
H    -2.6118708    3.1040124    1.3572577 
H    -4.3285238    4.5191595    0.2780929 
C     0.9596963   -1.6243289    5.3965534 
C     2.1745678   -1.2034281    4.8351544 
C     2.1810803   -0.2597320    3.7991874 
C     0.9739059    0.2789931    3.2985600 
C    -0.2436666   -0.1608834    3.8693806 
C    -0.2484773   -1.0953816    4.9103609 
H     0.9518490   -2.3592440    6.2077265 
H     3.1215457   -1.6053995    5.2100232 
H     3.1341225    0.0702137    3.3700944 
H    -1.1974425    0.2127984    3.4815072 
H    -1.2009149   -1.4214249    5.3408882 
C     0.5619440   -2.8369523    1.4990798 
C     2.5916169   -2.0059908   -0.2113989 
C    -0.5484526    1.6000517   -3.2936902 
C    -2.6351762    0.2449223   -2.0622471 
C    -0.1323820   -2.3149343   -1.3901816 
C    -0.1195255   -1.2858387   -2.5349044 
C     1.7205620   -3.8350992    1.2780161 
C     2.9641338   -3.0138708    0.9076843 
C    -1.8327917    1.4249878   -4.1305495 
C    -2.9957483    1.3046718   -3.1363840 
C    -0.8432609   -3.4390706    1.6661466 
C     3.4944804   -0.7605580   -0.2770622 
C     0.7758377    1.5512427   -4.0688518 
C    -3.4301880    0.4157725   -0.7570299 
C    -0.9578684   -4.3437119    2.9023908 
C     4.9573017   -1.0877779   -0.6054144 
C     2.0087331    1.8503209   -3.2074255 
C    -3.1898909   -0.6673122    0.2969033 
H     0.7940769   -2.2338037    2.3980866 
H     2.6187347   -2.5226057   -1.1909515 
H    -0.6189577    2.5729087   -2.7674382 
H    -2.8201121   -0.7675699   -2.4721552 
H    -1.1691449   -2.5241353   -1.0705003 
H     0.3210022   -3.2730157   -1.7004804 
H    -0.7247424   -1.6280292   -3.3932687 
H     0.9119662   -1.1248996   -2.8988729 
H     1.8956103   -4.4384651    2.1853701 
H     1.4614857   -4.5403192    0.4637949 
H     3.8026737   -3.6572956    0.5916932 
H     3.3010252   -2.4492285    1.7979248 
H    -1.9660520    2.2804950   -4.8166513 
H    -1.7571856    0.5150854   -4.7573234 
H    -3.9452770    1.0371638   -3.6315605 
H    -3.1500345    2.2804202   -2.6373315 
H    -1.5768504   -2.6170096    1.7499860 
H    -1.1138623   -4.0166868    0.7616650 
H     3.0919044   -0.0623217   -1.0341501 
H     3.4346062   -0.2287135    0.6917281 
H     0.8823940    0.5694765   -4.5684325 
H     0.7092014    2.2948580   -4.8854901 
H    -3.2012413    1.4104250   -0.3341813 
H    -4.5029951    0.4370229   -1.0281072 
H    -1.9947323   -4.6990055    3.0283297 
H    -0.6687167   -3.7958220    3.8162810 
H    -0.3087524   -5.2322009    2.8182887 
H     5.4162249   -1.7224387    0.1723932 
H     5.0376859   -1.6233204   -1.5685785 
H     5.5570400   -0.1647150   -0.6805839 
H     2.9339444    1.8202696   -3.8067817 
H     2.1144951    1.1186097   -2.3847114 
H     1.9356566    2.8507660   -2.7452317 
H    -3.8269785   -0.5081463    1.1837352 
H    -2.1350618   -0.6510467    0.6374907 
H    -3.4083649   -1.6768589   -0.0964346 
