85
Energy =
C     0.2136321    2.7124910    0.7492264 
C     0.1165876    1.9734994    1.9593607 
C     1.1757350    1.1105350    2.3631595 
H    -0.8462643    1.9220408    2.4822794 
Pd    0.4306388    0.5158060    0.3522591 
P     1.0004800   -1.7318269    0.2475715 
P    -0.4028378    0.2489111   -1.7978443 
H     1.2276974    2.9552631    0.3950789 
H     2.1919382    1.3863120    2.0424881 
C    -2.8567838    5.0773097   -1.1336090 
C    -1.5228465    5.1573287   -1.5598697 
C    -0.5352186    4.3941269   -0.9232552 
C    -0.8589046    3.5272486    0.1468777 
C    -2.2065529    3.4690361    0.5731808 
C    -3.1912598    4.2356820   -0.0587273 
H    -3.6305800    5.6740888   -1.6267869 
H    -1.2478067    5.8228684   -2.3846244 
H     0.5082543    4.4750645   -1.2495564 
H    -2.4924435    2.8204359    1.4074829 
H    -4.2280215    4.1773058    0.2885272 
C     1.0852643   -1.7465777    5.5872875 
C     2.3029918   -1.3373284    5.0233068 
C     2.3167267   -0.3908484    3.9903341 
C     1.1144463    0.1605164    3.4910812 
C    -0.1056007   -0.2649222    4.0673455 
C    -0.1175479   -1.2004666    5.1077394 
H     1.0715669   -2.4825912    6.3973426 
H     3.2468162   -1.7497382    5.3948041 
H     3.2728082   -0.0681660    3.5625843 
H    -1.0567240    0.1244873    3.6893538 
H    -1.0721599   -1.5112960    5.5446654 
C     0.6272156   -2.9270031    1.6342602 
C     2.8298953   -2.1920958    0.1045214 
C    -0.2196182    1.5455989   -3.1331834 
C    -2.2755555    0.1058045   -1.9243929 
C     0.2039321   -2.4163547   -1.3029084 
C     0.2695537   -1.3737159   -2.4329457 
C     1.7600490   -3.9719168    1.5291762 
C     3.0595356   -3.1963088    1.2652484 
C    -1.5984244    1.5632029   -3.8338379 
C    -2.6707167    1.3525219   -2.7532204 
C    -0.8157208   -3.4577612    1.6717085 
C     3.8099379   -1.0066576    0.1105534 
C     1.0139871    1.3912735   -4.0398978 
C    -2.9786368   -0.0478844   -0.5629382 
C    -1.1115615   -4.2867005    2.9304059 
C     3.6837341   -0.0661562   -1.0918545 
C     1.2073328    2.5860130   -4.9856339 
C    -4.5074268   -0.1231249   -0.6688059 
H     0.8011422   -2.3214705    2.5449237 
H     2.9162364   -2.7256209   -0.8621060 
H    -0.1249094    2.4864438   -2.5575546 
H    -2.4625136   -0.7986068   -2.5375095 
H    -0.8478834   -2.6451509   -1.0532338 
H     0.6887454   -3.3647123   -1.5950610 
H    -0.2956169   -1.7037061   -3.3227226 
H     1.3150619   -1.1986567   -2.7447121 
H     1.8312216   -4.5693969    2.4543892 
H     1.5494147   -4.6768297    0.7009822 
H     3.9054957   -3.8654318    1.0304239 
H     3.3315064   -2.6317859    2.1767708 
H    -1.7505240    2.5143012   -4.3725344 
H    -1.6457554    0.7497298   -4.5841027 
H    -3.6741605    1.2258693   -3.1942922 
H    -2.7115556    2.2376101   -2.0904610 
H    -1.5130225   -2.5985759    1.6271235 
H    -1.0110377   -4.0725845    0.7725598 
H     3.6751278   -0.4370449    1.0495043 
H     4.8347198   -1.4223371    0.1485040 
H     1.9170915    1.2759552   -3.4105202 
H     0.9220292    0.4609192   -4.6322370 
H    -2.5952064   -0.9569627   -0.0612625 
H    -2.6869713    0.8028049    0.0805108 
H    -2.1683846   -4.6026717    2.9497449 
H    -0.9105190   -3.6987794    3.8428215 
H    -0.4895710   -5.1975171    2.9696804 
H     3.8183030   -0.6086424   -2.0452695 
H     2.6844724    0.4155605   -1.1103839 
H     4.4385493    0.7372652   -1.0510852 
H     2.1228640    2.4629973   -5.5885812 
H     1.2985992    3.5293605   -4.4175225 
H     0.3587114    2.6920146   -5.6831606 
H    -4.9592682   -0.2960403    0.3229944 
H    -4.8238458   -0.9481193   -1.3324006 
H    -4.9300904    0.8144816   -1.0695389 
