85
Energy =
C     0.0343673    2.7024199    0.6040967 
C    -0.0196087    1.9950918    1.8330247 
C     1.0435705    1.1160503    2.1943621 
H    -0.9488837    1.9907935    2.4162887 
Pd    0.1582505    0.4664136    0.2617851 
P     0.8597974   -1.7440490    0.1513326 
P    -0.7075503    0.1524310   -1.8733262 
H     1.0352439    2.8682846    0.1754108 
H     2.0421812    1.3721750    1.8105035 
C    -2.9934120    5.1897358   -1.1773481 
C    -1.6802273    5.1898350   -1.6700659 
C    -0.7043185    4.3887615   -1.0632399 
C    -1.0198316    3.5637722    0.0430146 
C    -2.3421196    3.5960174    0.5430938 
C    -3.3156457    4.3972215   -0.0618279 
H    -3.7592442    5.8147134   -1.6476506 
H    -1.4123073    5.8218092   -2.5230484 
H     0.3249355    4.4077205   -1.4399149 
H    -2.6165894    2.9873402    1.4096526 
H    -4.3339869    4.4079527    0.3405117 
C     1.1179179   -1.6593505    5.4880166 
C     2.3066984   -1.2563185    4.8609025 
C     2.2675110   -0.3349463    3.8062619 
C     1.0401350    0.1976196    3.3493362 
C    -0.1488891   -0.2158769    3.9931137 
C    -0.1083504   -1.1290347    5.0527126 
H     1.1454061   -2.3769267    6.3141499 
H     3.2689496   -1.6547529    5.1989634 
H     3.2011765   -0.0166326    3.3285436 
H    -1.1174002    0.1618659    3.6487836 
H    -1.0401787   -1.4353446    5.5395294 
C     0.6615103   -2.9995536    1.5308432 
C     2.7148974   -2.0333577   -0.0805204 
C    -0.5647209    1.5192782   -3.1531961 
C    -2.5566612   -0.1236891   -2.1618094 
C     0.0888276   -2.4707010   -1.3922604 
C     0.0919384   -1.4140140   -2.5145181 
C     1.8981258   -3.9104364    1.3683646 
C     3.1015873   -3.0075596    1.0620292 
C    -1.9246436    1.5288980   -3.8864418 
C    -3.0035249    1.1864922   -2.8479557 
C    -0.6900433   -3.7264995    1.5946549 
C     3.5559385   -0.7462544   -0.1478869 
C     0.6875736    1.4914642   -4.0415875 
C    -3.4083703   -0.6208320   -0.9806871 
C    -1.8723024   -2.8029491    1.9090016 
C     5.0378681   -1.0056832   -0.4504284 
C     1.9916355    1.7310837   -3.2696933 
C    -3.4816329    0.3064222    0.2349816 
H     0.7894226   -2.3958382    2.4508530 
H     2.7978401   -2.5641585   -1.0494229 
H    -0.5299642    2.4294156   -2.5244579 
H    -2.5675218   -0.9163707   -2.9360250 
H    -0.9461373   -2.7653661   -1.1419362 
H     0.6294069   -3.3849149   -1.6953134 
H    -0.4369966   -1.7779478   -3.4131662 
H     1.1273647   -1.1688450   -2.8135152 
H     2.0570398   -4.5072917    2.2840332 
H     1.7307355   -4.6266050    0.5400454 
H     3.9960953   -3.5934046    0.7903302 
H     3.3539364   -2.4200892    1.9647305 
H    -2.0950939    2.5149044   -4.3533193 
H    -1.9255069    0.7755130   -4.6977147 
H    -4.0002279    1.0561179   -3.3055679 
H    -3.0836077    2.0059860   -2.1084723 
H    -0.8628609   -4.2753920    0.6491802 
H    -0.6112442   -4.5034054    2.3784109 
H     3.1308119   -0.0767393   -0.9190385 
H     3.4568320   -0.2071889    0.8126259 
H     0.7349090    0.5361741   -4.5985896 
H     0.5683214    2.2794532   -4.8093258 
H    -4.4294881   -0.7978840   -1.3691937 
H    -3.0352617   -1.6131088   -0.6670330 
H    -2.8300212   -3.3487219    1.8712454 
H    -1.9284902   -1.9639380    1.1920827 
H    -1.7656545   -2.3618917    2.9137550 
H     5.5148319   -1.6075491    0.3424834 
H     5.1594601   -1.5484631   -1.4051894 
H     5.5931584   -0.0554602   -0.5284834 
H     2.8669121    1.7002640   -3.9397986 
H     2.1439172    0.9718890   -2.4798799 
H     1.9795211    2.7173951   -2.7724348 
H    -4.0833038   -0.1524350    1.0376072 
H    -3.9364321    1.2773215   -0.0196593 
H    -2.4683038    0.5016745    0.6402957 
