85
Energy =
C     0.2200350    2.7686330    0.5915127 
C     0.0476775    2.0269101    1.7884697 
C     1.0532943    1.1141049    2.2232258 
H    -0.9315500    2.0217430    2.2829199 
Pd    0.3144195    0.5544137    0.1846058 
P     0.8403104   -1.7118906    0.0092085 
P    -0.7146425    0.3256840   -1.8808364 
H     1.2550699    2.9249217    0.2499866 
H     2.0931610    1.3524124    1.9596105 
C    -2.5982020    5.3919692   -1.3383110 
C    -1.2714319    5.3045300   -1.7852718 
C    -0.3663994    4.4570861   -1.1334284 
C    -0.7668653    3.6734829   -0.0254861 
C    -2.1014009    3.7924635    0.4272977 
C    -3.0050326    4.6391642   -0.2234259 
H    -3.3082743    6.0543854   -1.8435294 
H    -0.9378843    5.9033824   -2.6390498 
H     0.6720804    4.4011343   -1.4793670 
H    -2.4384571    3.2264235    1.3015497 
H    -4.0332836    4.7180878    0.1442884 
C     0.6707962   -1.7291199    5.4360002 
C     1.9352804   -1.3339440    4.9738089 
C     2.0444200   -0.3931662    3.9414626 
C     0.8929985    0.1682070    3.3431158 
C    -0.3754531   -0.2452714    3.8159107 
C    -0.4831519   -1.1767863    4.8542418 
H     0.5829906   -2.4622317    6.2440684 
H     2.8405970   -1.7538935    5.4242586 
H     3.0351372   -0.0802548    3.5924375 
H    -1.2873695    0.1459489    3.3524203 
H    -1.4736274   -1.4822340    5.2071433 
C     0.6558635   -2.8623861    1.4861551 
C     2.6246548   -2.2037495   -0.3540183 
C    -0.5898885    1.5668328   -3.2767133 
C    -2.6107489    0.2689103   -1.8814011 
C    -0.1615248   -2.3745058   -1.4247341 
C    -0.1965321   -1.3375337   -2.5621310 
C     1.9966453   -3.6354402    1.5652578 
C     3.1073162   -2.7296107    1.0152019 
C    -1.9546142    1.4623536   -3.9886494 
C    -3.0216082    1.3737790   -2.8889156 
C    -0.6133952   -3.7333763    1.4960599 
C     3.5379810   -1.1854193   -1.0621017 
C     0.6540646    1.4639327   -4.1704653 
C    -3.2924884    0.4136892   -0.5103805 
C    -0.7543636   -4.5502226    2.7894741 
C     3.7745177    0.1407909   -0.3330551 
C     1.9702554    1.7059075   -3.4211755 
C    -3.0420063   -0.7361164    0.4687579 
H     0.6066747   -2.1679291    2.3443271 
H     2.5169760   -3.0794713   -1.0244685 
H    -0.5648258    2.5368978   -2.7415961 
H    -2.8607520   -0.7218955   -2.3094607 
H    -1.1811785   -2.5692836   -1.0471286 
H     0.2554675   -3.3377277   -1.7680640 
H    -0.8799114   -1.6499386   -3.3718553 
H     0.8081108   -1.2136294   -3.0048501 
H     2.1996685   -3.9427300    2.6050197 
H     1.9317531   -4.5567246    0.9544914 
H     4.0666701   -3.2657408    0.9044937 
H     3.2795972   -1.8875132    1.7111488 
H    -2.1138425    2.3356537   -4.6460850 
H    -1.9806227    0.5615015   -4.6323089 
H    -4.0264913    1.1638467   -3.2948783 
H    -3.0784605    2.3423410   -2.3564392 
H    -1.5014897   -3.0854383    1.3805920 
H    -0.6023345   -4.4164507    0.6251153 
H     4.5093664   -1.6881965   -1.2302563 
H     3.1323716   -0.9815778   -2.0706300 
H     0.6724015    0.4803077   -4.6775110 
H     0.5460419    2.2128646   -4.9776962 
H    -2.9725460    1.3694887   -0.0584944 
H    -4.3794812    0.5100690   -0.6942903 
H    -0.7510258   -3.8873186    3.6724831 
H     0.0719260   -5.2726477    2.9049204 
H    -1.6991690   -5.1198745    2.7887067 
H     2.8216486    0.6932054   -0.2076195 
H     4.2133037   -0.0088426    0.6686056 
H     4.4604931    0.7835368   -0.9095696 
H     2.8382600    1.6210930   -4.0961789 
H     2.1063008    0.9795547   -2.6000604 
H     1.9886904    2.7132470   -2.9690100 
H    -3.6023912   -0.5871294    1.4076973 
H    -1.9674245   -0.7999306    0.7312606 
H    -3.3531458   -1.7077481    0.0435861 
