85
Energy =
C     0.1083734    2.7015384    0.6616933 
C    -0.0590323    1.9738783    1.8656747 
C     0.9591036    1.0851030    2.3249696 
H    -1.0415424    1.9593312    2.3535051 
Pd    0.2731682    0.4712356    0.2939994 
P     1.0176799   -1.7237632    0.1751509 
P    -0.5852517    0.1368990   -1.8373198 
H     1.1425193    2.8663828    0.3214282 
H     1.9986490    1.3489909    2.0841467 
C    -2.7314402    5.2817175   -1.2885597 
C    -3.1423964    4.5019989   -0.1937383 
C    -2.2331080    3.6644021    0.4599023 
C    -0.8877904    3.5846631    0.0316616 
C    -0.4846063    4.3901689   -1.0596224 
C    -1.3962581    5.2271404   -1.7155087 
H    -3.4462714    5.9373232   -1.7960312 
H    -4.1795799    4.5508130    0.1536892 
H    -2.5764235    3.0641362    1.3080010 
H     0.5611745    4.3621351   -1.3871991 
H    -1.0616206    5.8443987   -2.5556143 
C     0.5514766   -1.7296143    5.5625825 
C    -0.5955358   -1.2388602    4.9156134 
C    -0.4777163   -0.3153518    3.8712726 
C     0.7924916    0.1501111    3.4554444 
C     1.9359918   -0.3440049    4.1235680 
C     1.8176010   -1.2764415    5.1629064 
H     0.4569348   -2.4569949    6.3750788 
H    -1.5877077   -1.5866005    5.2218965 
H    -1.3810833    0.0249732    3.3537769 
H     2.9277818    0.0173185    3.8293086 
H     2.7170097   -1.6441008    5.6676457 
C     0.8434511   -2.9323027    1.6111199 
C     2.8551917   -2.0281879   -0.0919816 
C    -0.5458752    1.4473406   -3.1834867 
C    -2.4167116   -0.2388276   -2.0337292 
C     0.2666343   -2.4808599   -1.3661173 
C     0.2176048   -1.4263435   -2.4874135 
C     2.2455402   -3.5967730    1.7536984 
C     3.0118542   -3.4780970    0.4243612 
C    -1.9326840    1.3665241   -3.8949329 
C    -2.6296892    0.0380107   -3.5408862 
C    -0.3352791   -3.9174991    1.4746720 
C     3.7433865   -0.9997238    0.6396596 
C     0.6779582    1.3716145   -4.1173505 
C    -3.3055729    0.6238972   -1.1132352 
C    -1.7100368   -3.2405555    1.5382707 
C     3.8199148    0.3566157   -0.0676945 
C     2.0147367    1.6130412   -3.4047945 
C    -3.2910613    0.1862166    0.3544681 
H     0.6482725   -2.2945035    2.4901833 
H     3.0559081   -1.9704004   -1.1781978 
H    -0.4857711    2.3974102   -2.6228022 
H    -2.5793057   -1.3076303   -1.8000734 
H    -0.7499839   -2.8307529   -1.1190778 
H     0.8516916   -3.3644467   -1.6760752 
H    -0.3311881   -1.8073109   -3.3662934 
H     1.2373629   -1.1676259   -2.8223709 
H     2.8048150   -3.0839374    2.5553204 
H     2.1405020   -4.6514300    2.0613531 
H     2.5914134   -4.1849630   -0.3153073 
H     4.0797826   -3.7374239    0.5391163 
H    -2.5547899    2.2154758   -3.5633780 
H    -1.8103305    1.4678957   -4.9869594 
H    -2.1943387   -0.7853480   -4.1366809 
H    -3.7076009    0.0653021   -3.7820515 
H    -0.2327867   -4.5160783    0.5491756 
H    -0.2519935   -4.6391544    2.3086933 
H     3.3832016   -0.8681482    1.6769640 
H     4.7599310   -1.4285213    0.7225462 
H     0.6902406    0.4015746   -4.6504747 
H     0.5406923    2.1414245   -4.8998592 
H    -3.0100473    1.6864205   -1.1893817 
H    -4.3401277    0.5660038   -1.5017720 
H    -2.5234684   -3.9787692    1.4374396 
H    -1.8373605   -2.4867953    0.7402472 
H    -1.8389374   -2.7143293    2.4997150 
H     4.2769593    0.2590612   -1.0683087 
H     2.8076221    0.7885254   -0.2040341 
H     4.4206471    1.0783937    0.5115758 
H     2.8569683    1.5811671   -4.1162264 
H     2.2081684    0.8584073   -2.6212277 
H     2.0246334    2.6014459   -2.9113656 
H    -3.9146296    0.8538076    0.9728747 
H    -2.2596665    0.2035718    0.7626742 
H    -3.6784390   -0.8413355    0.4700891 
