85
Energy =
C     0.1433496    2.6843701    0.6716636 
C     0.0906947    1.9433555    1.8734929 
C     1.1569658    1.0608280    2.2396804 
H    -0.8459818    1.9103495    2.4444764 
Pd    0.3292425    0.4344122    0.2863655 
P     1.2498951   -1.6845367    0.1099251 
P    -0.7776307    0.0138587   -1.7256905 
H     1.1349139    2.8212393    0.2116263 
H     2.1754178    1.3655562    1.9605280 
C    -2.8932355    5.2399723   -0.9842904 
C    -1.6844561    5.0250538   -1.6650967 
C    -0.6974871    4.2109623   -1.0974374 
C    -0.9039873    3.5771473    0.1512476 
C    -2.1114178    3.8336406    0.8404346 
C    -3.0945704    4.6529894    0.2761833 
H    -3.6661027    5.8792500   -1.4227687 
H    -1.5064892    5.5028579   -2.6340371 
H     0.2545817    4.0635519   -1.6203110 
H    -2.2845759    3.3948326    1.8274071 
H    -4.0230568    4.8408663    0.8250341 
C     0.9101010   -1.7772712    5.4785944 
C    -0.2497378   -1.4130345    4.7741435 
C    -0.1777210   -0.4856596    3.7287189 
C     1.0558025    0.1067464    3.3667037 
C     2.2106808   -0.2614647    4.0914192 
C     2.1393433   -1.1954296    5.1340799 
H     0.8540843   -2.5065573    6.2930106 
H    -1.2139542   -1.8616364    5.0356833 
H    -1.0840642   -0.2396965    3.1638335 
H     3.1727576    0.2009289    3.8443538 
H     3.0467472   -1.4627827    5.6854903 
C     0.6251932   -3.0562986    1.2297042 
C     3.0816234   -2.0598587    0.4159344 
C    -0.5985186    1.1945856   -3.1878003 
C    -2.6536730   -0.0527217   -1.8459202 
C     1.0072845   -2.2270163   -1.6664496 
C    -0.3093676   -1.7270789   -2.2792304 
C     1.8271454   -4.0177770    1.3363704 
C     3.0787433   -3.1486467    1.5166067 
C    -1.9900942    1.2230181   -3.8944282 
C    -2.8701739    0.0714971   -3.3714701 
C    -0.7138517   -3.6982952    0.8389553 
C     3.9820848   -0.8552863    0.7302369 
C     0.5962965    0.9202333   -4.1180346 
C    -3.3603788    1.0390894   -1.0173512 
C    -1.9147866   -2.7598922    0.9999783 
C     4.0384263    0.2100929   -0.3676599 
C     1.9585151    1.0501305   -3.4301283 
C    -3.4014037    0.7323456    0.4827247 
H     0.5058210   -2.5471984    2.2069365 
H     3.4181021   -2.5164018   -0.5360394 
H    -0.4277316    2.1684431   -2.6962300 
H    -2.9803307   -1.0442191   -1.4837564 
H     1.0896918   -3.3271939   -1.7358952 
H     1.8716210   -1.8067114   -2.2113484 
H    -1.1495442   -2.3662320   -1.9557229 
H    -0.2715716   -1.7792531   -3.3805855 
H     1.6852427   -4.7174764    2.1792182 
H     1.9074857   -4.6302400    0.4166738 
H     4.0101539   -3.7394926    1.4716114 
H     3.0440330   -2.6609284    2.5088604 
H    -2.4776635    2.1903893   -3.6835626 
H    -1.8672644    1.1581918   -4.9891731 
H    -2.5844594   -0.8768469   -3.8632216 
H    -3.9383787    0.2375515   -3.6005307 
H    -0.6573119   -4.0871039   -0.1964645 
H    -0.8563560   -4.5884549    1.4803225 
H     3.6489381   -0.4035709    1.6809828 
H     4.9993983   -1.2466928    0.9210954 
H     0.4922291   -0.0781754   -4.5849914 
H     0.5367367    1.6451590   -4.9517315 
H    -2.8884369    2.0242353   -1.1890866 
H    -4.3950653    1.1259761   -1.4003795 
H    -2.8483709   -3.2349611    0.6540977 
H    -1.7733416   -1.8244349    0.4297366 
H    -2.0491741   -2.4707099    2.0564732 
H     4.3709141   -0.2169961   -1.3308965 
H     3.0415903    0.6648916   -0.5262806 
H     4.7372299    1.0206328   -0.0995181 
H     2.7854208    0.8646364   -4.1360975 
H     2.0606574    0.3347433   -2.5958495 
H     2.0940460    2.0612766   -3.0057901 
H    -3.9342467    1.5247263    1.0326835 
H    -2.3780568    0.6550213    0.8981256 
H    -3.9151811   -0.2254015    0.6798311 
