85
Energy =
C    -0.0940843    2.7410430    0.6459539 
C    -0.0612483    1.9893768    1.8428740 
C     1.0558775    1.1525410    2.1507947 
H    -0.9715251    1.9084064    2.4501399 
Pd    0.1723851    0.5227368    0.2178516 
P     1.0716062   -1.6117327    0.0324785 
P    -0.9141618    0.1396638   -1.8158632 
H     0.8699886    2.9385905    0.1505935 
H     2.0429157    1.4918712    1.8055276 
C    -3.3246664    5.1854387   -0.8010617 
C    -2.1664101    4.9944019   -1.5716955 
C    -1.1169278    4.2129836   -1.0754562 
C    -1.2084058    3.5908245    0.1917577 
C    -2.3705495    3.8119951    0.9659146 
C    -3.4159366    4.6006472    0.4727699 
H    -4.1455251    5.8001202   -1.1838681 
H    -2.0783530    5.4643458   -2.5567336 
H    -0.2086633    4.0758328   -1.6737308 
H    -2.4619477    3.3687236    1.9621785 
H    -4.3074095    4.7635682    1.0869884 
C     1.1455639   -1.6906892    5.3910678 
C    -0.0824558   -1.3226287    4.8158509 
C    -0.1212988   -0.3945130    3.7694534 
C     1.0673743    0.1956928    3.2779056 
C     2.2929169   -0.1765804    3.8736483 
C     2.3321965   -1.1117562    4.9167375 
H     1.1752929   -2.4203178    6.2065547 
H    -1.0139834   -1.7688233    5.1797454 
H    -1.0831242   -0.1453135    3.3079583 
H     3.2239619    0.2820692    3.5226252 
H     3.2930801   -1.3827444    5.3663666 
C     0.5865579   -2.9477906    1.2609701 
C     2.9292645   -1.9447539    0.1616107 
C    -0.3411769    1.0267613   -3.3701456 
C    -2.7580773    0.4183657   -2.1676887 
C     0.6422201   -2.2358869   -1.6805901 
C    -0.7031324   -1.6907361   -2.1791903 
C     1.8159377   -3.8806562    1.2824083 
C     3.0642372   -2.9881813    1.2982563 
C    -1.5276041    0.8435593   -4.3377675 
C    -2.8037837    1.1462052   -3.5408833 
C    -0.7639051   -3.6388182    1.0232594 
C     3.8028037   -0.6880773    0.3187744 
C     1.0359896    0.6335593   -3.9227618 
C    -3.5572367    1.1726571   -1.0907869 
C    -1.9735013   -2.7227293    1.2340317 
C     5.3068788   -0.9946334    0.3034897 
C     2.2041242    0.9948112   -2.9985293 
C    -3.6005211    0.5183307    0.2913007 
H     0.5476486   -2.4061404    2.2265278 
H     3.1819304   -2.4347256   -0.7997078 
H    -0.3127111    2.0903759   -3.0598800 
H    -3.1676348   -0.6047582   -2.2731784 
H     0.6609180   -3.3407599   -1.6931641 
H     1.4654165   -1.8925240   -2.3322785 
H    -1.5401905   -2.1958426   -1.6653386 
H    -0.8322997   -1.8740482   -3.2612523 
H     1.7747519   -4.5479207    2.1616786 
H     1.8149009   -4.5289821    0.3840055 
H     3.9911379   -3.5748871    1.1803229 
H     3.1248456   -2.4621893    2.2695320 
H    -1.4228214    1.5117310   -5.2114831 
H    -1.5407227   -0.1922442   -4.7292432 
H    -3.7170728    0.8651464   -4.0927938 
H    -2.8590499    2.2350218   -3.3537333 
H    -0.7851392   -4.0836935    0.0093468 
H    -0.8255817   -4.4948412    1.7216364 
H     3.5637273    0.0270588   -0.4892157 
H     3.5331172   -0.1883949    1.2658931 
H     1.0471349   -0.4479086   -4.1601926 
H     1.1647766    1.1485109   -4.8935928 
H    -3.1581317    2.1974849   -1.0072706 
H    -4.5886604    1.2808822   -1.4779974 
H    -2.9183639   -3.2448734    1.0074171 
H    -1.9158758   -1.8262016    0.5917960 
H    -2.0213995   -2.3672167    2.2775428 
H     5.5986331   -1.6398639    1.1502232 
H     5.5990066   -1.5094614   -0.6296364 
H     5.8953802   -0.0640278    0.3741009 
H     3.1708515    0.6882134   -3.4321954 
H     2.1013447    0.5052521   -2.0118824 
H     2.2431588    2.0836117   -2.8162903 
H    -4.2199971    1.1144014    0.9824263 
H    -2.5851217    0.4471717    0.7273739 
H    -4.0234650   -0.5011175    0.2494182 
