85
Energy =
C     0.2508453    2.7630490    0.6670517 
C     0.0653040    2.0391166    1.8730553 
C     1.0573006    1.1150139    2.3185785 
H    -0.9152807    2.0515118    2.3646356 
Pd    0.3273699    0.5445028    0.2920844 
P     0.8646354   -1.7141995    0.1560979 
P    -0.6364538    0.2827702   -1.7983399 
H     1.2898594    2.9097640    0.3334055 
H     2.1023428    1.3374997    2.0575286 
C    -2.5363785    5.3590751   -1.3418196 
C    -1.2012314    5.2706827   -1.7625523 
C    -0.3060916    4.4335474   -1.0840041 
C    -0.7259227    3.6609470    0.0245839 
C    -2.0701148    3.7776182    0.4483956 
C    -2.9629926    4.6155207   -0.2279031 
H    -3.2386965    6.0133624   -1.8680081 
H    -0.8531987    5.8601096   -2.6171572 
H     0.7392825    4.3777290   -1.4096519 
H    -2.4235009    3.2151092    1.3185284 
H    -3.9990834    4.6932923    0.1173420 
C     0.6043695   -1.7057834    5.5444462 
C    -0.5357002   -1.1434539    4.9448570 
C    -0.4036590   -0.2185436    3.9036125 
C     0.8755355    0.1772568    3.4439645 
C     2.0123364   -0.3916064    4.0620462 
C     1.8787417   -1.3250262    5.0985354 
H     0.4979563   -2.4343921    6.3543279 
H    -1.5341630   -1.4362144    5.2859567 
H    -1.3049990    0.1796760    3.4252948 
H     3.0118084   -0.0910750    3.7270903 
H     2.7733297   -1.7518906    5.5636384 
C     0.7032359   -2.8796265    1.6249765 
C     2.6495243   -2.1482206   -0.2530270 
C    -0.4085476    1.5216566   -3.1765818 
C    -2.5260445    0.2699422   -1.8775014 
C    -0.0883639   -2.4156513   -1.2949248 
C    -0.0961081   -1.3878968   -2.4400066 
C     2.1212372   -3.5006048    1.7788254 
C     2.7989505   -3.5439894    0.3986241 
C    -1.7630626    1.5149005   -3.9187673 
C    -2.8579282    1.4358405   -2.8442313 
C    -0.4467942   -3.9031164    1.4944683 
C     3.6525657   -1.0953372    0.2653244 
C     0.8609132    1.3386111   -4.0251881 
C    -3.2553743    0.3636627   -0.5265593 
C    -0.7206943   -4.6457931    2.8106216 
C     3.6650867    0.1971254   -0.5575424 
C     1.1208817    2.5249884   -4.9655589 
C    -3.0578427   -0.8347860    0.4068708 
H     0.4830288   -2.2293197    2.4882414 
H     2.7397421   -2.2142532   -1.3533540 
H    -0.3338434    2.4822722   -2.6300851 
H    -2.7844207   -0.6897688   -2.3673235 
H    -1.1161802   -2.6295558   -0.9558757 
H     0.3617598   -3.3719373   -1.6146021 
H    -0.7477597   -1.7125206   -3.2708314 
H     0.9226615   -1.2575525   -2.8486629 
H     2.7157886   -2.8815317    2.4728294 
H     2.0581437   -4.5066867    2.2273271 
H     2.3045961   -4.3036712   -0.2359626 
H     3.8635432   -3.8310689    0.4690571 
H    -1.8750672    2.4189787   -4.5421487 
H    -1.8184170    0.6405076   -4.5964612 
H    -3.8621238    1.2944117   -3.2805401 
H    -2.8794143    2.3834272   -2.2727320 
H    -1.3705491   -3.3767501    1.1906849 
H    -0.2181658   -4.6275276    0.6894177 
H     3.4394877   -0.8659045    1.3266139 
H     4.6600554   -1.5519855    0.2465675 
H     1.7312253    1.2094401   -3.3521882 
H     0.7792445    0.4073636   -4.6174113 
H    -2.9355614    1.2915375   -0.0188933 
H    -4.3335193    0.4873639   -0.7429764 
H    -1.5572663   -5.3549503    2.6905706 
H    -0.9830730   -3.9331171    3.6123162 
H     0.1588537   -5.2212276    3.1477997 
H     3.9461794   -0.0004625   -1.6076084 
H     2.6602315    0.6718850   -0.5641136 
H     4.3796647    0.9291522   -0.1444237 
H     2.0572524    2.3796347   -5.5302691 
H     1.2094562    3.4679947   -4.3964702 
H     0.3040509    2.6476084   -5.6975697 
H    -3.6581105   -0.7234419    1.3260649 
H    -1.9973467   -0.9233531    0.7148388 
H    -3.3593328   -1.7816654   -0.0772688 
