85
Energy =
C     0.1035810    2.5988040    0.7959092 
C     0.0744673    1.8745486    2.0199323 
C     1.1793442    1.0600378    2.3960253 
H    -0.8659175    1.8002432    2.5795292 
Pd    0.3766070    0.4063509    0.4186634 
P     0.9977918   -1.8291155    0.3409477 
P    -0.4009074    0.1299802   -1.7575757 
H     1.0962835    2.8772010    0.4091589 
H     2.1668310    1.3582323    2.0116058 
C    -3.1030219    4.8737678   -0.9674025 
C    -1.7824460    5.0234407   -1.4162824 
C    -0.7506814    4.2850310   -0.8219311 
C    -1.0155268    3.3757136    0.2287321 
C    -2.3511911    3.2441993    0.6761133 
C    -3.3803857    3.9849799    0.0855475 
H    -3.9111987    5.4505400   -1.4281229 
H    -1.5528701    5.7239098   -2.2258522 
H     0.2816071    4.4216170   -1.1645469 
H    -2.5924846    2.5547800    1.4916766 
H    -4.4071454    3.8685296    0.4474999 
C     1.3778426   -1.7366421    5.6672779 
C     2.5407096   -1.3333056    4.9933070 
C     2.4604959   -0.4038571    3.9485551 
C     1.2172971    0.1368286    3.5464506 
C     0.0563841   -0.2711195    4.2427368 
C     0.1375011   -1.1940542    5.2915989 
H     1.4370443   -2.4610380    6.4857559 
H     3.5148586   -1.7377550    5.2872324 
H     3.3748008   -0.0863217    3.4345559 
H    -0.9231556    0.1235304    3.9545431 
H    -0.7737417   -1.4957642    5.8185140 
C     0.7001352   -3.0493323    1.7355291 
C     2.8379099   -2.2402120    0.1484938 
C    -0.0527823    1.4280957   -3.0701859 
C    -2.2638840    0.0952870   -2.0221955 
C     0.1835544   -2.5398544   -1.1879585 
C     0.2510200   -1.5225427   -2.3415776 
C     1.8637531   -4.0537136    1.5897392 
C     3.1320269   -3.2422804    1.2954223 
C    -1.4025866    1.6021376   -3.8067687 
C    -2.5302859    1.4153158   -2.7822378 
C    -0.7027518   -3.6717919    1.8013361 
C     3.7913871   -1.0332094    0.1360469 
C     1.1713500    1.1650405   -3.9651510 
C    -3.0743831   -0.1160814   -0.7313693 
C    -1.8177797   -2.6609919    2.0927366 
C     3.6249352   -0.0922325   -1.0596735 
C     1.4850958    2.3423489   -4.9008313 
C    -4.5902800    0.0204664   -0.9241860 
H     0.8695491   -2.4469276    2.6496439 
H     2.9106405   -2.7663468   -0.8234206 
H     0.1296494    2.3431494   -2.4752371 
H    -2.4487685   -0.7497386   -2.7154664 
H    -0.8680887   -2.7546138   -0.9254604 
H     0.6585244   -3.4977354   -1.4653650 
H    -0.3166880   -1.8711766   -3.2224228 
H     1.2975870   -1.3660693   -2.6595762 
H     1.9677477   -4.6565148    2.5093452 
H     1.6510279   -4.7586708    0.7623011 
H     3.9892171   -3.8854652    1.0308039 
H     3.4149056   -2.6746526    2.2013995 
H    -1.4565769    2.5929513   -4.2896206 
H    -1.4868166    0.8413715   -4.6073238 
H    -3.5205017    1.3901676   -3.2682371 
H    -2.5365567    2.2602087   -2.0688112 
H    -0.9099151   -4.2232747    0.8644283 
H    -0.6855941   -4.4389157    2.5983433 
H     3.6634328   -0.4684377    1.0783056 
H     4.8249172   -1.4280630    0.1538734 
H     2.0539516    0.9624682   -3.3308841 
H     0.9971968    0.2517547   -4.5655694 
H    -2.8441917   -1.1190642   -0.3286649 
H    -2.7261361    0.6085028    0.0280114 
H    -2.8112774   -3.1388432    2.0569208 
H    -1.8108329   -1.8306103    1.3625351 
H    -1.6863661   -2.2146400    3.0921592 
H     3.7535399   -0.6287472   -2.0171531 
H     2.6160060    0.3684981   -1.0569343 
H     4.3636356    0.7265750   -1.0295987 
H     2.3921558    2.1370700   -5.4940981 
H     1.6582126    3.2697628   -4.3256346 
H     0.6586451    2.5314046   -5.6072772 
H    -5.1233026   -0.2252001    0.0103044 
H    -4.9597268   -0.6605004   -1.7121063 
H    -4.8684097    1.0505813   -1.2068375 
