85
Energy =
C    -0.0093165    2.6570486    0.8246582 
C    -0.0276243    1.8885071    2.0115628 
C     1.0678846    1.0360485    2.3500849 
H    -0.9612157    1.8080273    2.5822829 
Pd    0.2471872    0.4422841    0.3750298 
P     1.1292613   -1.6989459    0.2001116 
P    -0.7650401    0.0900531   -1.7003051 
H     0.9743560    2.8578071    0.3713386 
H     2.0703118    1.3661929    2.0419232 
C    -3.1645298    5.1560977   -0.6954731 
C    -1.9856920    4.9579871   -1.4323272 
C    -0.9616981    4.1579222   -0.9130010 
C    -1.0995372    3.5241623    0.3440667 
C    -2.2826847    3.7510285    1.0841104 
C    -3.3025612    4.5583994    0.5680440 
H    -3.9653613    5.7854154   -1.0964808 
H    -1.8617412    5.4365962   -2.4093022 
H    -0.0384127    4.0140538   -1.4861901 
H    -2.4104945    3.2982013    2.0721271 
H    -4.2105490    4.7257395    1.1563131 
C     1.0208846   -1.8494453    5.5535498 
C    -0.1859114   -1.4425394    4.9598544 
C    -0.1811956   -0.5000261    3.9257334 
C     1.0311252    0.0662296    3.4652404 
C     2.2349881   -0.3447915    4.0795340 
C     2.2306916   -1.2944248    5.1102074 
H     1.0162635   -2.5903943    6.3592828 
H    -1.1352751   -1.8697892    5.2995416 
H    -1.1275753   -0.2207272    3.4501454 
H     3.1839687    0.0944619    3.7525156 
H     3.1755488   -1.5952746    5.5745604 
C     0.6506506   -3.0418502    1.4244495 
C     2.9912515   -2.0190109    0.3384332 
C    -0.0635936    0.9415483   -3.2184936 
C    -2.5738470    0.4533967   -2.1373737 
C     0.7062092   -2.3270636   -1.5130560 
C    -0.6190998   -1.7512047   -2.0313749 
C     1.8826192   -3.9718395    1.4403622 
C     3.1260026   -3.0734557    1.4643727 
C    -1.2325904    0.9098593   -4.2260548 
C    -2.5049563    1.2774760   -3.4509499 
C    -0.6977874   -3.7350873    1.1803477 
C     3.8734361   -0.7760135    0.5365293 
C     1.2844213    0.3982232   -3.7213911 
C    -3.4236887    1.1451003   -1.0580928 
C    -1.9112325   -2.8247372    1.3946977 
C     3.8079536    0.2473730   -0.6008407 
C     1.9022480    1.2569403   -4.8352285 
C    -3.5244562    0.4119358    0.2809298 
H     0.6090575   -2.5059597    2.3929892 
H     3.2545225   -2.4920908   -0.6281457 
H     0.0768821    1.9881260   -2.8820671 
H    -3.0007687   -0.5459386   -2.3509526 
H     0.6975702   -3.4320588   -1.5172472 
H     1.5440861   -2.0077293   -2.1571521 
H    -1.4761569   -2.2176775   -1.5134940 
H    -0.7474689   -1.9473685   -3.1113303 
H     1.8427624   -4.6446736    2.3153850 
H     1.8842961   -4.6140615    0.5376464 
H     4.0608960   -3.6474459    1.3412622 
H     3.1809554   -2.5564895    2.4403853 
H    -1.0547664    1.6071880   -5.0632360 
H    -1.3187777   -0.1034862   -4.6653824 
H    -3.4180364    1.1181726   -4.0503322 
H    -2.4717119    2.3513886   -3.1877719 
H    -0.7160552   -4.1735626    0.1636859 
H    -0.7575778   -4.5957324    1.8731468 
H     3.6001783   -0.2958333    1.4931410 
H     4.9155562   -1.1268440    0.6600122 
H     1.9912984    0.3423094   -2.8739039 
H     1.1461461   -0.6363521   -4.0902013 
H    -3.0302449    2.1623298   -0.8966887 
H    -4.4367387    1.2762556   -1.4842618 
H    -2.8527867   -3.3468728    1.1547222 
H    -1.8521660   -1.9198146    0.7643847 
H    -1.9668503   -2.4838213    2.4424409 
H     4.0859520   -0.2067855   -1.5690447 
H     2.7836980    0.6600843   -0.6994772 
H     4.4923844    1.0925799   -0.4158975 
H     2.8850213    0.8561305   -5.1362396 
H     2.0505263    2.2978475   -4.4958586 
H     1.2620204    1.2810922   -5.7336888 
H    -4.1828617    0.9603287    0.9756648 
H    -2.5292446    0.3275309    0.7595514 
H    -3.9311926   -0.6082607    0.1619506 
