85
Energy =
C     0.1896948    2.7467194    0.7081464 
C     0.0390090    2.0217573    1.9200576 
C     1.0599846    1.1161530    2.3371791 
H    -0.9306721    2.0158950    2.4329719 
Pd    0.3028869    0.5339843    0.3370077 
P     0.8837038   -1.7194402    0.2426728 
P    -0.5748122    0.2695824   -1.8015018 
H     1.2208228    2.9198041    0.3624156 
H     2.0914128    1.3627622    2.0434449 
C    -2.6906026    5.2588793   -1.2752769 
C    -1.3516830    5.2292479   -1.6923875 
C    -0.4260135    4.4193451   -1.0217820 
C    -0.8184000    3.6167459    0.0753460 
C    -2.1673652    3.6739633    0.4958434 
C    -3.0908467    4.4843675   -0.1727573 
H    -3.4168061    5.8914766   -1.7955659 
H    -1.0248306    5.8435760   -2.5377655 
H     0.6216802    4.4092106   -1.3445519 
H    -2.5012599    3.0817374    1.3540942 
H    -4.1307291    4.5150527    0.1685209 
C     0.7978008   -1.7436802    5.5478753 
C     2.0448258   -1.3271832    5.0583407 
C     2.1150622   -0.3815209    4.0264719 
C     0.9409813    0.1635981    3.4587270 
C    -0.3093754   -0.2724469    3.9569051 
C    -0.3781683   -1.2089158    4.9937185 
H     0.7401312   -2.4802083    6.3555882 
H     2.9668578   -1.7342363    5.4861305 
H     3.0927148   -0.0549962    3.6538216 
H    -1.2373450    0.1060482    3.5148297 
H    -1.3551757   -1.5323956    5.3673572 
C     0.6201677   -2.9480830    1.6316846 
C     2.7192452   -2.1255644    0.0046643 
C    -0.3080354    1.5140795   -3.1728436 
C    -2.4576725    0.2011563   -1.9963435 
C     0.0282889   -2.4124191   -1.2707053 
C     0.0562668   -1.3820149   -2.4128870 
C     1.7579229   -3.9719263    1.4239203 
C     3.0283421   -3.1716518    1.1084817 
C    -1.6029356    1.4335869   -4.0105652 
C    -2.7684678    1.3244318   -3.0187985 
C    -0.8016694   -3.5176125    1.7686876 
C     3.6766238   -0.9214673    0.0346673 
C     1.0190892    1.3949694   -3.9407631 
C    -3.2751543    0.3260390   -0.7000218 
C    -0.9547393   -4.4454349    2.9834966 
C     3.4993508    0.0712206   -1.1165435 
C     1.2624929    2.5785343   -4.8895501 
C    -3.0794569   -0.8117503    0.3036927 
H     0.8493544   -2.3588838    2.5408633 
H     2.7796360   -2.6099732   -0.9892867 
H    -0.3195718    2.4803400   -2.6306676 
H    -2.6588033   -0.7830820   -2.4636515 
H    -1.0131609   -2.6328035   -0.9756969 
H     0.4971394   -3.3653198   -1.5740517 
H    -0.5344907   -1.7245561   -3.2811965 
H     1.0929119   -1.2174130   -2.7594982 
H     1.8920823   -4.5959192    2.3242333 
H     1.5054358   -4.6551781    0.5893111 
H     3.8657956   -3.8200169    0.7977364 
H     3.3507497   -2.6376544    2.0223388 
H    -1.7074946    2.3207513   -4.6590030 
H    -1.5688178    0.5466634   -4.6732265 
H    -3.7299367    1.1245399   -3.5230107 
H    -2.8764573    2.2829605   -2.4758780 
H    -1.5141547   -2.6787857    1.8626894 
H    -1.0768854   -4.0688676    0.8493661 
H     3.5619133   -0.3991530    1.0036660 
H     4.7087702   -1.3202787    0.0230913 
H     1.8539520    1.3325837   -3.2185714 
H     1.0295215    0.4504556   -4.5173595 
H    -3.0314662    1.2929453   -0.2242066 
H    -4.3414674    0.3862721   -0.9898806 
H    -2.0032175   -4.7711218    3.0922037 
H    -0.6580593   -3.9268494    3.9119353 
H    -0.3327054   -5.3516337    2.8854027 
H     3.6099175   -0.4234233   -2.0984199 
H     2.4915716    0.5344039   -1.0790141 
H     4.2420400    0.8851448   -1.0615725 
H     2.2426510    2.4850654   -5.3869394 
H     1.2512302    3.5359405   -4.3377907 
H     0.4917042    2.6335217   -5.6774033 
H    -3.7338316   -0.6847584    1.1830944 
H    -2.0332756   -0.8301506    0.6679846 
H    -3.3057229   -1.7967421   -0.1437425 
