85
Energy =
C    -0.1172042    2.6542172    0.7725184 
C    -0.0620539    1.9307889    1.9943791 
C     1.0547143    1.1005903    2.2896640 
H    -0.9582917    1.8666328    2.6231614 
Pd    0.1064671    0.4496202    0.3787540 
P     0.7486700   -1.7820520    0.2828548 
P    -0.6903947    0.1710091   -1.7914902 
H     0.8436964    2.9061796    0.2978005 
H     2.0161589    1.3869621    1.8371665 
C    -3.4307540    4.9741699   -0.7074064 
C    -2.1911476    4.9887344   -1.3650976 
C    -1.1196101    4.2431357   -0.8583254 
C    -1.2660482    3.4532544    0.3058816 
C    -2.5174623    3.4604287    0.9644435 
C    -3.5842533    4.2146156    0.4644944 
H    -4.2689737    5.5602313   -1.0973603 
H    -2.0550720    5.5930133   -2.2680578 
H    -0.1467167    4.2772354   -1.3627499 
H    -2.6675446    2.8644888    1.8700125 
H    -4.5444846    4.2083487    0.9904843 
C     1.4610733   -1.6690018    5.5618271 
C     2.5833220   -1.2461760    4.8333988 
C     2.4354504   -0.3279935    3.7858239 
C     1.1635981    0.1826822    3.4390793 
C     0.0429272   -0.2487479    4.1855754 
C     0.1920514   -1.1606520    5.2363817 
H     1.5733313   -2.3849319    6.3822086 
H     3.5781278   -1.6277601    5.0855692 
H     3.3167808    0.0037556    3.2249675 
H    -0.9580509    0.1151652    3.9317753 
H    -0.6879285   -1.4824769    5.8029568 
C     0.6633980   -3.0016339    1.7058663 
C     2.5655763   -2.1037159   -0.1217471 
C    -0.1767356    1.3424495   -3.1469078 
C    -2.5214293    0.1884008   -2.2613498 
C    -0.1811211   -2.5141911   -1.1611515 
C    -0.1128748   -1.5282332   -2.3402186 
C     1.9095486   -3.8919917    1.4968191 
C     3.0655818   -2.9868907    1.0483581 
C    -1.1889331    1.0337928   -4.2697928 
C    -2.5783206    0.9725450   -3.6101887 
C    -0.6616382   -3.7644793    1.8623036 
C     3.3871444   -0.8281072   -0.3830318 
C     1.3170446    1.3271532   -3.5092443 
C    -3.4660428    0.7894819   -1.2056180 
C    -1.8635843   -2.8718553    2.1901874 
C     4.8416953   -1.1125688   -0.7814478 
C     1.7121852    2.4542350   -4.4750325 
C    -3.5126489    0.0435854    0.1288525 
H     0.8263666   -2.3750300    2.6037017 
H     2.5498902   -2.7149827   -1.0462045 
H    -0.4288989    2.3346822   -2.7211593 
H    -2.7852035   -0.8741981   -2.4225211 
H    -1.2277982   -2.6702103   -0.8415179 
H     0.2383127   -3.4996846   -1.4315151 
H    -0.7166998   -1.8802753   -3.1946859 
H     0.9292465   -1.4235779   -2.6935330 
H     2.1504820   -4.4352681    2.4276406 
H     1.6977915   -4.6543348    0.7216909 
H     3.9515545   -3.5716093    0.7475186 
H     3.3696032   -2.3366281    1.8899905 
H    -1.1603964    1.8068180   -5.0575437 
H    -0.9303183    0.0727475   -4.7547099 
H    -3.3344553    0.5301301   -4.2806454 
H    -2.9068135    2.0045426   -3.3884171 
H    -0.8573960   -4.3588730    0.9492416 
H    -0.5200194   -4.5029336    2.6740845 
H     2.8932266   -0.2386269   -1.1786242 
H     3.3614060   -0.1961333    0.5252413 
H     1.9092158    1.4190457   -2.5781931 
H     1.5824109    0.3498649   -3.9555629 
H    -3.1860947    1.8441529   -1.0353699 
H    -4.4785780    0.8117441   -1.6527101 
H    -2.7878934   -3.4666858    2.2820562 
H    -2.0287365   -2.1100364    1.4076896 
H    -1.7042159   -2.3356374    3.1407956 
H     5.3903376   -1.6277761    0.0258710 
H     4.8897346   -1.7505974   -1.6824013 
H     5.3773865   -0.1737931   -1.0030284 
H     2.7969029    2.4357128   -4.6748276 
H     1.4619406    3.4438938   -4.0520588 
H     1.1922053    2.3593605   -5.4438134 
H    -4.2394311    0.5101697    0.8151252 
H    -2.5213597    0.0648898    0.6254711 
H    -3.8029294   -1.0143059   -0.0044229 
