85
Energy =
C     0.2266944    2.6761160    0.6817978 
C     0.1141776    1.9563339    1.8984097 
C     1.1392558    1.0466427    2.2954441 
H    -0.8384700    1.9618199    2.4422640 
Pd    0.3306805    0.4464765    0.3168131 
P     1.0326085   -1.7767544    0.2207088 
P    -0.5922316    0.1217587   -1.7982684 
H     1.2426218    2.8260438    0.2847192 
H     2.1656625    1.2893021    1.9834727 
C    -2.7006100    5.2549319   -1.1377752 
C    -1.3993236    5.1650247   -1.6546632 
C    -0.4568387    4.3324603   -1.0385928 
C    -0.7946319    3.5653267    0.1012373 
C    -2.1033250    3.6849851    0.6226799 
C    -3.0440299    4.5178313    0.0083624 
H    -3.4397924    5.9063635   -1.6148038 
H    -1.1153067    5.7508647   -2.5349773 
H     0.5616115    4.2738966   -1.4387159 
H    -2.3932654    3.1221272    1.5146641 
H    -4.0522205    4.5972011    0.4280040 
C     0.8967631   -1.8037028    5.5187257 
C    -0.2808844   -1.2630060    4.9750773 
C    -0.2155971   -0.3245962    3.9392687 
C     1.0315542    0.1037715    3.4273337 
C     2.2072953   -0.4390980    3.9929265 
C     2.1414129   -1.3852314    5.0245572 
H     0.8430031   -2.5415197    6.3255302 
H    -1.2565999   -1.5818600    5.3563643 
H    -1.1450585    0.0608554    3.5067914 
H     3.1841787   -0.1087066    3.6223948 
H     3.0656391   -1.7909985    5.4489243 
C     0.6707878   -3.0665596    1.5413149 
C     2.9034461   -2.1143350    0.1855491 
C    -0.7155862    1.3849764   -3.1943912 
C    -2.4197014   -0.3113925   -1.8696284 
C     0.3749789   -2.4776018   -1.3890204 
C     0.2813211   -1.3913229   -2.4750025 
C     1.8825414   -4.0196100    1.4664213 
C     3.1373661   -3.1554735    1.3107762 
C    -2.1010358    1.1348838   -3.8757370 
C    -2.7104083   -0.1920277   -3.3812817 
C    -0.6932810   -3.7684251    1.4686755 
C     3.8221997   -0.8889837    0.3169401 
C     0.4682192    1.4081323   -4.1818675 
C    -3.2697392    0.6666557   -1.0228489 
C    -1.8931606   -2.8229118    1.5558932 
C     3.7025625    0.1308652   -0.8144975 
C     1.7968811    1.8568635   -3.5671766 
C    -3.2795002    0.3760236    0.4796358 
H     0.7299415   -2.4903553    2.4853827 
H     3.0789845   -2.5902686   -0.7988129 
H    -0.7405270    2.3562210   -2.6673900 
H    -2.5680847   -1.3457821   -1.5088961 
H    -0.6279162   -2.8868595   -1.1736788 
H     1.0055109   -3.3215315   -1.7204915 
H    -0.2321725   -1.7741504   -3.3741415 
H     1.2900685   -1.0636610   -2.7858082 
H     1.9293719   -4.6515118    2.3711590 
H     1.7688352   -4.7011526    0.6008852 
H     4.0366491   -3.7571324    1.0919692 
H     3.3247882   -2.6178135    2.2587091 
H    -2.7777685    1.9713823   -3.6320329 
H    -1.9879601    1.1274380   -4.9731545 
H    -2.2585356   -1.0438306   -3.9215926 
H    -3.7973294   -0.2380795   -3.5744544 
H    -0.7474964   -4.3765180    0.5451048 
H    -0.7301971   -4.4937354    2.3032054 
H     3.6257579   -0.3996361    1.2883855 
H     4.8616568   -1.2645440    0.3719251 
H     0.5768367    0.4173255   -4.6631442 
H     0.1935000    2.1052632   -4.9957744 
H    -2.9324127    1.7062110   -1.1938779 
H    -4.3062368    0.6182463   -1.4076990 
H    -2.8457776   -3.3773152    1.5121999 
H    -1.8858009   -2.0949008    0.7262860 
H    -1.8736486   -2.2438689    2.4945082 
H     3.8929867   -0.3314277   -1.7997952 
H     2.6825989    0.5662427   -0.8324077 
H     4.4168018    0.9619052   -0.6867200 
H     2.6017832    1.8636994   -4.3212157 
H     2.1117915    1.1922944   -2.7459866 
H     1.7143899    2.8765592   -3.1514363 
H    -3.8711701    1.1345664    1.0188207 
H    -2.2510137    0.3842491    0.8928365 
H    -3.7210702   -0.6119457    0.6947043 
