85
Energy =
C     0.1855233    2.6724481    0.6967522 
C     0.1664212    1.9490514    1.9188238 
C     1.2561835    1.1051313    2.2770194 
H    -0.7638508    1.8976738    2.4974078 
Pd    0.4066899    0.4634515    0.3203903 
P     1.0051029   -1.7905129    0.2593596 
P    -0.4809443    0.1565384   -1.8107162 
H     1.1736957    2.9103972    0.2737524 
H     2.2481734    1.3827851    1.8892113 
C    -3.0001166    5.0385490   -0.9798775 
C    -1.7080826    5.0796035   -1.5252191 
C    -0.6821042    4.3145793   -0.9564599 
C    -0.9243140    3.4843169    0.1623424 
C    -2.2281981    3.4669873    0.7099531 
C    -3.2517051    4.2356219    0.1454365 
H    -3.8038962    5.6381162   -1.4189541 
H    -1.4960438    5.7170222   -2.3899241 
H     0.3283142    4.3613166   -1.3763081 
H    -2.4512950    2.8432928    1.5815746 
H    -4.2538629    4.2090980    0.5857341 
C     1.3895653   -1.6778673    5.5640166 
C     2.5662965   -1.2767227    4.9134303 
C     2.5086365   -0.3531319    3.8616287 
C     1.2744660    0.1845920    3.4307372 
C     0.0982836   -0.2226890    4.1025299 
C     0.1567116   -1.1399880    5.1577422 
H     1.4319091   -2.3981606    6.3871528 
H     3.5340325   -1.6789963    5.2305795 
H     3.4335456   -0.0379080    3.3654671 
H    -0.8752367    0.1670672    3.7880137 
H    -0.7659427   -1.4418262    5.6642873 
C     0.6377010   -2.9849753    1.6636635 
C     2.8377676   -2.2625197    0.1247778 
C    -0.3879501    1.3524046   -3.2483897 
C    -2.3463137   -0.1129421   -1.9548868 
C     0.2071898   -2.4945470   -1.2811445 
C     0.2404207   -1.4608175   -2.4203937 
C     1.7995381   -4.0000548    1.6002656 
C     3.0834896   -3.2089956    1.3258908 
C    -1.5623558    0.8944974   -4.1401528 
C    -2.7748691    0.6875671   -3.2187671 
C    -0.7654382   -3.6099117    1.6852169 
C     3.8249550   -1.0873640    0.0535371 
C     0.9746719    1.5023255   -3.9469337 
C    -3.1221253    0.2737191   -0.6827334 
C    -1.9026369   -2.5978559    1.8558018 
C     3.7004459   -0.2417514   -1.2143351 
C     1.9670794    2.3813074   -3.1747325 
C    -4.6174205   -0.0588229   -0.7633632 
H     0.7663379   -2.3626115    2.5705102 
H     2.9063800   -2.8462400   -0.8142260 
H    -0.6683294    2.3235673   -2.7922186 
H    -2.4694330   -1.1980732   -2.1390677 
H    -0.8378703   -2.7422839   -1.0198749 
H     0.7047106   -3.4360831   -1.5738019 
H    -0.3153721   -1.8221271   -3.3036060 
H     1.2805780   -1.2645737   -2.7368371 
H     1.8614431   -4.5697128    2.5443890 
H     1.6144620   -4.7324264    0.7901528 
H     3.9461029   -3.8671034    1.1217894 
H     3.3344585   -2.6035854    2.2163306 
H    -1.7699342    1.6504020   -4.9188493 
H    -1.2977945   -0.0423363   -4.6673822 
H    -3.6057944    0.1830828   -3.7398022 
H    -3.1468660    1.6776250   -2.8943220 
H    -0.9177476   -4.2145911    0.7706457 
H    -0.7876707   -4.3308436    2.5241742 
H     3.6893156   -0.4505682    0.9477713 
H     4.8472198   -1.5045721    0.1255714 
H     1.4122958    0.5063943   -4.1484145 
H     0.7929384    1.9498963   -4.9420808 
H    -2.6732293   -0.2409300    0.1863322 
H    -2.9848147    1.3551939   -0.5031429 
H    -2.8864775   -3.0965287    1.8551774 
H    -1.9015168   -1.8505629    1.0413953 
H    -1.7969622   -2.0453683    2.8047012 
H     3.8609469   -0.8495429   -2.1232820 
H     2.6912053    0.2079759   -1.2796042 
H     4.4318873    0.5836843   -1.2250108 
H     2.9661942    2.3624140   -3.6411008 
H     2.0753562    2.0445087   -2.1287218 
H     1.6248574    3.4305401   -3.1542381 
H    -5.1301434    0.2193139    0.1734645 
H    -4.7774327   -1.1399703   -0.9285340 
H    -5.1114085    0.4849366   -1.5874919 
