85
Energy =
C     0.1457561    2.7477158    0.7154144 
C    -0.0370842    2.0203819    1.9214546 
C     0.9775376    1.1225408    2.3697501 
H    -1.0223393    2.0061566    2.4035366 
Pd    0.2879019    0.5359878    0.3465654 
P     0.8894359   -1.7124668    0.2693686 
P    -0.5188174    0.2663132   -1.8190146 
H     1.1857798    2.9293024    0.4022939 
H     2.0156243    1.3774425    2.1083573 
C    -2.6913211    5.2361034   -1.3580928 
C    -1.3395329    5.2183893   -1.7321295 
C    -0.4287148    4.4164162   -1.0322930 
C    -0.8490103    3.6098050    0.0514583 
C    -2.2111879    3.6550166    0.4285874 
C    -3.1198064    4.4577437   -0.2689908 
H    -3.4060227    5.8625296   -1.9012850 
H    -0.9912494    5.8356759   -2.5667387 
H     0.6288068    4.4154999   -1.3214059 
H    -2.5672647    3.0589618    1.2752004 
H    -4.1702615    4.4794018    0.0389909 
C     0.6383357   -1.7433170    5.5678904 
C    -0.5240578   -1.2147662    4.9801496 
C    -0.4305277   -0.2763276    3.9470515 
C     0.8312359    0.1679362    3.4863386 
C     1.9914141   -0.3708391    4.0877752 
C     1.8966510   -1.3184994    5.1158358 
H     0.5614217   -2.4813727    6.3726003 
H    -1.5096524   -1.5445613    5.3245754 
H    -1.3474508    0.0975082    3.4787390 
H     2.9776172   -0.0377952    3.7445560 
H     2.8081727   -1.7205267    5.5700750 
C     0.5885156   -2.9446825    1.6473511 
C     2.7346879   -2.1054089    0.0917858 
C    -0.2223879    1.5146359   -3.1799262 
C    -2.3933930    0.1749729   -2.0761542 
C     0.0902215   -2.4099125   -1.2723679 
C     0.1491430   -1.3775379   -2.4115703 
C     1.7391260   -3.9608432    1.4755299 
C     3.0141066   -3.1520540    1.2030449 
C    -1.4825724    1.4090647   -4.0662471 
C    -2.6832426    1.2854634   -3.1189557 
C    -0.8332953   -3.5236410    1.7366987 
C     3.6822774   -0.8949329    0.1561241 
C     1.1356649    1.4199722   -3.8953652 
C    -3.2549177    0.3022061   -0.8088533 
C    -1.0207246   -4.4526690    2.9457603 
C     3.5361511    0.0996161   -0.9978698 
C     1.3944364    2.6081115   -4.8343373 
C    -3.0814050   -0.8251813    0.2106331 
H     0.7839118   -2.3553673    2.5643373 
H     2.8313095   -2.5869275   -0.9006866 
H    -0.2728223    2.4806980   -2.6395084 
H    -2.5678677   -0.8158531   -2.5401652 
H    -0.9590315   -2.6379751   -1.0127470 
H     0.5757105   -3.3591057   -1.5608163 
H    -0.4077171   -1.7237917   -3.3005308 
H     1.1957752   -1.2027841   -2.7212233 
H     1.8477149   -4.5854862    2.3788357 
H     1.5184886   -4.6443336    0.6321176 
H     3.8652046   -3.7946395    0.9184399 
H     3.3033829   -2.6181143    2.1279625 
H    -1.5768113    2.2914177   -4.7227803 
H    -1.4086640    0.5199811   -4.7227424 
H    -3.6209798    1.0654791   -3.6582271 
H    -2.8285169    2.2456073   -2.5877887 
H    -1.5541085   -2.6895955    1.8066501 
H    -1.0738061   -4.0765196    0.8086900 
H     3.5322836   -0.3760220    1.1221013 
H     4.7169548   -1.2867394    0.1775878 
H     1.9425562    1.3726260   -3.1408921 
H     1.1860467    0.4758975   -4.4705546 
H    -3.0370067    1.2755170   -0.3336325 
H    -4.3115150    0.3489604   -1.1345688 
H    -2.0699242   -4.7858388    3.0190477 
H    -0.7592860   -3.9320910    3.8836373 
H    -0.3892939   -5.3544424    2.8688999 
H     3.6825726   -0.3914602   -1.9768279 
H     2.5244007    0.5555366   -0.9924760 
H     4.2707816    0.9185960   -0.9162736 
H     2.3946492    2.5324570   -5.2933402 
H     1.3445365    3.5648698   -4.2836450 
H     0.6538770    2.6497183   -5.6514737 
H    -3.7660638   -0.6976875    1.0665976 
H    -2.0477712   -0.8300589    0.6097768 
H    -3.2827523   -1.8160645   -0.2356764 
