85
Energy =
C     0.1778945    2.7400702    0.6189803 
C     0.0388564    2.0119292    1.8278372 
C     1.0606142    1.1065972    2.2439960 
H    -0.9274171    2.0065186    2.3472533 
Pd    0.2803446    0.5148035    0.2422332 
P     0.9174910   -1.7229815    0.1204981 
P    -0.7244457    0.2197511   -1.8397704 
H     1.2024789    2.8865014    0.2434068 
H     2.0918785    1.3537576    1.9545635 
C    -2.6913326    5.3528796   -1.2461255 
C    -1.4044142    5.1947405   -1.7827664 
C    -0.4806163    4.3527589   -1.1516355 
C    -0.8238383    3.6420451    0.0224690 
C    -2.1168421    3.8306391    0.5632314 
C    -3.0383495    4.6750316   -0.0654517 
H    -3.4150099    6.0136244   -1.7339821 
H    -1.1165554    5.7362490   -2.6898648 
H     0.5277225    4.2425790   -1.5667884 
H    -2.4079392    3.3187712    1.4861942 
H    -4.0335265    4.8098566    0.3706050 
C     0.7860935   -1.7206810    5.4831116 
C     2.0350738   -1.2889745    5.0121061 
C     2.1092704   -0.3524517    3.9724340 
C     0.9375717    0.1670393    3.3758708 
C    -0.3145843   -0.2772094    3.8622122 
C    -0.3875138   -1.2048807    4.9069431 
H     0.7254213   -2.4510101    6.2961968 
H     2.9554711   -1.6767490    5.4607928 
H     3.0884438   -0.0089090    3.6201543 
H    -1.2402812    0.0833474    3.4015347 
H    -1.3661339   -1.5357453    5.2701377 
C     0.9204757   -2.9599197    1.5578697 
C     2.7143004   -2.0310350   -0.3544515 
C    -0.5734250    1.3577886   -3.3233858 
C    -2.6227604    0.1730468   -1.8790984 
C    -0.0605231   -2.4685911   -1.2934760 
C    -0.1749687   -1.4630965   -2.4516534 
C     2.3397319   -3.6040442    1.5246832 
C     2.9178047   -3.4918912    0.1042931 
C    -1.8735279    1.0925116   -4.1104261 
C    -3.0183433    1.0622921   -3.0916293 
C    -0.2165234   -4.0052798    1.5411069 
C     3.6779740   -1.0477758    0.3513523 
C     0.7156590    1.2605312   -4.1520198 
C    -3.3221089    0.6342691   -0.5877780 
C    -1.6114594   -3.4401012    1.8198986 
C     3.7674752    0.3340639   -0.2982509 
C     1.9979322    1.5193547   -3.3561803 
C    -3.1465021   -0.2811088    0.6228838 
H     0.8084362   -2.3464943    2.4681108 
H     2.8157493   -1.9291123   -1.4510170 
H    -0.6395937    2.3684802   -2.8732614 
H    -2.8820114   -0.8834986   -2.0852152 
H    -1.0606776   -2.7219491   -0.9006676 
H     0.4091701   -3.4094618   -1.6302490 
H    -0.8641338   -1.8321935   -3.2318847 
H     0.8107366   -1.3153189   -2.9288585 
H     2.9966889   -3.0797953    2.2400770 
H     2.2859004   -4.6556569    1.8543661 
H     2.3866526   -4.1830927   -0.5767323 
H     3.9870549   -3.7684330    0.0692329 
H    -2.0284827    1.8740845   -4.8758130 
H    -1.7965443    0.1274550   -4.6480478 
H    -3.9641329    0.7051647   -3.5342212 
H    -3.1982919    2.0903098   -2.7251356 
H    -0.2049494   -4.5706455    0.5896102 
H     0.0296918   -4.7430505    2.3275910 
H     3.3850980   -0.9428618    1.4127127 
H     4.6821695   -1.5124270    0.3594535 
H     0.7654224    0.2704369   -4.6443869 
H     0.6318177    1.9961279   -4.9742363 
H    -2.9705447    1.6532387   -0.3466541 
H    -4.3999758    0.7320359   -0.8202278 
H    -1.6324242   -2.9134208    2.7894984 
H    -2.3645052   -4.2456866    1.8488910 
H    -1.9249128   -2.7169209    1.0498636 
H     4.1674831    0.2696311   -1.3249521 
H     2.7672020    0.8083111   -0.3563632 
H     4.4256326    1.0038810    0.2812672 
H     2.8865427    1.4957249   -4.0089900 
H     2.1379794    0.7594469   -2.5682420 
H     1.9688332    2.5046634   -2.8576278 
H    -3.6741254    0.1220045    1.5046313 
H    -2.0745649   -0.3798479    0.8903819 
H    -3.5454278   -1.2920420    0.4269807 
