85
Energy =
C     0.1452128    2.7734951    0.6166832 
C     0.0791089    2.0375693    1.8286244 
C     1.1325320    1.1511568    2.1975280 
H    -0.8641850    2.0080293    2.3874417 
Pd    0.3088056    0.5614975    0.2228521 
P     0.8624430   -1.7045615    0.1517923 
P    -0.5778978    0.2901890   -1.9154043 
H     1.1479451    2.9863887    0.2153662 
H     2.1450779    1.4064522    1.8500393 
C    -2.9440948    5.2330393   -1.1036783 
C    -1.6381775    5.2537761   -1.6158816 
C    -0.6435871    4.4580209   -1.0334979 
C    -0.9323192    3.6174461    0.0662427 
C    -2.2500260    3.6190765    0.5798927 
C    -3.2419220    4.4183479    0.0018856 
H    -3.7233501    5.8566160   -1.5533775 
H    -1.3907020    5.8989592   -2.4652595 
H     0.3777874    4.4881889   -1.4275490 
H    -2.5084725    2.9862069    1.4352219 
H    -4.2556026    4.4067470    0.4156031 
C     1.0568348   -1.6755184    5.4484539 
C     2.2716752   -1.2832366    4.8664375 
C     2.2821551   -0.3475059    3.8235135 
C     1.0790767    0.2095509    3.3335161 
C    -0.1384630   -0.2000817    3.9265104 
C    -0.1469143   -1.1246620    4.9765245 
H     1.0460279   -2.4035924    6.2657139 
H     3.2158474   -1.7007109    5.2312872 
H     3.2359121   -0.0377375    3.3813552 
H    -1.0905655    0.1899026    3.5514091 
H    -1.0992933   -1.4247330    5.4256143 
C     0.4932998   -2.8842431    1.5595681 
C     2.6763755   -2.2240303   -0.0252783 
C    -0.4065908    1.4869705   -3.3455685 
C    -2.4533075    0.0836681   -2.1163381 
C     0.0116470   -2.3789547   -1.3710320 
C     0.0888062   -1.3538886   -2.5158329 
C     1.5931418   -3.9609216    1.4327624 
C     2.9056459   -3.2240428    1.1367795 
C    -1.5738294    1.0810121   -4.2704134 
C    -2.8121079    0.9220885   -3.3764909 
C    -0.9567668   -3.3866695    1.6515763 
C     3.6951288   -1.0736662   -0.0542462 
C     0.9806840    1.5923960   -4.0045659 
C    -3.3017019    0.4698617   -0.8924337 
C    -1.2092443   -4.2454450    2.9001570 
C     3.5878562   -0.1765106   -1.2877118 
C     1.9626256    2.4771283   -3.2254166 
C    -3.1041199   -0.4131795    0.3413072 
H     0.7103734   -2.2789846    2.4607835 
H     2.7216787   -2.7689938   -0.9884447 
H    -0.6630754    2.4654601   -2.8908138 
H    -2.5968717   -0.9928929   -2.3313849 
H    -1.0419280   -2.5655905   -1.0926614 
H     0.4537447   -3.3480115   -1.6630272 
H    -0.4746399   -1.6989515   -3.4007193 
H     1.1374501   -1.1974856   -2.8271415 
H     1.6671459   -4.5556173    2.3594283 
H     1.3437839   -4.6634255    0.6132915 
H     3.7285597   -3.9163154    0.8874068 
H     3.2125994   -2.6604909    2.0377877 
H    -1.7314332    1.8489557   -5.0490001 
H    -1.3354934    0.1362882   -4.7959854 
H    -3.6597075    0.4627097   -3.9133657 
H    -3.1419017    1.9245868   -3.0454679 
H    -1.6359227   -2.5155033    1.6671769 
H    -1.2094795   -3.9718667    0.7468696 
H     3.5786523   -0.4692900    0.8653381 
H     4.7063089   -1.5199797   -0.0025610 
H     1.4078075    0.5844022   -4.1636108 
H     0.8392147    2.0141509   -5.0172991 
H    -3.0969871    1.5254425   -0.6384676 
H    -4.3625227    0.4308564   -1.2062695 
H    -2.2739000   -4.5263665    2.9690628 
H    -0.9395805   -3.6925455    3.8169705 
H    -0.6188633   -5.1775720    2.8794073 
H     3.7329547   -0.7516034   -2.2202028 
H     2.5882597    0.2971232   -1.3325102 
H     4.3373640    0.6323904   -1.2682389 
H     2.9770303    2.4244905   -3.6547494 
H     2.0270267    2.1721430   -2.1662241 
H     1.6401627    3.5325287   -3.2505775 
H    -3.7653337   -0.0970363    1.1664195 
H    -2.0576439   -0.3492551    0.7060105 
H    -3.3232445   -1.4736398    0.1210864 
