85
Energy =
C     0.2344230    2.7698608    0.6442291 
C     0.0747553    2.0357276    1.8471922 
C     1.0801907    1.1155934    2.2708568 
H    -0.8986420    2.0367757    2.3532328 
Pd    0.3441460    0.5515937    0.2535120 
P     0.9892611   -1.6783647    0.1369399 
P    -0.5375371    0.2623952   -1.8773435 
H     1.2659411    2.9351554    0.2961358 
H     2.1200318    1.3556655    2.0043089 
C    -2.6298227    5.3540945   -1.2656147 
C    -3.0446901    4.5149389   -0.2169478 
C    -2.1269862    3.6763507    0.4235953 
C    -0.7690374    3.6566328    0.0293556 
C    -0.3638840    4.5166492   -1.0181379 
C    -1.2838455    5.3554909   -1.6604191 
H    -3.3513021    6.0097792   -1.7634777 
H    -4.0918910    4.5163755    0.1029177 
H    -2.4735171    3.0247022    1.2319864 
H     0.6885401    4.5274480   -1.3245776 
H    -0.9476372    6.0159552   -2.4663160 
C     0.6820571   -1.7546161    5.4621256 
C    -0.4677999   -1.2006696    4.8739002 
C    -0.3530748   -0.2624491    3.8423829 
C     0.9180235    0.1596058    3.3853656 
C     2.0650669   -0.3996858    3.9927956 
C     1.9491540   -1.3500876    5.0161324 
H     0.5890440   -2.4938189    6.2640528 
H    -1.4608686   -1.5089611    5.2168865 
H    -1.2620501    0.1287515    3.3731162 
H     3.0590515   -0.0778625    3.6622569 
H     2.8518585   -1.7684856    5.4732839 
C     0.5033383   -2.9127464    1.4526701 
C     2.8310150   -2.1208898    0.1649620 
C    -0.6323954    1.6005681   -3.1998847 
C    -2.3522113   -0.2224974   -2.0021296 
C     0.3538261   -2.3452240   -1.4954947 
C     0.3305868   -1.2449576   -2.5729421 
C     1.6267621   -3.9698287    1.3907257 
C     2.9516523   -3.2017112    1.2739106 
C    -2.0737967    1.4985338   -3.7883266 
C    -2.6650597    0.1112742   -3.4790680 
C    -0.9452564   -3.4222723    1.3793304 
C     3.7981870   -0.9415466    0.3600462 
C     0.4970732    1.5579348   -4.2494349 
C    -3.2462771    0.5333451   -0.9958022 
C    -1.3426756   -4.2618321    2.6026310 
C     3.7666218    0.1012930   -0.7590245 
C     1.8833047    1.8857089   -3.6829810 
C    -3.1223987    0.0357195    0.4473554 
H     0.6235780   -2.3360002    2.3908199 
H     3.0237101   -2.5820931   -0.8228715 
H    -0.5379760    2.5466609   -2.6375022 
H    -2.4352903   -1.3089659   -1.8141813 
H    -0.6688423   -2.7186366   -1.3101355 
H     0.9623308   -3.2087871   -1.8167649 
H    -0.1742406   -1.5989400   -3.4888401 
H     1.3566889   -0.9462506   -2.8513780 
H     1.6149139   -4.6115704    2.2886994 
H     1.4759859   -4.6316106    0.5154099 
H     3.8052504   -3.8695429    1.0648409 
H     3.1576004   -2.6982166    2.2369447 
H    -2.7042568    2.2830395   -3.3355885 
H    -2.0573524    1.6905155   -4.8748972 
H    -2.2082691   -0.6489052   -4.1396927 
H    -3.7538817    0.0788778   -3.6641312 
H    -1.6243017   -2.5529494    1.2958032 
H    -1.0835738   -4.0243909    0.4609685 
H     3.5806509   -0.4597832    1.3312170 
H     4.8181172   -1.3613124    0.4501906 
H     0.5067098    0.5772313   -4.7622122 
H     0.2423044    2.3006760   -5.0286454 
H    -3.0277895    1.6161289   -1.0369331 
H    -4.2941111    0.4193436   -1.3329648 
H    -2.4018389   -4.5643497    2.5405834 
H    -1.2026497   -3.6864165    3.5342374 
H    -0.7363528   -5.1809168    2.6772280 
H     3.9786166   -0.3540053   -1.7432940 
H     2.7681077    0.5816389   -0.8128660 
H     4.5102206    0.8980230   -0.5877793 
H     2.6514740    1.8652376   -4.4741917 
H     2.1893158    1.1701306   -2.9006328 
H     1.8923420    2.8919316   -3.2271831 
H    -3.7598599    0.6260042    1.1275114 
H    -2.0741909    0.1160991    0.8045357 
H    -3.4243949   -1.0233076    0.5334256 
