85
Energy =
C     0.1235077    2.8105847    0.6482187 
C    -0.0388361    2.0460317    1.8278779 
C     0.9994169    1.1589995    2.2590929 
H    -1.0249039    1.9938865    2.3067186 
Pd    0.3313637    0.5944250    0.2235749 
P     1.1859188   -1.5547213    0.0331866 
P    -0.7662333    0.2401790   -1.7963314 
H     1.1570941    2.9639872    0.2981807 
H     2.0349726    1.4714771    2.0627524 
C    -2.7006185    5.4214141   -1.2811500 
C    -1.4240852    5.2109134   -1.8255488 
C    -0.5146785    4.3705131   -1.1726990 
C    -0.8636004    3.7127843    0.0306254 
C    -2.1437544    3.9559071    0.5797582 
C    -3.0511007    4.7985971   -0.0716907 
H    -3.4131477    6.0812838   -1.7862163 
H    -1.1339819    5.7101339   -2.7558250 
H     0.4866856    4.2197208   -1.5925877 
H    -2.4315721    3.4951860    1.5302044 
H    -4.0363097    4.9780476    0.3707322 
C     0.5701497   -1.8482298    5.3212076 
C    -0.5641055   -1.3773397    4.6385529 
C    -0.4376154   -0.3914878    3.6535051 
C     0.8275056    0.1568697    3.3329145 
C     1.9564818   -0.3178795    4.0375795 
C     1.8304309   -1.3119026    5.0173363 
H     0.4702584   -2.6237625    6.0872326 
H    -1.5526322   -1.7877826    4.8698664 
H    -1.3288502   -0.0645557    3.1075010 
H     2.9434187    0.1057317    3.8207213 
H     2.7195095   -1.6623106    5.5518637 
C     0.5822000   -2.9026460    1.1837825 
C     3.0228183   -1.9285700    0.2914630 
C    -0.4531976    1.2834179   -3.3330483 
C    -2.6475003    0.4533111   -1.8547961 
C     0.8320389   -2.1140672   -1.7210751 
C    -0.5131738   -1.5696017   -2.2274250 
C     1.7684251   -3.8891047    1.2436943 
C     3.0449711   -3.0467166    1.3659939 
C    -1.8327480    1.3692545   -4.0202906 
C    -2.8766268    1.5571316   -2.9120983 
C    -0.7912528   -3.5037239    0.8436817 
C     3.9081935   -0.7245931    0.6558693 
C     0.7129777    0.8577410   -4.2359842 
C    -3.3256296    0.7237329   -0.5035098 
C    -1.3080635   -4.4576489    1.9313620 
C     3.9718359    0.3823198   -0.3986411 
C     2.0901037    1.0080286   -3.5821073 
C    -3.1885217   -0.4056062    0.5209374 
H     0.5092388   -2.3848836    2.1606553 
H     3.3594863   -2.3448153   -0.6782928 
H    -0.2296015    2.2808775   -2.9066389 
H    -3.0191646   -0.5078205   -2.2632427 
H     0.8672916   -3.2169974   -1.7791615 
H     1.6658169   -1.7301290   -2.3357141 
H    -1.3484471   -2.1007833   -1.7370692 
H    -0.6276832   -1.7211917   -3.3157318 
H     1.6609609   -4.5831299    2.0951302 
H     1.7923728   -4.5056192    0.3233295 
H     3.9598224   -3.6560677    1.2650055 
H     3.0706274   -2.5777012    2.3672862 
H    -1.8457730    2.1989878   -4.7494601 
H    -2.0325603    0.4372658   -4.5845353 
H    -3.9102538    1.5087871   -3.2970199 
H    -2.7466084    2.5503503   -2.4418129 
H    -1.5197126   -2.6848775    0.7096171 
H    -0.7330844   -4.0405045   -0.1230068 
H     3.5564466   -0.3095354    1.6176175 
H     4.9264254   -1.1130354    0.8480658 
H     0.5608280   -0.1831052   -4.5813083 
H     0.6691350    1.4813451   -5.1490495 
H    -2.9172482    1.6614884   -0.0877540 
H    -4.3967381    0.9173336   -0.7026429 
H    -2.3177911   -4.8248200    1.6806365 
H    -1.3629129   -3.9437451    2.9075857 
H    -0.6518369   -5.3371630    2.0474350 
H     4.3273944   -0.0026062   -1.3708242 
H     2.9717063    0.8315789   -0.5579337 
H     4.6548326    1.1899254   -0.0846476 
H     2.8965623    0.6964291   -4.2669539 
H     2.1687200    0.3977507   -2.6662300 
H     2.2793723    2.0562734   -3.2893397 
H    -3.7246658   -0.1631613    1.4546146 
H    -2.1237143   -0.5683376    0.7801116 
H    -3.5967823   -1.3577238    0.1363160 
