85
Energy =
C     0.1144902    2.7062559    0.6530604 
C     0.0609152    1.9625888    1.8531491 
C     1.1246292    1.0785685    2.2209793 
H    -0.8813361    1.9206320    2.4141089 
Pd    0.3153143    0.4722969    0.2515099 
P     1.2219229   -1.6614071    0.0961397 
P    -0.8018974    0.0578553   -1.7700947 
H     1.1051438    2.8551557    0.1947625 
H     2.1452230    1.3815452    1.9478116 
C    -2.9713044    5.2215721   -0.9737487 
C    -1.8113126    4.9375007   -1.7127784 
C    -0.8060410    4.1381857   -1.1572787 
C    -0.9464378    3.5892207    0.1388790 
C    -2.1063893    3.9072327    0.8816351 
C    -3.1074165    4.7138288    0.3286559 
H    -3.7572617    5.8508941   -1.4032865 
H    -1.6870969    5.3492432   -2.7197620 
H     0.1038237    3.9263767   -1.7305767 
H    -2.2284958    3.5280254    1.9008257 
H    -3.9979885    4.9526789    0.9188872 
C     0.8577454   -1.7830227    5.4377193 
C    -0.3002277   -1.4016792    4.7391335 
C    -0.2219971   -0.4663807    3.7014257 
C     1.0160514    0.1170402    3.3412098 
C     2.1688891   -0.2671057    4.0610221 
C     2.0915224   -1.2094236    5.0957449 
H     0.7966534   -2.5187806    6.2459400 
H    -1.2680162   -1.8434267    4.9990934 
H    -1.1273690   -0.2075346    3.1413777 
H     3.1343913    0.1897063    3.8170206 
H     2.9976153   -1.4893926    5.6430310 
C     0.6378551   -3.0500692    1.2232177 
C     3.0672833   -2.0265579    0.3540788 
C    -0.4786738    0.9616983   -3.3865722 
C    -2.6886957    0.2076119   -1.9184853 
C     0.9018712   -2.2170584   -1.6624385 
C    -0.4692581   -1.7490809   -2.1747547 
C     1.8375568   -4.0196062    1.2512514 
C     3.1014559   -3.1673978    1.4024914 
C    -1.7150310    0.5988685   -4.2334497 
C    -2.9483119    0.7888764   -3.3410989 
C    -0.7094232   -3.7022203    0.8801645 
C     3.9668293   -0.8414385    0.7419011 
C     0.8732495    0.7107247   -4.0680111 
C    -3.3753417    1.0691799   -0.8410205 
C    -1.9167046   -2.7808912    1.0719098 
C     4.0537335    0.2874049   -0.2856020 
C     2.0752555    1.2173713   -3.2676920 
C    -3.3282546    0.5330351    0.5900542 
H     0.5605005   -2.5612872    2.2148223 
H     3.3985362   -2.4227965   -0.6259671 
H    -0.5518870    2.0310848   -3.1051399 
H    -3.0626349   -0.8316603   -1.8529717 
H     1.0063360   -3.3149984   -1.7384787 
H     1.7143441   -1.7710845   -2.2651390 
H    -1.2792339   -2.3290364   -1.7002055 
H    -0.5582532   -1.9093348   -3.2639736 
H     1.7261989   -4.7427339    2.0788192 
H     1.8715783   -4.6067501    0.3123330 
H     4.0251539   -3.7611623    1.2894826 
H     3.1180575   -2.7214251    2.4147130 
H    -1.7647879    1.2340924   -5.1362308 
H    -1.6356465   -0.4470239   -4.5879268 
H    -3.8539207    0.3380413   -3.7813130 
H    -3.1440701    1.8720094   -3.2365470 
H    -0.6805718   -4.0985913   -0.1535698 
H    -0.8195252   -4.5901865    1.5309945 
H     3.6246656   -0.4444423    1.7135549 
H     4.9779949   -1.2525480    0.9248167 
H     0.9842751   -0.3689822   -4.2883873 
H     0.8451856    1.2112876   -5.0543654 
H    -2.9440439    2.0848051   -0.8762817 
H    -4.4322842    1.1807659   -1.1512882 
H    -2.8548166   -3.2785472    0.7731905 
H    -1.8140388   -1.8573829    0.4763418 
H    -2.0140520   -2.4717898    2.1265595 
H     4.3883681   -0.0834142   -1.2706694 
H     3.0675892    0.7693442   -0.4237405 
H     4.7634229    1.0664125    0.0411709 
H     3.0236472    1.0217790   -3.7956541 
H     2.1283447    0.7265610   -2.2810686 
H     2.0053032    2.3054067   -3.0887891 
H    -3.8292567    1.2319478    1.2811725 
H    -2.2818579    0.4103899    0.9318216 
H    -3.8277587   -0.4474506    0.6763732 
