85
Energy =
C    -0.5920361   -1.2797765    2.4140435 
C     0.1265190   -0.0935268    2.7184356 
C    -0.4593266    1.1855238    2.4902695 
H     1.1956023   -0.1579479    2.9555288 
Pd   -0.3821978    0.0123775    0.5868428 
P    -0.4429177    1.6572930   -1.0516315 
P    -0.2278044   -1.5113798   -1.1558371 
H    -1.6908953   -1.2080925    2.4120162 
H    -1.5535988    1.2559587    2.5728899 
C     0.8335227   -5.3425442    2.5555590 
C    -0.5273187   -5.0621557    2.3623855 
C    -0.9735114   -3.7344291    2.3367639 
C    -0.0703897   -2.6569115    2.4956951 
C     1.2948544   -2.9580870    2.7107305 
C     1.7397846   -4.2840549    2.7386978 
H     1.1856669   -6.3787269    2.5784567 
H    -1.2453342   -5.8796474    2.2397900 
H    -2.0404143   -3.5218134    2.2008845 
H     2.0192158   -2.1518969    2.8650120 
H     2.8007100   -4.4949341    2.9083940 
C     1.5602601    4.9853815    2.7102638 
C     0.1616056    4.9103134    2.7906122 
C    -0.4802740    3.6659158    2.7402321 
C     0.2599031    2.4695125    2.5992420 
C     1.6697727    2.5617251    2.5218970 
C     2.3106090    3.8039938    2.5830201 
H     2.0642318    5.9561498    2.7517662 
H    -0.4321518    5.8235428    2.9019254 
H    -1.5719352    3.6148117    2.8210863 
H     2.2709681    1.6564286    2.3863357 
H     3.4029092    3.8535408    2.5227628 
C    -1.1351590   -3.1495057   -1.2146231 
C     1.4877816   -2.2547894   -1.4224241 
C     0.4769516    3.3009479   -0.9179039 
C    -2.1122418    2.4307956   -1.4434633 
C    -0.6066565   -0.5762251   -2.7296914 
C     0.0247217    0.8269963   -2.6676682 
C    -0.1146217   -4.1192433   -1.8486753 
C     1.2624146   -3.7783880   -1.2611646 
C    -0.5731074    4.3863134   -1.3051543 
C    -1.6965089    3.7467892   -2.1401416 
C    -2.5342467   -3.1363263   -1.8469878 
C     2.5755914   -1.6471619   -0.5199630 
C     1.7938835    3.3689941   -1.7191126 
C    -2.9658826    2.6458337   -0.1739982 
C    -3.5402856   -2.2478459   -1.1054292 
C     3.9658142   -2.2561949   -0.7424685 
C     2.9006139    2.4603007   -1.1719710 
C    -3.6385900    1.3724078    0.3456586 
H    -1.2287923   -3.4174578   -0.1441199 
H     1.7330567   -2.0436368   -2.4824754 
H     0.7272627    3.3958583    0.1526599 
H    -2.6531141    1.7622593   -2.1390529 
H    -1.7061212   -0.5024591   -2.8107956 
H    -0.2468933   -1.1405816   -3.6083666 
H    -0.2982530    1.4480889   -3.5216180 
H     1.1256908    0.7577345   -2.7082785 
H    -0.4021675   -5.1658374   -1.6438901 
H    -0.1064554   -3.9926890   -2.9489694 
H     2.0708773   -4.3456121   -1.7531190 
H     1.2825601   -4.0393301   -0.1857679 
H    -0.9944151    4.8238475   -0.3835245 
H    -0.0861619    5.2096341   -1.8553517 
H    -1.3308696    3.5313378   -3.1616225 
H    -2.5642872    4.4220140   -2.2496169 
H    -2.4624615   -2.8348328   -2.9096281 
H    -2.9015887   -4.1799967   -1.8572037 
H     2.6157384   -0.5560830   -0.6932189 
H     2.2706470   -1.7787820    0.5340708 
H     1.6051138    3.1602276   -2.7896170 
H     2.1419641    4.4180198   -1.6770338 
H    -2.3407537    3.0937476    0.6210515 
H    -3.7409209    3.3987910   -0.4119869 
H    -4.5409342   -2.3063913   -1.5654048 
H    -3.2286655   -1.1881027   -1.1121251 
H    -3.6343772   -2.5525547   -0.0475647 
H     3.9843599   -3.3280866   -0.4794962 
H     4.2813368   -2.1609369   -1.7973393 
H     4.7193372   -1.7460902   -0.1181124 
H     2.5907721    1.3994580   -1.1487336 
H     3.1574361    2.7429871   -0.1369127 
H     3.8142017    2.5301615   -1.7860239 
H    -4.1903500    1.5648096    1.2815717 
H    -2.8868948    0.5827969    0.5517441 
H    -4.3523793    0.9674445   -0.3930167 
