85
Energy =
C    -0.5259435   -1.2863440    2.4783740 
C     0.2665665   -0.1448659    2.7712380 
C    -0.2524037    1.1623464    2.5289190 
H     1.3317699   -0.2682397    3.0030218 
Pd   -0.2520557   -0.0094627    0.6485418 
P    -0.2790205    1.6720055   -0.9608667 
P    -0.2856065   -1.5272547   -1.1134603 
H    -1.6179548   -1.1445557    2.4891700 
H    -1.3407151    1.2900581    2.6290268 
C     0.6319110   -5.4327431    2.5709381 
C    -0.7145922   -5.0634116    2.4368502 
C    -1.0728001   -3.7090634    2.4286773 
C    -0.0938880   -2.6943387    2.5468450 
C     1.2567163   -3.0842259    2.7014721 
C     1.6135657   -4.4366364    2.7126141 
H     0.9159000   -6.4898693    2.5791808 
H    -1.4895739   -5.8315040    2.3451777 
H    -2.1280635   -3.4265493    2.3360700 
H     2.0382531   -2.3257480    2.8144232 
H     2.6647253   -4.7178852    2.8339321 
C     1.9592674    4.8571313    2.6477564 
C     2.6451860    3.6389952    2.5004134 
C     1.9416218    2.4304037    2.4692718 
C     0.5329386    2.4105220    2.5999915 
C    -0.1433744    3.6428220    2.7479679 
C     0.5616362    4.8538399    2.7694266 
H     2.5125903    5.8014098    2.6668434 
H     3.7354691    3.6338012    2.3999387 
H     2.4907377    1.4947772    2.3177248 
H    -1.2345807    3.6471401    2.8512765 
H     0.0182081    5.7969036    2.8885482 
C    -1.3715748   -3.0501840   -1.1189617 
C     1.3116153   -2.4538587   -1.5355477 
C     0.8069032    3.1974713   -0.9274628 
C    -1.9012389    2.6259260   -1.1851624 
C    -0.7092363   -0.5302581   -2.6385710 
C     0.0202059    0.8239702   -2.6021086 
C    -0.5545226   -4.0918458   -1.9141071 
C     0.9058459   -3.9488112   -1.4657917 
C    -0.0404219    4.2550396   -1.6688114 
C    -1.4782602    4.1189129   -1.1512300 
C    -2.8291539   -2.8346140   -1.5597534 
C     2.5345237   -2.1221314   -0.6644468 
C     2.2528259    3.0077660   -1.4152107 
C    -3.0129802    2.2956247   -0.1739379 
C    -3.7103553   -4.0694263   -1.3168233 
C     3.0338665   -0.6798273   -0.7685564 
C     3.0998724    4.2812863   -1.2710288 
C    -3.5609060    0.8693457   -0.2618631 
H    -1.3634467   -3.3588155   -0.0547884 
H     1.5263504   -2.1830777   -2.5882314 
H     0.8330527    3.4686557    0.1459267 
H    -2.2498579    2.3641980   -2.2031763 
H    -1.8041742   -0.3800291   -2.6250148 
H    -0.4623623   -1.0983846   -3.5531622 
H    -0.2966287    1.4767853   -3.4347807 
H     1.1114500    0.6772771   -2.6910360 
H    -0.9337836   -5.1122026   -1.7312688 
H    -0.6512031   -3.8971016   -3.0002334 
H     1.5932105   -4.5587339   -2.0774926 
H     1.0020756   -4.2973438   -0.4194821 
H     0.3546288    5.2696776   -1.4885649 
H     0.0034814    4.0785089   -2.7614741 
H    -2.1915716    4.7319791   -1.7288394 
H    -1.5162959    4.4738199   -0.1039877 
H    -3.2532068   -1.9739830   -1.0101708 
H    -2.8549054   -2.5668774   -2.6332283 
H     2.2908012   -2.3603385    0.3865810 
H     3.3437711   -2.8178125   -0.9573738 
H     2.7213144    2.1944779   -0.8329229 
H     2.2539721    2.6843729   -2.4735644 
H    -2.6353471    2.4924248    0.8477488 
H    -3.8346665    3.0180640   -0.3396134 
H    -4.7563399   -3.8649798   -1.6014045 
H    -3.6986284   -4.3593454   -0.2505466 
H    -3.3667793   -4.9366293   -1.9065279 
H     3.2791337   -0.4049868   -1.8105984 
H     2.2623124    0.0239591   -0.3986431 
H     3.9408765   -0.5266370   -0.1590590 
H     3.0911527    4.6410929   -0.2272920 
H     2.7254607    5.0951835   -1.9153143 
H     4.1469473    4.0844696   -1.5575970 
H    -4.3824925    0.7106781    0.4570933 
H    -2.7650193    0.1320530   -0.0289778 
H    -3.9467814    0.6457569   -1.2729117 
