85
Energy =
C    -0.5608386   -1.2099643    2.4864340 
C     0.1624133   -0.0216141    2.7775491 
C    -0.4233377    1.2546758    2.5382031 
H     1.2333611   -0.0860381    3.0056185 
Pd   -0.3764849    0.0702374    0.6542440 
P    -0.3826422    1.7201025   -0.9784851 
P    -0.3807681   -1.4521807   -1.0981549 
H    -1.6596376   -1.1429774    2.5165955 
H    -1.5192738    1.3216495    2.6149918 
C     0.9008077   -5.2618489    2.5940056 
C    -0.4718473   -4.9937969    2.4868116 
C    -0.9298304   -3.6697088    2.4713428 
C    -0.0268081   -2.5837645    2.5532387 
C     1.3528576   -2.8720146    2.6747785 
C     1.8091395   -4.1941396    2.6961411 
H     1.2618579   -6.2950853    2.6094480 
H    -1.1900799   -5.8179153    2.4245792 
H    -2.0054284   -3.4677724    2.4062793 
H     2.0803453   -2.0578465    2.7554443 
H     2.8811505   -4.3948087    2.7931437 
C     1.5683656    5.0724054    2.6934700 
C     0.1679689    4.9905963    2.7194617 
C    -0.4641470    3.7405835    2.6900998 
C     0.2877964    2.5451697    2.6244711 
C     1.6988439    2.6441203    2.5945781 
C     2.3295653    3.8923778    2.6370428 
H     2.0651760    6.0473526    2.7205451 
H    -0.4349738    5.9030990    2.7717529 
H    -1.5582298    3.6846824    2.7222373 
H     2.3113697    1.7393680    2.5202892 
H     3.4230146    3.9468342    2.6198602 
C    -1.3636382   -3.0429319   -1.0660286 
C     1.2786432   -2.2592124   -1.4704203 
C     0.7645846    3.1934619   -0.9200239 
C    -1.9602157    2.7337039   -1.2284537 
C    -0.8308095   -0.4933489   -2.6364892 
C    -0.0936363    0.8575317   -2.6152912 
C    -0.4024353   -4.0929368   -1.6708310 
C     1.0160001   -3.7577470   -1.1831805 
C    -0.0351605    4.3062714   -1.6329770 
C    -1.4830705    4.2073072   -1.1294224 
C    -2.7730790   -2.9617456   -1.6782584 
C     2.4596168   -1.6256037   -0.7118839 
C     2.1962195    2.9299393   -1.4160501 
C    -3.1191969    2.3951376   -0.2753023 
C    -3.5936136   -4.2396946   -1.4477921 
C     3.8038233   -2.3110561   -0.9899528 
C     3.1366122    4.1205936   -1.1773564 
C    -3.6885726    0.9821997   -0.4364314 
H    -1.4557430   -3.2581654    0.0160462 
H     1.4322131   -2.1310042   -2.5607572 
H     0.8077604    3.4385926    0.1589752 
H    -2.2758040    2.5210247   -2.2685004 
H    -1.9253668   -0.3432278   -2.6230532 
H    -0.5826859   -1.0767742   -3.5409079 
H    -0.4096346    1.5070947   -3.4507633 
H     0.9960328    0.7013659   -2.7109449 
H    -0.7003790   -5.1128564   -1.3726041 
H    -0.4482551   -4.0476508   -2.7766712 
H     1.7758233   -4.3885106   -1.6753637 
H     1.0895293   -3.9421223   -0.0945765 
H     0.3962367    5.2994080   -1.4190633 
H     0.0087517    4.1608683   -2.7302142 
H    -2.1666564    4.8692001   -1.6889068 
H    -1.5162108    4.5224195   -0.0695776 
H    -3.3120580   -2.0999310   -1.2400626 
H    -2.6924530   -2.7637105   -2.7641632 
H     2.5257803   -0.5540271   -0.9808292 
H     2.2378949   -1.6563768    0.3711212 
H     2.5953712    2.0381470   -0.8948135 
H     2.1787996    2.6861663   -2.4953661 
H    -2.7800796    2.5475960    0.7668694 
H    -3.9205397    3.1382567   -0.4487242 
H    -4.6109487   -4.1306271   -1.8601028 
H    -3.6857356   -4.4611731   -0.3691741 
H    -3.1269497   -5.1136528   -1.9338282 
H     3.8039439   -3.3563702   -0.6355462 
H     4.0339190   -2.3197764   -2.0707338 
H     4.6247855   -1.7835603   -0.4746669 
H     3.1597441    4.3934210   -0.1079075 
H     2.8157276    5.0093872   -1.7475934 
H     4.1648200    3.8748253   -1.4927535 
H    -4.5414828    0.8158165    0.2430934 
H    -2.9189843    0.2192569   -0.1985799 
H    -4.0389442    0.8030226   -1.4692279 
