85
Energy =
C    -0.4209391   -1.1550405    2.4278191 
C     0.2438665    0.0617450    2.7454421 
C    -0.4032558    1.3100825    2.5252985 
H     1.3139898    0.0439607    2.9848530 
Pd   -0.2772781    0.1593405    0.6173053 
P    -0.3219436    1.8399149   -0.9837812 
P    -0.3388701   -1.3490114   -1.1543923 
H    -1.5216058   -1.1405679    2.4583150 
H    -1.5030592    1.3121644    2.5718529 
C     1.2286824   -5.1342722    2.5349754 
C    -0.1573649   -4.9312816    2.4610795 
C    -0.6766136   -3.6301654    2.4409907 
C     0.1768117   -2.5030193    2.4870027 
C     1.5713113   -2.7254453    2.5723630 
C     2.0891210   -4.0246357    2.5968562 
H     1.6375934   -6.1494468    2.5525558 
H    -0.8376990   -5.7884806    2.4277214 
H    -1.7617694   -3.4794019    2.4028728 
H     2.2616498   -1.8769006    2.6177047 
H     3.1717241   -4.1742889    2.6637552 
C     1.3397356    5.2415926    2.7821267 
C    -0.0523181    5.0735960    2.7262560 
C    -0.6028898    3.7870325    2.6682675 
C     0.2233765    2.6396197    2.6557608 
C     1.6233400    2.8252105    2.7238551 
C     2.1731011    4.1104866    2.7888186 
H     1.7732934    6.2455435    2.8297115 
H    -0.7123943    5.9471732    2.7355864 
H    -1.6913533    3.6644335    2.6350291 
H     2.2926720    1.9590572    2.7109396 
H     3.2600975    4.2319887    2.8416627 
C    -1.4588290   -2.8556719   -1.0911788 
C     1.2348883   -2.3054415   -1.5426678 
C     0.7674038    3.3675269   -0.9321206 
C    -1.9396344    2.7962547   -1.2304246 
C    -0.7447981   -0.3486865   -2.6811507 
C    -0.0036466    0.9997203   -2.6264517 
C    -0.5738006   -4.0152042   -1.6074713 
C     0.8668975   -3.7541598   -1.1462877 
C    -0.0860417    4.4429671   -1.6386434 
C    -1.5254786    4.2879593   -1.1316039 
C    -2.8292754   -2.7011547   -1.7743945 
C     2.4974463   -1.7251045   -0.8815352 
C     2.1947757    3.1988372   -1.4744553 
C    -3.0872658    2.4197567   -0.2777249 
C    -3.7484060   -3.9091198   -1.5382068 
C     3.7471641   -2.5957339   -1.0656599 
C     3.0606261    2.2343785   -0.6557495 
C    -3.6188008    0.9935330   -0.4402387 
H    -1.6156244   -3.0055153   -0.0059778 
H     1.3433686   -2.2619732   -2.6449880 
H     0.8193222    3.6143131    0.1465113 
H    -2.2465781    2.5707103   -2.2704863 
H    -1.8382240   -0.1902551   -2.6849372 
H    -0.4866569   -0.9158781   -3.5929106 
H    -0.3038193    1.6602249   -3.4593726 
H     1.0874109    0.8429508   -2.7041548 
H    -0.9469865   -4.9843957   -1.2345214 
H    -0.6185814   -4.0491671   -2.7136090 
H     1.5738788   -4.4712990   -1.5971524 
H     0.9389940   -3.8687264   -0.0486812 
H     0.3157278    5.4501793   -1.4288302 
H    -0.0414803    4.2981852   -2.7357770 
H    -2.2372667    4.9201692   -1.6903035 
H    -1.5698600    4.6013632   -0.0719150 
H    -3.3276824   -1.7890685   -1.3973018 
H    -2.6826362   -2.5547824   -2.8615445 
H     2.6857856   -0.7193639   -1.2988428 
H     2.2974679   -1.5793008    0.1963991 
H     2.1557242    2.8852346   -2.5351068 
H     2.6656260    4.2000325   -1.4794302 
H    -2.7520270    2.5786199    0.7642106 
H    -3.9085890    3.1414088   -0.4482229 
H    -4.7350367   -3.7445797   -2.0033604 
H    -3.9066059   -4.0807593   -0.4581472 
H    -3.3247490   -4.8323511   -1.9692902 
H     3.6402257   -3.5667332   -0.5517131 
H     3.9454445   -2.7958451   -2.1341412 
H     4.6351913   -2.0919945   -0.6468994 
H     2.5780761    1.2445638   -0.5555520 
H     3.2175272    2.6230528    0.3638813 
H     4.0484093    2.0869069   -1.1238608 
H    -4.4652080    0.8025179    0.2410099 
H    -2.8277672    0.2526452   -0.2051568 
H    -3.9670380    0.8072687   -1.4724634 
