85
Energy =
C    -0.5864099   -1.2247832    2.4135754 
C     0.1439671   -0.0491233    2.7225374 
C    -0.4057551    1.2370972    2.4414779 
H     1.1999630   -0.1302454    3.0083181 
Pd   -0.2835046    0.0494957    0.5693205 
P    -0.4085777    1.7473367   -1.0263910 
P    -0.1842845   -1.4525594   -1.2090753 
H    -1.6811505   -1.1277181    2.3470618 
H    -1.4999199    1.3324287    2.4992761 
C     0.7373724   -5.3087090    2.7309169 
C    -0.6005962   -5.0061582    2.4361540 
C    -1.0149607   -3.6710938    2.3530335 
C    -0.1018995   -2.6091959    2.5542745 
C     1.2371357   -2.9315862    2.8735165 
C     1.6506560   -4.2649287    2.9575504 
H     1.0650542   -6.3509582    2.7992049 
H    -1.3251264   -5.8118705    2.2788097 
H    -2.0633151   -3.4392971    2.1338919 
H     1.9656442   -2.1363617    3.0562517 
H     2.6922537   -4.4936911    3.2057729 
C     1.7091832    4.9891607    2.5941319 
C     2.4283582    3.7862350    2.4908529 
C     1.7545014    2.5604699    2.4563536 
C     0.3430516    2.5070489    2.5341662 
C    -0.3655369    3.7241570    2.6508743 
C     0.3090904    4.9521588    2.6767699 
H     2.2382631    5.9471651    2.6156577 
H     3.5214781    3.8054083    2.4287828 
H     2.3305766    1.6359232    2.3424103 
H    -1.4583583    3.7047019    2.7289467 
H    -0.2606602    5.8826372    2.7694242 
C    -0.9119061   -3.1921877   -1.2707783 
C     1.5232822   -2.0208983   -1.7505329 
C     0.7309398    3.2429591   -1.0789017 
C    -2.0085312    2.7712736   -1.1131154 
C    -0.8559941   -0.5008955   -2.6766043 
C    -0.2627542    0.9188310   -2.7018345 
C     0.1220152   -4.0604011   -2.0604479 
C     1.1764598   -3.1596175   -2.7338841 
C    -0.1453412    4.3519497   -1.6988041 
C    -1.5351175    4.2471653   -1.0636467 
C    -2.3524578   -3.2966180   -1.8094688 
C     2.3672790   -2.5112842   -0.5494250 
C     2.0921683    3.0523857   -1.7637267 
C    -3.0778478    2.4604083   -0.0535321 
C    -3.4080727   -2.6219394   -0.9291940 
C     3.0195002   -1.3996733    0.2754439 
C     2.9633929    1.9607130   -1.1388835 
C    -3.6492693    1.0445718   -0.1104044 
H    -0.9184274   -3.5096968   -0.2121964 
H     2.0442487   -1.1899036   -2.2602957 
H     0.8954431    3.4770576   -0.0088904 
H    -2.4225903    2.5508517   -2.1163214 
H    -1.9538834   -0.4619967   -2.5550495 
H    -0.6480941   -1.0336027   -3.6208638 
H    -0.7462784    1.5410166   -3.4756406 
H     0.8137038    0.8766257   -2.9451354 
H     0.6156338   -4.7563057   -1.3610488 
H    -0.3981054   -4.6801738   -2.8105246 
H     0.7744414   -2.7386470   -3.6735515 
H     2.0832277   -3.7286983   -3.0073568 
H     0.3111265    5.3426764   -1.5254295 
H    -0.2061716    4.2109296   -2.7956716 
H    -2.2736622    4.9007573   -1.5595940 
H    -1.4732591    4.5647883   -0.0062813 
H    -2.3977592   -2.9026261   -2.8429665 
H    -2.5866887   -4.3746873   -1.8921745 
H     1.7491641   -3.1457965    0.1129586 
H     3.1567242   -3.1739521   -0.9525302 
H     1.9388712    2.8537840   -2.8419418 
H     2.6200559    4.0233822   -1.7136064 
H    -2.6534455    2.6561976    0.9482610 
H    -3.8928456    3.1971800   -0.1859416 
H    -4.4173966   -2.7380485   -1.3584932 
H    -3.2142981   -1.5428872   -0.8142078 
H    -3.4182208   -3.0635958    0.0828304 
H     3.7323652   -0.8152807   -0.3307414 
H     2.2574127   -0.6983849    0.6706244 
H     3.5716522   -1.8229458    1.1310554 
H     2.4622869    0.9782130   -1.1841343 
H     3.1621982    2.1734324   -0.0750123 
H     3.9316583    1.8719645   -1.6597505 
H    -4.4398259    0.8970169    0.6448358 
H    -2.8516258    0.3007693    0.0908224 
H    -4.0818750    0.8206993   -1.1021438 
