85
Energy =
C    -0.3197615   -1.2241097    2.4794466 
C     0.3356438    0.0015457    2.7391329 
C    -0.3066458    1.2483666    2.4664605 
H     1.4059464   -0.0051221    2.9800409 
Pd   -0.1841609    0.0528357    0.6006061 
P    -0.5258599    1.7263253   -0.9726508 
P     0.0178172   -1.4454257   -1.1791952 
H    -1.4188631   -1.2010559    2.4088060 
H    -1.3982990    1.2846410    2.5922492 
C     1.3090594   -5.1813939    2.9230592 
C     0.0249459   -4.9878106    2.3888578 
C    -0.4964231   -3.6945525    2.2708749 
C     0.2592024   -2.5661508    2.6664022 
C     1.5415961   -2.7782870    3.2227163 
C     2.0586617   -4.0725051    3.3487433 
H     1.7178639   -6.1919859    3.0216553 
H    -0.5740224   -5.8482439    2.0729923 
H    -1.5032775   -3.5478072    1.8629270 
H     2.1423065   -1.9293555    3.5633884 
H     3.0521318   -4.2184371    3.7848574 
C     1.6525154    5.0873652    2.5803039 
C     2.4058554    3.9233943    2.3523131 
C     1.7803355    2.6721599    2.3228319 
C     0.3855523    2.5530401    2.5296440 
C    -0.3563642    3.7312083    2.7685683 
C     0.2692728    4.9850338    2.7907397 
H     2.1425103    6.0660082    2.5987745 
H     3.4862236    3.9932165    2.1875092 
H     2.3771932    1.7789111    2.1090335 
H    -1.4346162    3.6612392    2.9502434 
H    -0.3251679    5.8844799    2.9819885 
C    -1.3876184   -2.6345066   -1.5433402 
C     1.3826441   -2.7436214   -1.3940743 
C     0.6869192    3.1518650   -1.1431050 
C    -2.0619359    2.8338298   -0.9238371 
C     0.2048562   -0.3862402   -2.7166869 
C    -0.6456272    0.8896617   -2.6443550 
C    -0.7152110   -3.7489384   -2.3731713 
C     0.6266674   -4.0646585   -1.6989337 
C    -0.1864234    4.3067951   -1.6782948 
C    -1.5040257    4.2779000   -0.8931296 
C    -2.6522645   -2.0022018   -2.1482972 
C     2.3821684   -2.8964587   -0.2353967 
C     1.9655257    2.8650453   -1.9438329 
C    -3.0731738    2.5299358    0.1928587 
C    -3.8325796   -2.9812981   -2.2368557 
C     3.1574045   -1.6335497    0.1452567 
C     2.9142909    1.8723696   -1.2645186 
C    -3.6919022    1.1302792    0.1371706 
H    -1.6376742   -3.0473191   -0.5456413 
H     1.9248102   -2.4111842   -2.3006511 
H     0.9627655    3.3830573   -0.0956322 
H    -2.5492323    2.6591698   -1.9031833 
H    -0.0414767   -0.9831551   -3.6134926 
H     1.2790736   -0.1360454   -2.7797941 
H    -1.7152920    0.6489298   -2.7750891 
H    -0.3749259    1.6036450   -3.4431892 
H    -1.3583227   -4.6444242   -2.4308984 
H    -0.5600915   -3.3980069   -3.4124749 
H     1.2552420   -4.7312082   -2.3145069 
H     0.4376958   -4.5873135   -0.7425136 
H     0.3411741    5.2703176   -1.5632480 
H    -0.3757146    4.1684071   -2.7611629 
H    -2.2492602    4.9846619   -1.2977575 
H    -1.3075317    4.5682205    0.1555476 
H    -2.9499583   -1.1314930   -1.5364829 
H    -2.4191923   -1.6165469   -3.1592740 
H     1.8445155   -3.2830496    0.6461639 
H     3.0937215   -3.6917535   -0.5292035 
H     1.7012382    2.5156816   -2.9608052 
H     2.4872821    3.8296801   -2.0903542 
H    -2.5813477    2.6869314    1.1695598 
H    -3.8732879    3.2917694    0.1304144 
H    -4.7283492   -2.4761796   -2.6363363 
H    -4.0873791   -3.3847314   -1.2403915 
H    -3.6063234   -3.8336668   -2.9001661 
H     3.7252987   -1.2258584   -0.7100913 
H     2.4699610   -0.8428891    0.5045887 
H     3.8736944   -1.8467020    0.9567935 
H     2.4074657    0.9156961   -1.0461947 
H     3.2773853    2.2709420   -0.3020526 
H     3.7911490    1.6568284   -1.8981022 
H    -4.4347715    0.9909373    0.9408113 
H    -2.9128300    0.3512462    0.2614644 
H    -4.2003983    0.9516695   -0.8274316 
