85
Energy =
C    -0.5312545   -1.2341169    2.4443660 
C     0.2324994   -0.0799426    2.7559518 
C    -0.2987822    1.2193699    2.4966293 
H     1.2908452   -0.1855427    3.0248899 
Pd   -0.2085734    0.0459201    0.6119244 
P    -0.2588876    1.7073816   -1.0153465 
P    -0.0973449   -1.4764825   -1.1381761 
H    -1.6236917   -1.1041842    2.3999135 
H    -1.3909332    1.3318559    2.5635147 
C     0.6478055   -5.3685585    2.6760771 
C    -0.6807189   -5.0118288    2.4005310 
C    -1.0469233   -3.6609558    2.3477705 
C    -0.0933258   -2.6367789    2.5582850 
C     1.2363389   -3.0140873    2.8576311 
C     1.6007462   -4.3634304    2.9145544 
H     0.9378482   -6.4231130    2.7209753 
H    -1.4358284   -5.7872516    2.2349525 
H    -2.0902620   -3.3880098    2.1503186 
H     1.9947059   -2.2488634    3.0526841 
H     2.6350375   -4.6350068    3.1494445 
C     1.8595123    4.9410943    2.7127665 
C     0.4598418    4.9175065    2.8048054 
C    -0.2282094    3.6979085    2.7532148 
C     0.4672469    2.4764943    2.6035185 
C     1.8786936    2.5163465    2.5091447 
C     2.5651032    3.7339090    2.5695496 
H     2.3991389    5.8925321    2.7542129 
H    -0.0986823    5.8518284    2.9229576 
H    -1.3212798    3.6865133    2.8346191 
H     2.4436073    1.5902496    2.3574055 
H     3.6575832    3.7441785    2.4955213 
C    -1.2468882   -2.9498846   -1.2194879 
C     1.4868806   -2.4834796   -1.3826711 
C     0.5443700    3.4132232   -0.8499753 
C    -1.9787350    2.3541326   -1.4479340 
C    -0.3376933   -0.5002123   -2.7182791 
C     0.2966433    0.8986084   -2.6106434 
C    -0.4071093   -4.0482910   -1.9065674 
C     1.0076301   -3.9567257   -1.3176971 
C    -0.6363498    4.4056259   -1.0523265 
C    -1.6699414    3.7675106   -1.9930726 
C    -2.6453581   -2.6763565   -1.7973783 
C     2.6312837   -2.1742063   -0.4047207 
C     1.7451178    3.6765068   -1.7865689 
C    -2.9408128    2.3536108   -0.2388795 
C    -3.6186872   -3.8433637   -1.5727273 
C     3.1831401   -0.7502927   -0.4900309 
C     3.0287973    2.9415254   -1.3873802 
C    -3.4875437    0.9686162    0.1190668 
H    -1.3520277   -3.2290086   -0.1526348 
H     1.8131143   -2.2510024   -2.4155247 
H     0.9043385    3.4710928    0.1909923 
H    -2.3982795    1.7052567   -2.2389308 
H    -1.4290944   -0.4122483   -2.8670296 
H     0.0664311   -1.0590891   -3.5809860 
H     0.0160005    1.5278399   -3.4736599 
H     1.3977691    0.8304953   -2.5913346 
H    -0.8495918   -5.0457742   -1.7395125 
H    -0.3872001   -3.8786101   -3.0009624 
H     1.7230581   -4.6124833   -1.8438285 
H     0.9845021   -4.2799474   -0.2593907 
H    -1.1016569    4.6228526   -0.0748119 
H    -0.2621439    5.3657138   -1.4475677 
H    -1.2529190    3.6938516   -3.0151164 
H    -2.5935015    4.3694677   -2.0665142 
H    -3.0594047   -1.7625295   -1.3304970 
H    -2.5622827   -2.4683070   -2.8810330 
H     2.2799365   -2.3811339    0.6215953 
H     3.4413551   -2.9010724   -0.6048165 
H     1.4775139    3.4570130   -2.8375109 
H     1.9367385    4.7653043   -1.7502518 
H    -2.4377650    2.7985302    0.6404535 
H    -3.7842578    3.0272997   -0.4811282 
H    -4.6191322   -3.6006757   -1.9690699 
H    -3.7249959   -4.0675687   -0.4959460 
H    -3.2730148   -4.7623348   -2.0766662 
H     3.5344930   -0.5108484   -1.5101867 
H     2.4036106   -0.0139664   -0.2094430 
H     4.0337092   -0.6082230    0.1984581 
H     2.9050850    1.8463550   -1.4100863 
H     3.3290008    3.2150449   -0.3609241 
H     3.8578746    3.1985570   -2.0681340 
H    -4.1466994    1.0138730    1.0026008 
H    -2.6597526    0.2643596    0.3500916 
H    -4.0674114    0.5404332   -0.7180272 
