85
Energy =
C    -0.5833263   -1.3280081    2.4147927 
C     0.1775792   -0.1680080    2.7092677 
C    -0.3582971    1.1283797    2.4461508 
H     1.2392577   -0.2686023    2.9668185 
Pd   -0.2800112   -0.0651120    0.5663775 
P    -0.3558464    1.5973728   -1.0640257 
P    -0.1007054   -1.6013564   -1.1756112 
H    -1.6761602   -1.2039074    2.3643223 
H    -1.4488103    1.2408863    2.5263044 
C     0.6292712   -5.4482452    2.7149815 
C    -0.6860645   -5.1072677    2.3647438 
C    -1.0643311   -3.7611990    2.2890006 
C    -0.1361954   -2.7259772    2.5509146 
C     1.1786319   -3.0870471    2.9259473 
C     1.5553485   -4.4321447    3.0048336 
H     0.9279767   -6.4993936    2.7794832 
H    -1.4215691   -5.8919702    2.1593678 
H    -2.0963688   -3.4995928    2.0283449 
H     1.9155282   -2.3133330    3.1646313 
H     2.5775112   -4.6912087    3.2994174 
C     1.7981730    4.8543552    2.6133226 
C     0.3998829    4.8295397    2.7242677 
C    -0.2867939    3.6085349    2.6903700 
C     0.4079335    2.3868724    2.5366233 
C     1.8178666    2.4280308    2.4261492 
C     2.5032724    3.6469036    2.4706947 
H     2.3371206    5.8066575    2.6413978 
H    -0.1583946    5.7635821    2.8457924 
H    -1.3778192    3.5963372    2.7929573 
H     2.3827389    1.5019770    2.2757034 
H     3.5948945    3.6579282    2.3848610 
C    -1.0819906   -3.1902931   -1.3559267 
C     1.5877731   -2.4394510   -1.4089426 
C     0.4765133    3.2990726   -0.9653080 
C    -2.0708130    2.2843421   -1.4331865 
C    -0.4070370   -0.6434884   -2.7558703 
C     0.1674319    0.7806297   -2.6675699 
C    -0.1489238   -4.0985414   -2.1832156 
C     1.2595281   -3.9464796   -1.5984565 
C    -0.6555671    4.3147446   -1.3075059 
C    -1.7343644    3.6116936   -2.1477669 
C    -2.5149865   -3.0703002   -1.8940569 
C     2.6002954   -2.2160776   -0.2718851 
C     1.7331697    3.4824740   -1.8448507 
C    -2.8974338    2.5002315   -0.1427658 
C    -3.4245706   -2.1593586   -1.0649267 
C     3.1241782   -0.7882612   -0.1267417 
C     2.9597985    2.6888560   -1.3886673 
C    -3.5565928    1.2367590    0.4130130 
H    -1.1161975   -3.5820727   -0.3197845 
H     1.9899225   -2.0211351   -2.3521731 
H     0.7769952    3.4138129    0.0901046 
H    -2.6009140    1.5818117   -2.1027778 
H    -1.5031100   -0.6058708   -2.8906282 
H     0.0102036   -1.1877922   -3.6216679 
H    -0.1517681    1.3908482   -3.5307770 
H     1.2710933    0.7538644   -2.6734569 
H    -0.4966736   -5.1465307   -2.1453643 
H    -0.1703639   -3.7904038   -3.2466230 
H     2.0289136   -4.4279045   -2.2264185 
H     1.2922519   -4.4383560   -0.6081433 
H    -1.0987112    4.6986516   -0.3724214 
H    -0.2349677    5.1846330   -1.8402753 
H    -1.3507944    3.4108351   -3.1657510 
H    -2.6396135    4.2344023   -2.2648469 
H    -2.4880792   -2.7275986   -2.9461828 
H    -2.9387640   -4.0918175   -1.9258891 
H     2.1391604   -2.5491300    0.6749577 
H     3.4494127   -2.9023423   -0.4539391 
H     1.4964321    3.2646559   -2.9039542 
H     1.9779333    4.5606243   -1.8117739 
H    -2.2557576    2.9580087    0.6332847 
H    -3.6793549    3.2499140   -0.3685221 
H    -4.4563597   -2.1606327   -1.4544918 
H    -3.0617380   -1.1171180   -1.0760184 
H    -3.4594393   -2.4809260   -0.0086517 
H     3.6354865   -0.4499072   -1.0454480 
H     2.2941123   -0.0842518    0.0858723 
H     3.8459389   -0.7123569    0.7049202 
H     2.7877284    1.6015105   -1.4321314 
H     3.2189232    2.9368522   -0.3450228 
H     3.8330627    2.9148603   -2.0237135 
H    -4.0805463    1.4465664    1.3612579 
H    -2.8003579    0.4503977    0.6101683 
H    -4.2927619    0.8223617   -0.2972898 
