85
Energy =
C    -0.5816537   -1.2632068    2.3622074 
C     0.1435228   -0.0848921    2.6805968 
C    -0.4187651    1.1968287    2.4077842 
H     1.1981192   -0.1608894    2.9732879 
Pd   -0.2703772    0.0126912    0.5256395 
P    -0.3725606    1.6923400   -1.0855045 
P    -0.2405330   -1.5113279   -1.2407591 
H    -1.6776453   -1.1704843    2.3116537 
H    -1.5159250    1.2701926    2.4391331 
C     0.7496233   -5.3500446    2.5985250 
C    -0.6085421   -5.0439870    2.4289282 
C    -1.0237971   -3.7072531    2.3723813 
C    -0.0920502   -2.6474615    2.4803666 
C     1.2701267   -2.9736685    2.6748323 
C     1.6843657   -4.3081991    2.7295223 
H     1.0786933   -6.3931332    2.6435316 
H    -1.3479194   -5.8473906    2.3469906 
H    -2.0876774   -3.4733039    2.2509725 
H     2.0157629   -2.1804093    2.7809284 
H     2.7438888   -4.5399314    2.8803341 
C     1.5907158    4.9965660    2.7202847 
C     0.1894806    4.9243466    2.7128222 
C    -0.4492842    3.6805281    2.6299087 
C     0.2958752    2.4821221    2.5409118 
C     1.7066457    2.5715611    2.5508882 
C     2.3444822    3.8132627    2.6469059 
H     2.0933327    5.9664531    2.7901066 
H    -0.4087966    5.8386854    2.7838070 
H    -1.5438598    3.6329104    2.6463510 
H     2.3135063    1.6644883    2.4618896 
H     3.4385069    3.8604157    2.6587089 
C    -1.0617980   -3.2050862   -1.1647921 
C     1.4202375   -2.1879785   -1.8539524 
C     0.7596206    3.1910303   -1.1609129 
C    -1.9726385    2.7084200   -1.2375279 
C    -0.9081406   -0.5507284   -2.6999408 
C    -0.2273047    0.8311558   -2.7456962 
C    -0.0492887   -4.1712855   -1.8221192 
C     1.3594253   -3.6818981   -1.4689542 
C    -0.0856015    4.2309253   -1.9258390 
C    -1.4991489    4.1838434   -1.3343019 
C    -2.4953403   -3.3188209   -1.7077851 
C     2.7039129   -1.4367423   -1.4603487 
C     2.1769165    2.9630672   -1.7095786 
C    -3.0192452    2.4973708   -0.1313611 
C    -3.5476365   -2.5895595   -0.8671221 
C     3.0292808   -1.4111706    0.0353360 
C     3.0918658    2.2023425   -0.7439677 
C    -3.6246801    1.0956202   -0.0773493 
H    -1.0731236   -3.4234738   -0.0796476 
H     1.3195085   -2.1264626   -2.9559810 
H     0.8313131    3.5110822   -0.1015632 
H    -2.4077592    2.3941954   -2.2059640 
H    -1.9996321   -0.4443356   -2.5587881 
H    -0.7446009   -1.1079337   -3.6396489 
H    -0.6566699    1.4641934   -3.5422001 
H     0.8501003    0.7182773   -2.9627003 
H    -0.2331341   -5.2021047   -1.4715963 
H    -0.1868466   -4.1687795   -2.9206457 
H     2.1463943   -4.2454664   -2.0009634 
H     1.5365976   -3.8094313   -0.3844666 
H     0.3638716    5.2353446   -1.8290462 
H    -0.0999444    3.9866765   -3.0058725 
H    -2.2203623    4.7787606   -1.9208990 
H    -1.4736755    4.6125809   -0.3149789 
H    -2.5280024   -2.9706824   -2.7579584 
H    -2.7414971   -4.3972046   -1.7444494 
H     3.5388142   -1.9136250   -2.0084994 
H     2.6474725   -0.4025231   -1.8446445 
H     2.1247166    2.4514643   -2.6893112 
H     2.6134155    3.9570305   -1.9223842 
H    -2.5625649    2.7511685    0.8422833 
H    -3.8214146    3.2425114   -0.2929013 
H    -4.5575227   -2.7205006   -1.2906328 
H    -3.3437222   -1.5077631   -0.8127509 
H    -3.5623469   -2.9745617    0.1679680 
H     2.2033196   -0.9397743    0.6043276 
H     3.1823774   -2.4255968    0.4386915 
H     3.9463554   -0.8286910    0.2246301 
H     2.6019850    1.2856680   -0.3723863 
H     3.3269739    2.8226486    0.1359839 
H     4.0407886    1.9157667   -1.2275070 
H    -4.3854559    1.0147256    0.7175667 
H    -2.8379286    0.3427717    0.1339669 
H    -4.1054984    0.8257291   -1.0347543 
