85
Energy =
C    -0.6379297   -1.2795802    2.4695675 
C     0.1564038   -0.1409286    2.7621387 
C    -0.3395081    1.1710214    2.4991295 
H     1.2153580   -0.2728090    3.0164865 
Pd   -0.3118229   -0.0315278    0.6239684 
P    -0.2989152    1.5924477   -1.0410474 
P    -0.1813824   -1.5769026   -1.0969068 
H    -1.7283661   -1.1288506    2.4447805 
H    -1.4262247    1.3209315    2.5779307 
C     0.4758551   -5.4339515    2.6836541 
C    -0.8563845   -5.0550763    2.4621433 
C    -1.2007769   -3.6979843    2.4141422 
C    -0.2218009   -2.6896043    2.5789532 
C     1.1129068   -3.0890552    2.8223760 
C     1.4559749   -4.4442150    2.8725660 
H     0.7489775   -6.4931958    2.7238060 
H    -1.6315024   -5.8176759    2.3333741 
H    -2.2457167   -3.4078910    2.2530339 
H     1.8923708   -2.3367079    2.9804938 
H     2.4947653   -4.7325239    3.0636716 
C     1.9622539    4.8108470    2.6497336 
C     2.6201066    3.5744558    2.5312804 
C     1.8863055    2.3839881    2.4915210 
C     0.4735490    2.4002690    2.5827978 
C    -0.1727605    3.6509982    2.7091356 
C     0.5626461    4.8433691    2.7390114 
H     2.5385810    5.7411006    2.6734322 
H     3.7122386    3.5403049    2.4598605 
H     2.4159574    1.4341255    2.3610535 
H    -1.2653243    3.6844055    2.7911204 
H     0.0409050    5.8008295    2.8384962 
C    -1.2068283   -3.1366331   -1.1305940 
C     1.4788838   -2.4466816   -1.3493684 
C     0.6852188    3.1889576   -0.8852565 
C    -1.9432083    2.4070315   -1.4598743 
C    -0.5077902   -0.6479691   -2.6857933 
C     0.1682852    0.7334226   -2.6378649 
C    -0.2790967   -4.1844804   -1.7839858 
C     1.1270489   -3.9505438   -1.2118654 
C    -0.3713406    4.3122923   -1.0907362 
C    -1.4912799    3.7838651   -2.0031784 
C    -2.6207963   -2.9839601   -1.7159816 
C     2.6210724   -1.9945159   -0.4239261 
C     1.9123979    3.2667877   -1.8206890 
C    -2.8963361    2.4849205   -0.2479807 
C    -3.4959636   -4.2244767   -1.4822344 
C     3.0882380   -0.5490416   -0.6214977 
C     2.8353500    4.4454603   -1.4776907 
C    -3.5303953    1.1396266    0.1209321 
H    -1.2938413   -3.3934400   -0.0565120 
H     1.7544162   -2.2351466   -2.4015252 
H     1.0500809    3.2035908    0.1555574 
H    -2.4261421    1.8078758   -2.2542064 
H    -1.6043588   -0.5382948   -2.7698687 
H    -0.1653104   -1.2366288   -3.5555149 
H    -0.1257540    1.3563950   -3.5009477 
H     1.2665499    0.6314996   -2.6611294 
H    -0.6335579   -5.2088569   -1.5756323 
H    -0.2785900   -4.0553573   -2.8841120 
H     1.8911737   -4.5678888   -1.7156778 
H     1.1368235   -4.2267553   -0.1401385 
H    -0.7876960    4.6029602   -0.1106568 
H     0.0993017    5.2156795   -1.5146783 
H    -1.1085705    3.6677039   -3.0348256 
H    -2.3453745    4.4827198   -2.0569297 
H    -3.1093888   -2.1017654   -1.2577212 
H    -2.5519065   -2.7781428   -2.8011180 
H     2.3047664   -2.1468709    0.6238475 
H     3.4717331   -2.6820722   -0.5915921 
H     2.4945760    2.3303234   -1.7371821 
H     1.5804353    3.3379644   -2.8741075 
H    -2.3588000    2.9019125    0.6247048 
H    -3.6937805    3.2116829   -0.4926978 
H    -4.5131810   -4.0669051   -1.8788291 
H    -3.5820063   -4.4495792   -0.4038903 
H    -3.0763056   -5.1151391   -1.9807148 
H     3.4026974   -0.3621237   -1.6646126 
H     2.2792256    0.1641960   -0.3683343 
H     3.9460559   -0.3175770    0.0328525 
H     3.1994550    4.3652091   -0.4382460 
H     2.3170374    5.4148509   -1.5776838 
H     3.7097293    4.4636871   -2.1502263 
H    -4.1874716    1.2335365    1.0021482 
H    -2.7490554    0.3863689    0.3603213 
H    -4.1331659    0.7397116   -0.7142393 
