85
Energy =
C    -0.4504830   -1.3722274    2.3627260 
C     0.2322917   -0.1727670    2.6922612 
C    -0.3717904    1.0885411    2.4139462 
H     1.2853510   -0.2143326    2.9970878 
Pd   -0.1569367   -0.0731061    0.5301179 
P    -0.2913970    1.6065802   -1.0671648 
P    -0.1165208   -1.5699518   -1.2491428 
H    -1.5475403   -1.3094556    2.2875289 
H    -1.4712514    1.1196653    2.4326941 
C     0.9906082   -5.4194095    2.6305862 
C    -0.3703579   -5.1524409    2.4215699 
C    -0.8228227   -3.8282441    2.3578429 
C     0.0745825   -2.7417604    2.4927964 
C     1.4388122   -3.0291875    2.7290356 
C     1.8897447   -4.3512693    2.7943357 
H     1.3486164   -6.4525892    2.6822069 
H    -1.0833264   -5.9767893    2.3169233 
H    -1.8904976   -3.6255243    2.2142988 
H     2.1572037   -2.2144958    2.8588274 
H     2.9502728   -4.5526093    2.9780152 
C     1.4720975    4.9716000    2.6919450 
C     0.0754038    4.8395796    2.6646708 
C    -0.5091372    3.5682515    2.5971207 
C     0.2880074    2.4016771    2.5474159 
C     1.6937268    2.5507041    2.5785128 
C     2.2769775    3.8203903    2.6551478 
H     1.9318381    5.9634048    2.7477029 
H    -0.5617171    5.7292546    2.7036889 
H    -1.6008645    3.4724410    2.5868128 
H     2.3389850    1.6678600    2.5201392 
H     3.3677191    3.9146700    2.6801370 
C    -1.0604822   -3.1890193   -1.1301945 
C     1.4908277   -2.3815618   -1.8296265 
C     0.7149774    3.1889511   -1.0381554 
C    -1.9644413    2.4690702   -1.2549037 
C    -0.6963532   -0.5949498   -2.7385080 
C    -0.0118955    0.7861863   -2.7266395 
C    -0.1287596   -4.2466156   -1.7629517 
C     1.3126851   -3.8557817   -1.4031371 
C    -0.2280628    4.2269290   -1.6849427 
C    -1.6382252    3.9798175   -1.1302003 
C    -2.5107518   -3.1697008   -1.6346019 
C     2.8207833   -1.7021151   -1.4591119 
C     2.1229519    3.1042626   -1.6461466 
C    -3.0544229    1.9591675   -0.2953789 
C    -3.4361752   -2.2721065   -0.8029254 
C     3.1257367   -1.5904134    0.0367582 
C     3.0694654    2.1743034   -0.8786269 
C    -4.4279367    2.5964445   -0.5447809 
H    -1.0696693   -3.3772014   -0.0396565 
H     1.3966648   -2.3483964   -2.9332579 
H     0.8025729    3.4203464    0.0416407 
H    -2.2770990    2.2533293   -2.2957007 
H    -1.7938233   -0.4847213   -2.6665542 
H    -0.4775378   -1.1460461   -3.6702815 
H    -0.3878732    1.4317829   -3.5400985 
H     1.0786847    0.6781381   -2.8664967 
H    -0.3917588   -5.2525632   -1.3912451 
H    -0.2560508   -4.2576816   -2.8626161 
H     2.0592077   -4.4921005   -1.9106398 
H     1.4688484   -3.9674685   -0.3132336 
H     0.1232473    5.2513302   -1.4677774 
H    -0.2189745    4.1080566   -2.7861095 
H    -2.3971723    4.5879020   -1.6512344 
H    -1.6632386    4.2658052   -0.0618953 
H    -2.5362747   -2.8734057   -2.7008300 
H    -2.8875958   -4.2097020   -1.6043797 
H     3.6270423   -2.2745289   -1.9564145 
H     2.8456459   -0.6966880   -1.9180517 
H     2.0526386    2.8012160   -2.7083586 
H     2.5414108    4.1283672   -1.6569600 
H    -3.1321253    0.8597390   -0.3886693 
H    -2.7321372    2.1552362    0.7442335 
H    -4.4661071   -2.2815977   -1.1969422 
H    -3.0872314   -1.2226402   -0.7946630 
H    -3.4716251   -2.6094451    0.2482888 
H     2.3271351   -1.0254910    0.5582611 
H     3.2033643   -2.5816824    0.5118284 
H     4.0777699   -1.0578887    0.2003799 
H     2.6395582    1.1619855   -0.7731000 
H     3.2490484    2.5561113    0.1398725 
H     4.0427246    2.0806828   -1.3890387 
H    -5.1849597    2.1728888    0.1370061 
H    -4.7673159    2.4170917   -1.5810167 
H    -4.4045099    3.6879114   -0.3820021 
