85
Energy =
C    -0.5191397   -1.2703361    2.4102387 
C     0.1621704   -0.0662084    2.6965917 
C    -0.4393558    1.2029634    2.4187281 
H     1.2241289   -0.1019683    2.9709648 
Pd   -0.2930060    0.0382827    0.5437024 
P    -0.6721559    1.7133603   -1.0116381 
P     0.0357323   -1.4184768   -1.2512936 
H    -1.6128172   -1.2106140    2.2917093 
H    -1.5282824    1.2788881    2.5472927 
C     0.9572337   -5.2902419    2.8030692 
C    -0.3294056   -5.0427987    2.2988327 
C    -0.8023167   -3.7288741    2.2041558 
C     0.0061484   -2.6329743    2.5900379 
C     1.2846179   -2.9018065    3.1303198 
C     1.7539913   -4.2154551    3.2318424 
H     1.3296515   -6.3165319    2.8823708 
H    -0.9691083   -5.8761628    1.9905036 
H    -1.8158917   -3.5398133    1.8319496 
H     1.9177261   -2.0806438    3.4788354 
H     2.7464907   -4.4045646    3.6535477 
C     1.6956827    4.9482210    2.5700475 
C     2.3774873    3.7638712    2.2435356 
C     1.6925742    2.5443357    2.2020648 
C     0.3091680    2.4776265    2.4943837 
C    -0.3595783    3.6750574    2.8315941 
C     0.3252501    4.8975074    2.8659527 
H     2.2310175    5.9026300    2.5976471 
H     3.4473610    3.7930591    2.0113804 
H     2.2297323    1.6351215    1.9094059 
H    -1.4254540    3.6451777    3.0835691 
H    -0.2127129    5.8128278    3.1337562 
C    -0.9647731   -3.0132868   -1.3925355 
C     1.6817452   -2.2729935   -1.5655797 
C     0.6415679    3.0265441   -1.2871463 
C    -2.1024416    2.9502145   -0.8939405 
C    -0.1706149   -0.4203766   -2.8378439 
C    -0.9953127    0.8612352   -2.6478656 
C     0.0037814   -4.0799517   -1.9930221 
C     1.2662242   -3.3923175   -2.5474858 
C    -0.1594890    4.2451217   -1.7911041 
C    -1.4206221    4.3400773   -0.9222219 
C    -2.3170415   -2.8844199   -2.1157326 
C     2.3639182   -2.7834559   -0.2803216 
C     1.8465088    2.6151694   -2.1455584 
C    -3.0777657    2.7558572    0.2770969 
C    -3.3052968   -1.9456571   -1.4171688 
C     3.0461038   -1.6750840    0.5272545 
C     2.7530398    1.5772704   -1.4745660 
C    -3.8008446    1.4066308    0.2956984 
H    -1.1681497   -3.2690619   -0.3378177 
H     2.3504028   -1.5459956   -2.0610873 
H     0.9935258    3.2484815   -0.2598106 
H    -2.6539847    2.8040569   -1.8437559 
H    -0.6071412   -1.0513478   -3.6306330 
H     0.8571654   -0.1710037   -3.1548023 
H    -2.0751368    0.6283329   -2.6371449 
H    -0.8294353    1.5718328   -3.4782184 
H     0.2857387   -4.7930902   -1.1992814 
H    -0.5050902   -4.6620263   -2.7804833 
H     1.0534623   -2.9529574   -3.5397096 
H     2.0933137   -4.1111432   -2.6905158 
H     0.4551719    5.1607951   -1.7285170 
H    -0.4300733    4.1085984   -2.8567176 
H    -2.1271435    5.1044649   -1.2898026 
H    -1.1327224    4.6233973    0.1074782 
H    -2.1577744   -2.5680073   -3.1646131 
H    -2.7555955   -3.8983848   -2.1753316 
H     1.6391189   -3.3238585    0.3563389 
H     3.1202449   -3.5322249   -0.5836759 
H     1.4992031    2.2515686   -3.1322639 
H     2.4319404    3.5295429   -2.3582665 
H    -2.5283899    2.9052279    1.2229613 
H    -3.8200031    3.5749719    0.2255974 
H    -4.2647432   -1.8958332   -1.9589207 
H    -2.9060892   -0.9192243   -1.3436678 
H    -3.5140185   -2.2846972   -0.3864783 
H     3.8096201   -1.1538342   -0.0772321 
H     2.3096181   -0.9187554    0.8606515 
H     3.5414956   -2.0868488    1.4212882 
H     2.1840524    0.6779368   -1.1776845 
H     3.2044945    1.9858077   -0.5541534 
H     3.5700676    1.2608415   -2.1448452 
H    -4.5182951    1.3519380    1.1320454 
H    -3.0797878    0.5752419    0.4168927 
H    -4.3606889    1.2332207   -0.6408787 
