85
Energy =
C    -0.5509498   -1.1804906    2.4427469 
C     0.1061182    0.0435593    2.7376339 
C    -0.5251770    1.2893347    2.4594431 
H     1.1689615    0.0301423    3.0074111 
Pd   -0.3545887    0.0872715    0.5914738 
P    -0.3633698    1.7493553   -1.0449678 
P    -0.2970442   -1.4549365   -1.1524051 
H    -1.6514737   -1.1625976    2.4181222 
H    -1.6253381    1.3066730    2.4879638 
C     1.0835507   -5.1541148    2.7546681 
C     1.9290197   -4.0428279    2.9109075 
C     1.4156168   -2.7445592    2.8221911 
C     0.0401071   -2.5256619    2.5763792 
C    -0.8012617   -3.6544987    2.4440055 
C    -0.2862771   -4.9542060    2.5266831 
H     1.4893018   -6.1684323    2.8242593 
H     2.9967782   -4.1902249    3.1034851 
H     2.0961764   -1.8951345    2.9394937 
H    -1.8737987   -3.5036251    2.2813134 
H    -0.9576945   -5.8129504    2.4229609 
C     1.2824695    5.1956838    2.6568249 
C    -0.1124816    5.0503848    2.6130820 
C    -0.6856209    3.7727565    2.5727371 
C     0.1210227    2.6120568    2.5678230 
C     1.5249948    2.7748602    2.6221058 
C     2.0972276    4.0510155    2.6687435 
H     1.7328646    6.1927849    2.6898118 
H    -0.7575526    5.9351318    2.6172591 
H    -1.7761825    3.6680514    2.5479253 
H     2.1792095    1.8970791    2.6113316 
H     3.1865603    4.1545891    2.7099264 
C    -1.2182789   -3.0825158   -1.2425187 
C     1.3783846   -2.2008909   -1.6110807 
C     0.7892328    3.2334993   -0.9999725 
C    -1.9344137    2.7766146   -1.3200095 
C    -0.7776544   -0.4900460   -2.6840447 
C    -0.0637026    0.8729218   -2.6719428 
C    -0.3978207   -3.8733269   -2.2844228 
C     1.0846089   -3.6978267   -1.9190166 
C    -0.0235241    4.3550178   -1.6824628 
C    -1.4664573    4.2462510   -1.1769146 
C    -2.7361618   -3.0148325   -1.4850002 
C     2.4594594   -1.9890246   -0.5358528 
C     2.2019749    3.0233487   -1.5652875 
C    -3.1298957    2.4198289   -0.4232965 
C    -3.5423518   -2.6482818   -0.2322739 
C     3.8437820   -2.4917919   -0.9646117 
C     3.0320846    1.9797522   -0.8113706 
C    -3.7057677    1.0255595   -0.6734815 
H    -1.0314765   -3.5377047   -0.2487433 
H     1.6831139   -1.6802334   -2.5398260 
H     0.8668251    3.4657134    0.0799160 
H    -2.2090441    2.5868042   -2.3762038 
H    -1.8739149   -0.3548599   -2.6630955 
H    -0.5284948   -1.0631645   -3.5945059 
H    -0.3891248    1.5083625   -3.5145705 
H     1.0285637    0.7335801   -2.7676702 
H    -0.6930572   -4.9380283   -2.2771291 
H    -0.6055523   -3.4917426   -3.3027138 
H     1.7512570   -4.0732590   -2.7134341 
H     1.2978584   -4.2888468   -1.0084983 
H     0.4189691    5.3408676   -1.4542898 
H     0.0126492    4.2289561   -2.7822232 
H    -2.1531189    4.9189441   -1.7198100 
H    -1.4998404    4.5330140   -0.1096037 
H    -2.9601583   -2.3132487   -2.3105962 
H    -3.0615096   -4.0081462   -1.8470978 
H     2.5156471   -0.9140726   -0.2848814 
H     2.1406189   -2.5032935    0.3885591 
H     2.1384305    2.7663023   -2.6400184 
H     2.7179186    4.0012816   -1.5244046 
H    -2.8257887    2.5190909    0.6355081 
H    -3.9131285    3.1832718   -0.5908521 
H    -4.6064806   -2.4881033   -0.4731969 
H    -3.1593273   -1.7258881    0.2386200 
H    -3.4848661   -3.4553251    0.5185145 
H     3.8376357   -3.5769710   -1.1675481 
H     4.1884611   -1.9788546   -1.8809994 
H     4.5892121   -2.3053951   -0.1724564 
H     2.5388603    0.9904949   -0.8204521 
H     3.1606591    2.2696547    0.2451471 
H     4.0324998    1.8621109   -1.2607101 
H    -4.5638142    0.8166387   -0.0128169 
H    -2.9394120    0.2515196   -0.4770331 
H    -4.0457371    0.9098040   -1.7186627 
