85
Energy =
C    -0.5441036   -1.3755289    2.4793978 
C     0.2341482   -0.2194283    2.7253152 
C    -0.3152746    1.0812182    2.4861803 
H     1.3092072   -0.3224759    2.9203438 
Pd   -0.3566014   -0.1027078    0.6144785 
P    -0.6725081    1.5543590   -0.9793081 
P    -0.0547986   -1.6029455   -1.1365327 
H    -1.6369961   -1.2372364    2.4508734 
H    -1.3900526    1.2104987    2.6777328 
C     0.6097398   -5.5121648    2.7461781 
C    -0.6863552   -5.1488622    2.3483056 
C    -1.0458451   -3.7974645    2.2847634 
C    -0.1164988   -2.7794994    2.6050747 
C     1.1766333   -3.1628031    3.0297271 
C     1.5343266   -4.5139216    3.0959206 
H     0.8936512   -6.5679108    2.8011630 
H    -1.4207540   -5.9206703    2.0958391 
H    -2.0633407   -3.5173649    1.9878584 
H     1.9071492   -2.4025396    3.3243376 
H     2.5390885   -4.7918181    3.4303083 
C     1.9569347    4.7461912    2.3876383 
C     2.5966349    3.5191106    2.1439421 
C     1.8714723    2.3230463    2.1874756 
C     0.4878161    2.3230040    2.4867495 
C    -0.1379748    3.5639285    2.7418581 
C     0.5867511    4.7622398    2.6888817 
H     2.5243361    5.6813886    2.3470553 
H     3.6661023    3.4956421    1.9097588 
H     2.3807289    1.3809858    1.9584743 
H    -1.2038549    3.5872571    2.9947637 
H     0.0805026    5.7115165    2.8927114 
C    -1.1646590   -3.0999429   -1.4094607 
C     1.5551344   -2.5985226   -1.2045150 
C     0.6300708    2.8780556   -1.2187615 
C    -2.1233547    2.7651097   -0.8877177 
C    -0.0120142   -0.5811939   -2.7112590 
C    -0.8903507    0.6769248   -2.6217339 
C    -0.2103242   -4.1858011   -1.9507507 
C     1.0964853   -4.0736673   -1.1551519 
C    -0.1687646    4.0816526   -1.7637611 
C    -1.4637273    4.1675126   -0.9455237 
C    -2.4456401   -2.8752781   -2.2249100 
C     2.6068789   -2.2300504   -0.1474471 
C     1.8674703    2.4566178   -2.0278852 
C    -3.0672671    2.5912070    0.3143107 
C    -3.4665550   -1.9634740   -1.5372737 
C     3.1433115   -0.7997291   -0.2461658 
C     2.9761738    3.5199211   -2.0153879 
C    -3.7917862    1.2453432    0.3862168 
H    -1.4437549   -3.3853325   -0.3763169 
H     1.9638904   -2.3903478   -2.2136468 
H     0.9465897    3.1094119   -0.1824586 
H    -2.6910121    2.5878564   -1.8221495 
H    -0.2885462   -1.2071391   -3.5785396 
H     1.0476721   -0.2980319   -2.8415447 
H    -1.9609337    0.4119826   -2.6840140 
H    -0.6797145    1.3746368   -3.4523378 
H    -0.6724052   -5.1844166   -1.8530631 
H    -0.0210302   -4.0190398   -3.0293398 
H     1.8873296   -4.7333432   -1.5530132 
H     0.9194658   -4.3691931   -0.1035294 
H     0.4195196    5.0122826   -1.6858017 
H    -0.3937346    3.9286604   -2.8378748 
H    -2.1718890    4.9063676   -1.3590488 
H    -1.2171468    4.4878675    0.0838444 
H    -2.1890972   -2.4810869   -3.2271468 
H    -2.9011894   -3.8674211   -2.4053671 
H     2.1730213   -2.4013449    0.8532142 
H     3.4426145   -2.9484651   -0.2467552 
H     2.2683984    1.5165032   -1.6104327 
H     1.5721188    2.2412303   -3.0730716 
H    -2.4888730    2.7579020    1.2408182 
H    -3.8096610    3.4105620    0.2690795 
H    -3.7780336   -2.3788652   -0.5622255 
H    -4.3708926   -1.8345222   -2.1553590 
H    -3.0443577   -0.9628907   -1.3419241 
H     3.5931179   -0.5996085   -1.2356223 
H     2.3284520   -0.0667476   -0.0843404 
H     3.9167851   -0.6109956    0.5181394 
H     3.2788748    3.7559815   -0.9797010 
H     2.6471149    4.4578346   -2.4947178 
H     3.8666122    3.1613136   -2.5592103 
H    -4.4786710    1.2106686    1.2489196 
H    -3.0676229    0.4144887    0.5003179 
H    -4.3843580    1.0535126   -0.5258692 
