85
Energy =
C    -0.3949051   -1.2867421    2.3813283 
C     0.2121093   -0.0420496    2.6892895 
C    -0.4584808    1.1841593    2.4207213 
H     1.2731204   -0.0184065    2.9651105 
Pd   -0.2329158    0.0160592    0.5356825 
P    -0.2564767    1.7319457   -1.0485561 
P    -0.2363486   -1.4907768   -1.2525638 
H    -1.4941239   -1.3127034    2.3404184 
H    -1.5588123    1.1635615    2.4340300 
C     1.4294461   -5.1773372    2.6766517 
C     0.0837226   -5.0394514    2.3017699 
C    -0.4975009   -3.7681203    2.2316084 
C     0.2540862   -2.6046164    2.5183408 
C     1.6006580   -2.7623935    2.9185420 
C     2.1797182   -4.0336338    2.9956683 
H     1.8869373   -6.1700018    2.7357679 
H    -0.5170195   -5.9260805    2.0736087 
H    -1.5512094   -3.6657409    1.9529551 
H     2.2080562   -1.8878203    3.1696775 
H     3.2241187   -4.1340035    3.3085941 
C     1.2104843    5.1424488    2.7457647 
C    -0.1778788    4.9513931    2.6767992 
C    -0.7061606    3.6567013    2.5919296 
C     0.1402932    2.5251546    2.5674424 
C     1.5370033    2.7335496    2.6465435 
C     2.0642719    4.0264695    2.7373999 
H     1.6256994    6.1529966    2.8133756 
H    -0.8528232    5.8133353    2.6958394 
H    -1.7919954    3.5154752    2.5476932 
H     2.2209804    1.8791987    2.6189989 
H     3.1486994    4.1659290    2.7966289 
C    -1.3458526   -2.9911539   -1.4140523 
C     1.3112877   -2.4431002   -1.7633385 
C     0.8542818    3.2474762   -0.9454303 
C    -1.8473703    2.7254175   -1.3397485 
C    -0.6044913   -0.4530991   -2.7734801 
C     0.1135466    0.9031928   -2.6823152 
C    -0.7508759   -3.6964315   -2.6501638 
C     0.7805270   -3.7322947   -2.4786124 
C     0.0227286    4.3653627   -1.6108200 
C    -1.4256799    4.2016726   -1.1400618 
C    -2.8665366   -2.7578280   -1.4460078 
C     2.2588751   -2.7977700   -0.5989333 
C     2.2787060    3.0944280   -1.4993753 
C    -3.0591354    2.3130260   -0.4904430 
C    -3.4902809   -2.5428519   -0.0615308 
C     3.0012760   -1.6176623    0.0266298 
C     3.1281895    2.0523922   -0.7669862 
C    -3.6132972    0.9294151   -0.8285163 
H    -1.0894483   -3.5923122   -0.5181128 
H     1.8445630   -1.7876434   -2.4771429 
H     0.9121723    3.4540343    0.1404422 
H    -2.0855537    2.5611043   -2.4090918 
H    -1.6994626   -0.3120933   -2.8193985 
H    -0.3020260   -0.9943390   -3.6864806 
H    -0.1660576    1.5650700   -3.5213040 
H     1.2085041    0.7593070   -2.7265542 
H    -1.1625948   -4.7174337   -2.7432742 
H    -1.0465618   -3.1558047   -3.5685754 
H     1.2942750   -3.8802954   -3.4429997 
H     1.0400862   -4.5971310   -1.8426893 
H     0.4331058    5.3555154   -1.3445121 
H     0.0844996    4.2735321   -2.7128534 
H    -2.1202168    4.8712858   -1.6768155 
H    -1.4898932    4.4532998   -0.0653842 
H    -3.1085183   -1.9109117   -2.1154338 
H    -3.3312686   -3.6447347   -1.9160053 
H     1.6914985   -3.3449370    0.1769566 
H     2.9977523   -3.5194056   -0.9973998 
H     2.2339362    2.8670263   -2.5818264 
H     2.7643931    4.0857702   -1.4246763 
H    -2.7808538    2.3593519    0.5791478 
H    -3.8462470    3.0768208   -0.6366878 
H    -4.5582866   -2.2805405   -0.1419302 
H    -2.9831843   -1.7299685    0.4875719 
H    -3.4150804   -3.4603339    0.5481776 
H     3.6143690   -1.0861673   -0.7224211 
H     2.2920819   -0.8881218    0.4657555 
H     3.6715166   -1.9616299    0.8315015 
H     2.6621344    1.0528726   -0.8101253 
H     3.2388790    2.3144479    0.2988456 
H     4.1364125    1.9754171   -1.2077271 
H    -4.4783870    0.6720635   -0.1949196 
H    -2.8399450    0.1565023   -0.6638063 
H    -3.9352456    0.8716915   -1.8841256 
