85
Energy =
C    -0.5074669   -1.3109348    2.4162760 
C     0.2424863   -0.1412499    2.7084834 
C    -0.3318618    1.1503885    2.5261440 
H     1.3195226   -0.2260536    2.8988236 
Pd   -0.3549360    0.0089727    0.6024849 
P    -0.4584641    1.6816365   -1.0051475 
P    -0.3033095   -1.4881284   -1.1693873 
H    -1.6041078   -1.2220059    2.4617762 
H    -1.4203205    1.2361218    2.6572178 
C     0.8565627   -5.3972319    2.4302940 
C     1.7868642   -4.3562694    2.5921429 
C     1.3628123   -3.0232389    2.6049642 
C    -0.0052912   -2.6971822    2.4533489 
C    -0.9317655   -3.7577074    2.3156867 
C    -0.5065277   -5.0924473    2.3001546 
H     1.1924541   -6.4390005    2.4208980 
H     2.8504554   -4.5864661    2.7129598 
H     2.1061516   -2.2311984    2.7412908 
H    -1.9998970   -3.5262662    2.2293548 
H    -1.2423142   -5.8964702    2.1950385 
C     1.7555833    4.9146767    2.7238929 
C     0.3606620    4.8593840    2.8634628 
C    -0.3025506    3.6259810    2.8192484 
C     0.4117113    2.4211952    2.6257106 
C     1.8182085    2.4934354    2.4889201 
C     2.4808017    3.7245555    2.5436079 
H     2.2762850    5.8767698    2.7606524 
H    -0.2131301    5.7793473    3.0162937 
H    -1.3904191    3.5900819    2.9462533 
H     2.3984995    1.5816819    2.3117895 
H     3.5701429    3.7585860    2.4370239 
C    -1.2433507   -3.1080649   -1.2146982 
C     1.3846126   -2.2581203   -1.5230141 
C     0.4949676    3.3070017   -0.8853273 
C    -2.1288823    2.4899084   -1.3128332 
C    -0.7324484   -0.5203113   -2.7102835 
C    -0.0743887    0.8707628   -2.6527352 
C    -0.2702808   -4.0851793   -1.9091834 
C     1.1374029   -3.7798925   -1.3772778 
C    -0.5503080    4.4161957   -1.2135672 
C    -1.7197856    3.8086599   -2.0082774 
C    -2.6685158   -3.0581379   -1.7838300 
C     2.5217719   -1.6862856   -0.6588368 
C     1.7791467    3.3639329   -1.7386363 
C    -2.9224348    2.7010695   -0.0043531 
C    -3.6231917   -2.1633809   -0.9841472 
C     3.8895635   -2.3150945   -0.9534196 
C     2.8899222    2.4268304   -1.2509483 
C    -3.5970760    1.4326358    0.5250140 
H    -1.2947867   -3.3927055   -0.1456728 
H     1.5877411   -2.0331253   -2.5891169 
H     0.7901910    3.3811591    0.1753724 
H    -2.7115250    1.8414621   -1.9935446 
H    -1.8328987   -0.4267168   -2.7431060 
H    -0.4203279   -1.0757703   -3.6125229 
H    -0.4220790    1.5114772   -3.4820877 
H     1.0225062    0.7836304   -2.7411445 
H    -0.5684763   -5.1297494   -1.7093121 
H    -0.3078598   -3.9396415   -3.0065119 
H     1.9126603   -4.3531940   -1.9135877 
H     1.1995685   -4.0598871   -0.3082512 
H    -0.9240973    4.8485800   -0.2692853 
H    -0.0719887    5.2381520   -1.7732939 
H    -1.4023894    3.6021270   -3.0475525 
H    -2.5791816    4.5004024   -2.0706262 
H    -2.6379760   -2.7403616   -2.8437271 
H    -3.0562160   -4.0944003   -1.7941991 
H     2.5740910   -0.5930283   -0.8143278 
H     2.2610465   -1.8322295    0.4050776 
H     1.5429523    3.1753808   -2.8034170 
H     2.1482318    4.4057018   -1.6952708 
H    -2.2548288    3.1244043    0.7693431 
H    -3.6921226    3.4722694   -0.1971028 
H    -4.6442147   -2.1954623   -1.3998402 
H    -3.2915829   -1.1097485   -0.9878813 
H    -3.6762611   -2.4839606    0.0718833 
H     3.8999571   -3.3920403   -0.7115190 
H     4.1604213   -2.2049101   -2.0191807 
H     4.6788136   -1.8304183   -0.3534057 
H     2.5610599    1.3716531   -1.2303292 
H     3.1942283    2.6888169   -0.2233658 
H     3.7787545    2.4891769   -1.9010869 
H    -4.1040706    1.6208647    1.4867434 
H    -2.8530317    0.6255883    0.6864526 
H    -4.3498748    1.0530105   -0.1879076 
