85
Energy =
C    -0.5021267   -1.3137034    2.5596861 
C     0.2542948   -0.1427723    2.8321599 
C    -0.3051651    1.1434589    2.5734463 
H     1.3231112   -0.2292402    3.0634781 
Pd   -0.2743872   -0.0567568    0.7090590 
P    -0.3217168    1.6040837   -0.9201596 
P    -0.2927494   -1.6007514   -1.0346021 
H    -1.5981786   -1.2081794    2.5740680 
H    -1.3975573    1.2372393    2.6674448 
C     0.7984999   -5.4152317    2.7405951 
C    -0.5599265   -5.0957989    2.5994916 
C    -0.9650317   -3.7551216    2.5606073 
C    -0.0218917   -2.7044814    2.6547538 
C     1.3415409   -3.0441624    2.8160525 
C     1.7450993   -4.3827206    2.8576871 
H     1.1188561   -6.4614316    2.7732321 
H    -1.3078527   -5.8922719    2.5279405 
H    -2.0298087   -3.5116206    2.4660588 
H     2.0966916   -2.2570576    2.9111443 
H     2.8054602   -4.6244500    2.9839740 
C     1.7812706    4.9113141    2.6552363 
C     0.3828329    4.8632634    2.7566614 
C    -0.2808530    3.6290611    2.7478813 
C     0.4381137    2.4176085    2.6315877 
C     1.8471225    2.4824650    2.5213005 
C     2.5094933    3.7143841    2.5409842 
H     2.3025400    5.8737811    2.6650637 
H    -0.1934978    5.7894790    2.8507907 
H    -1.3729737    3.5985179    2.8357260 
H     2.4297936    1.5634216    2.3961244 
H     3.6008181    3.7438830    2.4574137 
C    -1.3535381   -3.1437736   -0.9674970 
C     1.3125328   -2.5303962   -1.4201124 
C     0.7331337    3.1512840   -0.8968444 
C    -1.9598559    2.5220420   -1.1767530 
C    -0.7071102   -0.6206085   -2.5738829 
C     0.0084162    0.7410669   -2.5466147 
C    -0.5249172   -4.2111268   -1.7128551 
C     0.9300175   -4.0252330   -1.2644053 
C    -0.1268706    4.1812733   -1.6620878 
C    -1.5673384    4.0234238   -1.1580037 
C    -2.8522535   -3.0259065   -1.3219022 
C     2.5402437   -2.1368199   -0.5826203 
C     2.1879795    2.9833082   -1.3656202 
C    -3.0780116    2.1816533   -0.1761236 
C    -3.2116311   -3.1047427   -2.8127952 
C     3.0198830   -0.6960806   -0.7663220 
C     3.0067557    4.2767038   -1.2355391 
C    -3.5945568    0.7430645   -0.2532520 
H    -1.2853759   -3.3843296    0.1116644 
H     1.5118562   -2.3166805   -2.4889534 
H     0.7419415    3.4384878    0.1725789 
H    -2.2898807    2.2403096   -2.1956460 
H    -1.8026267   -0.4770214   -2.5669581 
H    -0.4499627   -1.1951479   -3.4811705 
H    -0.3089845    1.3792846   -3.3903680 
H     1.1017231    0.6063352   -2.6240475 
H    -0.9012038   -5.2240690   -1.4818313 
H    -0.6076594   -4.0733255   -2.8072137 
H     1.6295243   -4.6565416   -1.8395676 
H     1.0277829   -4.3127755   -0.2000003 
H     0.2459105    5.2059557   -1.4916028 
H    -0.0675622    3.9907934   -2.7516910 
H    -2.2862619    4.6145236   -1.7513542 
H    -1.6237655    4.3911878   -0.1160482 
H    -3.3725160   -3.8484322   -0.7960945 
H    -3.2557493   -2.0949926   -0.8825018 
H     2.3107340   -2.3228987    0.4820041 
H     3.3553426   -2.8367577   -0.8478784 
H     2.6666085    2.1907908   -0.7631419 
H     2.2081173    2.6404704   -2.4176371 
H    -2.7184346    2.3986029    0.8479943 
H    -3.9122943    2.8845045   -0.3617655 
H    -4.2987085   -2.9727551   -2.9468874 
H    -2.9443637   -4.0859630   -3.2407975 
H    -2.7068420   -2.3308776   -3.4156168 
H     3.2485845   -0.4708964   -1.8239688 
H     2.2449484    0.0156447   -0.4210798 
H     3.9326481   -0.5017076   -0.1774971 
H     2.9777873    4.6557688   -0.1989949 
H     2.6235264    5.0703883   -1.8995301 
H     4.0611223    4.0964338   -1.5058200 
H    -4.4226283    0.5756309    0.4561560 
H    -2.7865435    0.0262191    0.0002676 
H    -3.9614951    0.4984995   -1.2666577 
