85
Energy =
C    -0.2786166   -1.3989478    2.3840284 
C     0.2749424   -0.1317621    2.7068451 
C    -0.4385238    1.0652035    2.4197191 
H     1.3277234   -0.0666084    3.0067203 
Pd   -0.1228845   -0.0984218    0.5453795 
P    -0.1736594    1.5867622   -1.0593456 
P    -0.1288986   -1.6134648   -1.2278382 
H    -1.3751857   -1.4671084    2.3262701 
H    -1.5367242    0.9955800    2.4026413 
C     1.6823703   -5.2210012    2.6999528 
C     0.3248811   -5.1346504    2.3538810 
C    -0.3007701   -3.8845323    2.2766742 
C     0.4175962   -2.6917801    2.5264633 
C     1.7793385   -2.7974212    2.8923768 
C     2.4017686   -4.0471973    2.9793678 
H     2.1740488   -6.1967675    2.7652820 
H    -0.2507129   -6.0447694    2.1553763 
H    -1.3660119   -3.8239764    2.0268303 
H     2.3654385   -1.8979005    3.1036999 
H     3.4568787   -4.1071747    3.2655859 
C     1.0239572    5.1029083    2.7463892 
C    -0.3500853    4.8422663    2.6322991 
C    -0.8102097    3.5218080    2.5483690 
C     0.0917635    2.4336092    2.5701541 
C     1.4728800    2.7119427    2.6924898 
C     1.9316653    4.0308327    2.7826528 
H     1.3862987    6.1336235    2.8138502 
H    -1.0668613    5.6698055    2.6148740 
H    -1.8852714    3.3248255    2.4663921 
H     2.1990312    1.8926375    2.6993378 
H     3.0051220    4.2252878    2.8765154 
C    -1.3369115   -3.0369704   -1.3229632 
C     1.3589597   -2.6670472   -1.7264866 
C     0.7907488    3.1926830   -0.9363705 
C    -1.8354032    2.4100652   -1.4274185 
C    -0.4511330   -0.5867029   -2.7655609 
C     0.2936032    0.7560171   -2.6649988 
C    -0.7635527   -3.8799070   -2.4804150 
C     0.7498677   -4.0147580   -2.2320837 
C    -0.1331614    4.2283036   -1.6155821 
C    -1.5751485    3.9181528   -1.1920842 
C    -2.8290377   -2.6822345   -1.4080389 
C     2.4021661   -2.8915509   -0.6165631 
C     2.2320386    3.1604598   -1.4682803 
C    -3.0217813    1.8148939   -0.6499216 
C    -3.3957302   -2.0764355   -0.1177681 
C     3.1305826   -1.6338343   -0.1416726 
C     3.1625056    2.2183691   -0.6970361 
C    -4.3644462    2.4813980   -0.9790340 
H    -1.1516103   -3.5846063   -0.3767867 
H     1.8321692   -2.1171306   -2.5618935 
H     0.8133291    3.4037300    0.1498983 
H    -1.9999153    2.2453440   -2.5109433 
H    -1.5422626   -0.4194130   -2.8301901 
H    -0.1492019   -1.1437254   -3.6694461 
H     0.0623212    1.4133222   -3.5221838 
H     1.3871512    0.5943744   -2.6521793 
H    -1.2518902   -4.8702205   -2.5188545 
H    -0.9731069   -3.3856299   -3.4479796 
H     1.2849644   -4.3675749   -3.1296691 
H     0.9082282   -4.7727485   -1.4434853 
H     0.1676185    5.2520962   -1.3309815 
H    -0.0325956    4.1542132   -2.7161696 
H    -2.3066470    4.5314951   -1.7453281 
H    -1.6986003    4.1458305   -0.1168908 
H    -3.0083420   -2.0033048   -2.2635919 
H    -3.3799585   -3.6111019   -1.6482164 
H     1.9137210   -3.3903266    0.2396817 
H     3.1397942   -3.6172782   -1.0101618 
H     2.2251410    2.9037376   -2.5451414 
H     2.6246275    4.1933473   -1.4110368 
H    -3.0852098    0.7337705   -0.8691396 
H    -2.8158623    1.8949067    0.4346992 
H    -4.4576388   -1.8038828   -0.2370682 
H    -2.8413796   -1.1654948    0.1761174 
H    -3.3235366   -2.7929849    0.7196767 
H     3.6488456   -1.1255182   -0.9745201 
H     2.4191789   -0.9118629    0.3071932 
H     3.8832342   -1.8828478    0.6251551 
H     2.7922395    1.1781971   -0.7169684 
H     3.2340599    2.5198073    0.3616765 
H     4.1792512    2.2232791   -1.1246709 
H    -5.1889769    1.9830570   -0.4411550 
H    -4.5825657    2.4242004   -2.0608100 
H    -4.3720301    3.5464331   -0.6895917 
