85
Energy =
C    -0.5724112   -1.3609266    2.4344566 
C     0.1275286   -0.1624697    2.7325208 
C    -0.4557973    1.1073782    2.4518275 
H     1.1892510   -0.2144848    3.0024064 
Pd   -0.3297718   -0.0931994    0.5894014 
P    -0.3046661    1.5830334   -1.0350120 
P    -0.2786596   -1.6293440   -1.1629509 
H    -1.6715639   -1.3051435    2.4093380 
H    -1.5532982    1.1745019    2.4964546 
C     0.9316000   -5.3879433    2.7079756 
C    -0.4333796   -5.1416477    2.4975242 
C    -0.9059823   -3.8251203    2.4270969 
C    -0.0258780   -2.7259439    2.5555956 
C     1.3446115   -2.9911651    2.7826233 
C     1.8156414   -4.3061033    2.8586244 
H     1.3042742   -6.4154944    2.7677984 
H    -1.1340072   -5.9771862    2.3975292 
H    -1.9745083   -3.6377999    2.2764772 
H     2.0542214   -2.1649104    2.8951696 
H     2.8801966   -4.4900990    3.0367300 
C     1.5444322    4.9190454    2.6403051 
C     0.1435232    4.8425621    2.6479470 
C    -0.4930612    3.5949711    2.6066825 
C     0.2557614    2.3976549    2.5479499 
C     1.6675284    2.4910532    2.5346253 
C     2.3023529    3.7365774    2.5889025 
H     2.0443121    5.8921627    2.6759309 
H    -0.4564862    5.7572686    2.6946223 
H    -1.5876241    3.5429136    2.6240182 
H     2.2772996    1.5843636    2.4599020 
H     3.3960549    3.7872462    2.5827468 
C    -1.2562877   -3.2231976   -1.2738925 
C     1.3751747   -2.4346289   -1.6294223 
C     0.8397392    3.0639903   -0.9564671 
C    -1.8698322    2.6034753   -1.3528193 
C    -0.7081359   -0.6372293   -2.6921152 
C     0.0400033    0.7066974   -2.6507780 
C    -0.4574234   -4.0411889   -2.3108901 
C     1.0234807   -3.9207040   -1.9243224 
C     0.0690446    4.1611787   -1.7227928 
C    -1.3937680    4.0768028   -1.2685922 
C    -2.7696480   -3.0971915   -1.5263680 
C     2.5028297   -2.2931386   -0.5923666 
C     2.2940366    2.8129167   -1.3870190 
C    -3.0614140    2.2931182   -0.4328778 
C    -3.5747501   -2.7578487   -0.2652319 
C     3.0021498   -0.8651431   -0.3639197 
C     3.1940670    4.0412637   -1.1837321 
C    -3.6464659    0.8928339   -0.6190701 
H    -1.0956814   -3.6905671   -0.2811020 
H     1.6795790   -1.9305917   -2.5670415 
H     0.8353994    3.3309218    0.1179914 
H    -2.1519896    2.3704556   -2.3981304 
H    -1.8008999   -0.4737915   -2.6884004 
H    -0.4579634   -1.2064836   -3.6047933 
H    -0.2342842    1.3505055   -3.5052447 
H     1.1320009    0.5407298   -2.6978197 
H    -0.7927088   -5.0939271   -2.3097197 
H    -0.6382520   -3.6485937   -3.3301316 
H     1.6935898   -4.3255389   -2.7019937 
H     1.1995347   -4.5095564   -1.0047220 
H     0.4965519    5.1571935   -1.5151101 
H     0.1520628    3.9918743   -2.8143624 
H    -2.0568373    4.7267265   -1.8655969 
H    -1.4633268    4.4147734   -0.2174721 
H    -2.9652613   -2.3556543   -2.3236349 
H    -3.1227108   -4.0639218   -1.9316947 
H     2.1623480   -2.7318846    0.3627273 
H     3.3432737   -2.9257276   -0.9372374 
H     2.6976288    1.9670289   -0.8024044 
H     2.3239571    2.5086474   -2.4506789 
H    -2.7478215    2.4358724    0.6186790 
H    -3.8412409    3.0539106   -0.6265608 
H    -4.6303037   -2.5498407   -0.5073424 
H    -3.1642214   -1.8711888    0.2487395 
H    -3.5520124   -3.5989123    0.4492133 
H     3.3695986   -0.4084935   -1.3006071 
H     2.1875765   -0.2235463    0.0323961 
H     3.8284541   -0.8452208    0.3673744 
H     3.1598276    4.3827242   -0.1343406 
H     2.8843590    4.8837798   -1.8256459 
H     4.2415590    3.8002102   -1.4324049 
H    -4.4989057    0.7153392    0.0578766 
H    -2.8803532    0.1244716   -0.3981321 
H    -3.9968218    0.7345187   -1.6552154 
