85
Energy =
C    -0.5112261   -1.4698464    2.4498493 
C     0.1946499   -0.2773574    2.7610065 
C    -0.3883032    0.9926459    2.4756843 
H     1.2535812   -0.3330667    3.0420727 
Pd   -0.2364818   -0.2042753    0.6139407 
P    -0.2615182    1.4490413   -1.0240018 
P    -0.1394962   -1.7422897   -1.1231753 
H    -1.6093938   -1.3983005    2.4070780 
H    -1.4859800    1.0550258    2.5183255 
C     0.9133212   -5.5274946    2.6864373 
C    -0.4478821   -5.2523944    2.4890425 
C    -0.8944966   -3.9257189    2.4331947 
C     0.0086944   -2.8450323    2.5658841 
C     1.3744637   -3.1401145    2.7844040 
C     1.8196994   -4.4647951    2.8429126 
H     1.2660414   -6.5627405    2.7327612 
H    -1.1657218   -6.0728081    2.3865038 
H    -1.9613856   -3.7167914    2.2935053 
H     2.0990668   -2.3286334    2.9083221 
H     2.8812886   -4.6717870    3.0132287 
C     1.5841332    4.8186934    2.6392199 
C     0.1844326    4.7307645    2.6759068 
C    -0.4426589    3.4780388    2.6420578 
C     0.3151950    2.2872997    2.5650636 
C     1.7254422    2.3922594    2.5205243 
C     2.3507369    3.6428077    2.5647935 
H     2.0766908    5.7957668    2.6684431 
H    -0.4218461    5.6403698    2.7386704 
H    -1.5363482    3.4161052    2.6786400 
H     2.3395918    1.4900521    2.4272598 
H     3.4435139    3.7032757    2.5322259 
C    -1.1433331   -3.3218083   -1.1677628 
C     1.5142968   -2.5901625   -1.4993895 
C     0.7482505    3.0230978   -0.9561537 
C    -1.9132141    2.3111248   -1.3358661 
C    -0.5448041   -0.7844967   -2.6793508 
C     0.1480260    0.5893885   -2.6345140 
C    -0.2709513   -4.2875490   -1.9965824 
C     1.1739944   -4.1038132   -1.5132048 
C    -0.1292295    4.0421268   -1.7173359 
C    -1.5791258    3.8245299   -1.2607540 
C    -2.6088780   -3.1885312   -1.6053754 
C     2.6780458   -2.2433074   -0.5560024 
C     2.2132022    2.9021546   -1.4083246 
C    -3.0437745    1.8582331   -0.3938356 
C    -3.4554481   -2.3120263   -0.6743678 
C     3.1237334   -0.7796472   -0.5837754 
C     3.0017172    4.2071880   -1.2206172 
C    -4.3968487    2.5075676   -0.7132085 
H    -1.1145744   -3.6619362   -0.1132549 
H     1.7681915   -2.2640970   -2.5272179 
H     0.7336828    3.2907530    0.1182028 
H    -2.1856329    2.0491732   -2.3771328 
H    -1.6431936   -0.6630550   -2.7119854 
H    -0.2474956   -1.3587418   -3.5748622 
H    -0.1448445    1.2200650   -3.4925955 
H     1.2459468    0.4697898   -2.6674132 
H    -0.6176308   -5.3284418   -1.8675771 
H    -0.3571955   -4.0478508   -3.0743283 
H     1.8990817   -4.6514858   -2.1398618 
H     1.2660838   -4.4995988   -0.4836868 
H     0.2033612    5.0744749   -1.5131432 
H    -0.0350846    3.8803979   -2.8092477 
H    -2.2923601    4.4132461   -1.8622473 
H    -1.6801391    4.1601052   -0.2108772 
H    -2.6575488   -2.8087760   -2.6438378 
H    -3.0380139   -4.2077192   -1.6410527 
H     2.3942370   -2.5312367    0.4720405 
H     3.5287359   -2.8946443   -0.8333288 
H     2.7009330    2.0980297   -0.8284109 
H     2.2536732    2.5979965   -2.4717808 
H    -3.1388620    0.7577801   -0.4469060 
H    -2.7503845    2.0897526    0.6479473 
H    -4.5023254   -2.2572938   -1.0167152 
H    -3.0619406   -1.2797045   -0.6220715 
H    -3.4551207   -2.7123554    0.3550097 
H     3.4144148   -0.4594900   -1.6008913 
H     2.3060464   -0.1173752   -0.2348676 
H     3.9898294   -0.6145943    0.0798212 
H     2.9541282    4.5454171   -0.1706775 
H     2.6061055    5.0169547   -1.8574050 
H     4.0624054    4.0614374   -1.4868999 
H    -5.1827076    2.1249298   -0.0398728 
H    -4.7058538    2.2910275   -1.7518303 
H    -4.3594116    3.6042975   -0.5944024 
