85
Energy =
C    -0.3546434   -1.3310438    2.3619480 
C     0.2541572   -0.0837996    2.6553640 
C    -0.4335882    1.1339701    2.3987212 
H     1.3192935   -0.0545442    2.9141022 
Pd   -0.2138936   -0.0470599    0.5030751 
P    -0.2556270    1.6106515   -1.1394045 
P    -0.1488337   -1.5915018   -1.2476140 
H    -1.4542999   -1.3540237    2.3191590 
H    -1.5315358    1.0962436    2.4376372 
C     1.4455164   -5.2257188    2.7331630 
C     0.1060828   -5.0865810    2.3370114 
C    -0.4676283   -3.8131763    2.2410435 
C     0.2870594   -2.6495165    2.5191773 
C     1.6283376   -2.8081470    2.9380503 
C     2.1984027   -4.0813569    3.0444212 
H     1.8960651   -6.2199623    2.8146659 
H    -0.4964186   -5.9735408    2.1149646 
H    -1.5201402   -3.7106906    1.9535602 
H     2.2381002   -1.9324579    3.1802603 
H     3.2379315   -4.1828586    3.3726488 
C     1.1479249    5.1290662    2.6673215 
C    -0.2348414    4.9062338    2.5771122 
C    -0.7328143    3.5989184    2.5126095 
C     0.1392507    2.4856990    2.5291628 
C     1.5292408    2.7259853    2.6273667 
C     2.0257208    4.0325434    2.6992144 
H     1.5400283    6.1496967    2.7201973 
H    -0.9282783    5.7534808    2.5633952 
H    -1.8135040    3.4299487    2.4482572 
H     2.2324069    1.8868989    2.6315527 
H     3.1054326    4.1979194    2.7757298 
C    -1.3385171   -3.0274982   -1.3806946 
C     1.3748432   -2.6374093   -1.6579930 
C     0.6846558    3.2312196   -0.9561181 
C    -1.8741056    2.4328889   -1.6856950 
C    -0.3912440   -0.5967714   -2.8191864 
C     0.3331903    0.7545147   -2.6925562 
C    -0.6906893   -3.8986410   -2.4759626 
C     0.8045935   -4.0121817   -2.1307139 
C    -0.2534685    4.3014555   -1.5628046 
C    -1.6989271    3.9014425   -1.2410102 
C    -2.8233765   -2.6831420   -1.5664176 
C     2.3948341   -2.8028616   -0.5181587 
C     2.1178409    3.2468715   -1.5131359 
C    -3.2041254    1.7533961   -1.3076484 
C    -3.4525694   -1.9987404   -0.3467137 
C     3.0807373   -1.5141038   -0.0628919 
C     3.0899630    2.3190780   -0.7766602 
C    -3.5576024    1.7460633    0.1821494 
H    -1.2100428   -3.5479412   -0.4103163 
H     1.8588021   -2.1098087   -2.5017363 
H     0.7259870    3.3863699    0.1379788 
H    -1.7949309    2.4116202   -2.7905368 
H    -1.4768891   -0.4435162   -2.9577345 
H    -0.0255561   -1.1660029   -3.6914076 
H     0.1554017    1.3940093   -3.5755291 
H     1.4243451    0.6031659   -2.6029001 
H    -1.1692808   -4.8937129   -2.5148626 
H    -0.8427978   -3.4341051   -3.4687496 
H     1.3955269   -4.4040178   -2.9757471 
H     0.9175411   -4.7291325   -1.2970388 
H     0.0009800    5.2971103   -1.1593146 
H    -0.1094633    4.3456442   -2.6597149 
H    -2.4367955    4.5468914   -1.7499731 
H    -1.8721760    3.9960220   -0.1536783 
H    -2.9555721   -2.0580570   -2.4701758 
H    -3.3616996   -3.6262120   -1.7782453 
H     1.8971172   -3.2887685    0.3392259 
H     3.1595255   -3.5211100   -0.8719721 
H     2.0989663    3.0115663   -2.5946367 
H     2.4828365    4.2890795   -1.4417927 
H    -4.0041664    2.2723724   -1.8691283 
H    -3.1972409    0.7153991   -1.6890723 
H    -4.5060016   -1.7322543   -0.5348795 
H    -2.9095237   -1.0728038   -0.0822879 
H    -3.4246287   -2.6615479    0.5365380 
H     3.6188407   -1.0245254   -0.8943592 
H     2.3396094   -0.7912392    0.3336301 
H     3.8107469   -1.7198315    0.7381972 
H     2.7422739    1.2711925   -0.7910178 
H     3.1867289    2.6157390    0.2810261 
H     4.0930194    2.3484794   -1.2346588 
H    -4.5061420    1.2102730    0.3528076 
H    -3.6732587    2.7674559    0.5831224 
H    -2.7730200    1.2353400    0.7672776 
