85
Energy =
C    -0.4663196   -1.2470072    2.3581153 
C     0.2601396   -0.0785378    2.7050971 
C    -0.3117451    1.2088348    2.4853943 
H     1.3194397   -0.1604226    2.9781488 
Pd   -0.1852868    0.1038668    0.5602166 
P    -0.2982942    1.8437101   -0.9726110 
P    -0.2540616   -1.3329313   -1.2726753 
H    -1.5629085   -1.1527643    2.3202646 
H    -1.4090168    1.2733911    2.5346777 
C     0.8733999   -5.3365799    2.4758307 
C    -0.4808146   -5.0280834    2.2787333 
C    -0.9003011   -3.6918614    2.2651964 
C     0.0244453   -2.6336645    2.4342444 
C     1.3816309   -2.9632864    2.6565638 
C     1.7991755   -4.2979322    2.6755504 
H     1.2053645   -6.3795645    2.4895696 
H    -1.2144624   -5.8299860    2.1459864 
H    -1.9634886   -3.4584287    2.1349557 
H     2.1209698   -2.1720993    2.8122046 
H     2.8545505   -4.5320556    2.8495057 
C     1.6620676    5.0206177    2.8467692 
C     2.4284199    3.8468949    2.7489038 
C     1.8028641    2.5994656    2.6450741 
C     0.3927258    2.4954872    2.6465316 
C    -0.3649740    3.6837437    2.7583317 
C     0.2616406    4.9331062    2.8536708 
H     2.1546298    5.9951287    2.9232544 
H     3.5218862    3.9062053    2.7470834 
H     2.4176919    1.6994562    2.5395779 
H    -1.4591297    3.6226337    2.7747608 
H    -0.3454344    5.8402012    2.9410002 
C    -1.3300658   -2.8725784   -1.1821391 
C     1.2908624   -2.2556960   -1.8262069 
C     0.7697594    3.3861776   -0.9109678 
C    -1.9418856    2.7822323   -1.0956427 
C    -0.7703954   -0.2841574   -2.7330250 
C    -0.0619023    1.0811409   -2.6654231 
C    -0.4072517   -4.0398385   -1.6184895 
C     1.0407273   -3.6706660   -1.2611317 
C    -0.1407293    4.4831542   -1.5039984 
C    -1.5463708    4.2720831   -0.9275324 
C    -2.6840269   -2.7846536   -1.9091834 
C     2.6596588   -1.6153531   -1.5346167 
C     2.1609527    3.2697786   -1.5519390 
C    -3.0504255    2.3334772   -0.1285996 
C    -3.5662877   -4.0173834   -1.6609119 
C     3.0301038   -1.4706186   -0.0557862 
C     3.0803086    2.2588222   -0.8580048 
C    -3.5643856    0.9081643   -0.3494296 
H    -1.5186507   -2.9798421   -0.0984978 
H     1.1721148   -2.3109151   -2.9270320 
H     0.8883980    3.5769953    0.1736216 
H    -2.2835770    2.6125433   -2.1355966 
H    -1.8659859   -0.1558783   -2.6731624 
H    -0.5477556   -0.8075785   -3.6796955 
H    -0.4319783    1.7674335   -3.4477995 
H     1.0250513    0.9597772   -2.8193442 
H    -0.7186028   -4.9784950   -1.1294990 
H    -0.4952089   -4.1905375   -2.7117012 
H     1.7672739   -4.3881367   -1.6824875 
H     1.1707699   -3.6780238   -0.1627008 
H     0.2563778    5.4842701   -1.2591805 
H    -0.1572659    4.4016662   -2.6083691 
H    -2.2980332    4.9232947   -1.4066711 
H    -1.5359224    4.5202105    0.1500506 
H    -3.2242142   -1.8802737   -1.5718768 
H    -2.5119870   -2.6634668   -2.9958458 
H     3.4235120   -2.2339771   -2.0430805 
H     2.7032467   -0.6270436   -2.0289284 
H     2.0562325    3.0285523   -2.6270509 
H     2.6245738    4.2736909   -1.5174343 
H    -2.6858146    2.4455943    0.9095675 
H    -3.8890256    3.0474924   -0.2353363 
H    -4.5436850   -3.9047351   -2.1597855 
H    -3.7504785   -4.1604709   -0.5807269 
H    -3.0960069   -4.9373608   -2.0485872 
H     2.2635658   -0.8812331    0.4870481 
H     3.1136451   -2.4519153    0.4383952 
H     3.9960166   -0.9495014    0.0534692 
H     2.6131572    1.2591007   -0.8083387 
H     3.2890864    2.5693192    0.1790177 
H     4.0418913    2.1599773   -1.3891568 
H    -4.3857850    0.6681974    0.3468450 
H    -2.7552307    0.1691263   -0.1784734 
H    -3.9431551    0.7705194   -1.3785558 
