85
Energy =
C    -0.6415364   -1.3435718    2.4196925 
C     0.1409137   -0.1926724    2.6942496 
C    -0.3729549    1.1113838    2.4310509 
H     1.2038470   -0.3103340    2.9389169 
Pd   -0.3427601   -0.1095048    0.5554753 
P    -0.3339832    1.4889404   -1.1433550 
P    -0.1528970   -1.6899763   -1.1296441 
H    -1.7337323   -1.2066028    2.3936354 
H    -1.4595952    1.2488196    2.5200628 
C     0.5283201   -5.4788802    2.7029469 
C    -0.8068981   -5.1221162    2.4629310 
C    -1.1695687   -3.7709698    2.3914548 
C    -0.2069541   -2.7462303    2.5509728 
C     1.1298101   -3.1234692    2.8175312 
C     1.4917962   -4.4727561    2.8895893 
H     0.8158815   -6.5334713    2.7611571 
H    -1.5697951   -5.8975780    2.3383872 
H    -2.2162795   -3.4975704    2.2154246 
H     1.8960509   -2.3583578    2.9785846 
H     2.5320156   -4.7432695    3.0981820 
C     1.8727177    4.7848042    2.5655996 
C     0.4726632    4.7955662    2.6577713 
C    -0.2433071    3.5915414    2.6329131 
C     0.4228525    2.3507566    2.5080051 
C     1.8349242    2.3567921    2.4092605 
C     2.5496739    3.5590742    2.4453116 
H     2.4344188    5.7240308    2.5871749 
H    -0.0639450    5.7447795    2.7574919 
H    -1.3360805    3.6060914    2.7164105 
H     2.3792719    1.4154246    2.2784397 
H     3.6418966    3.5422848    2.3697068 
C    -1.0953286   -3.3064058   -1.1831628 
C     1.5530071   -2.4872651   -1.3569126 
C     0.6693890    3.0711838   -0.9727471 
C    -1.9460346    2.3685818   -1.5736938 
C    -0.4742080   -0.8012518   -2.7436560 
C     0.1765162    0.5934306   -2.7045459 
C    -0.1231091   -4.2789501   -1.8825286 
C     1.2692740   -4.0106501   -1.2953016 
C    -0.3111675    4.2127305   -1.3428926 
C    -1.7307037    3.7696428   -0.9617187 
C    -2.5213694   -3.2433641   -1.7481244 
C     2.6474000   -2.0335639   -0.3762756 
C     2.0170208    3.0872959   -1.7167500 
C    -3.2777459    1.6692659   -1.2421943 
C    -3.4672727   -2.3582481   -0.9270622 
C     3.0759998   -0.5696682   -0.5068770 
C     2.8311119    4.3578440   -1.4286399 
C    -3.5378087    1.3627889    0.2359250 
H    -1.1479699   -3.5960368   -0.1148871 
H     1.8534860   -2.2169358   -2.3885010 
H     0.8713552    3.1275395    0.1123318 
H    -1.8907985    2.4775360   -2.6750737 
H    -1.5695689   -0.7148367   -2.8591907 
H    -0.0969161   -1.3991056   -3.5924104 
H    -0.0943870    1.1913783   -3.5926729 
H     1.2775082    0.5065349   -2.6854223 
H    -0.4420393   -5.3243170   -1.7222681 
H    -0.1272426   -4.1014635   -2.9756932 
H     2.0624793   -4.5670222   -1.8243727 
H     1.2885808   -4.3370571   -0.2379485 
H    -0.0237713    5.1451303   -0.8282547 
H    -0.2621880    4.4069664   -2.4317994 
H    -2.4999262    4.4719938   -1.3291985 
H    -1.8240373    3.7258653    0.1393310 
H    -2.4936790   -2.9071016   -2.8022173 
H    -2.9142591   -4.2773184   -1.7758269 
H     2.3009764   -2.2338557    0.6533264 
H     3.5239156   -2.6893854   -0.5381497 
H     2.6099761    2.2039268   -1.4168245 
H     1.8418652    2.9980309   -2.8062368 
H    -4.0859654    2.3192715   -1.6281171 
H    -3.3461585    0.7335211   -1.8278068 
H    -4.4786873   -2.3352668   -1.3660629 
H    -3.0983039   -1.3185736   -0.8695728 
H    -3.5551903   -2.7285130    0.1096361 
H     3.4271701   -0.3380489   -1.5290189 
H     2.2328231    0.1081605   -0.2673679 
H     3.8975917   -0.3328687    0.1908560 
H     3.0032174    4.4740206   -0.3441872 
H     2.3112770    5.2625497   -1.7881017 
H     3.8121459    4.3135358   -1.9313940 
H    -4.5256458    0.8902922    0.3661157 
H    -3.5141495    2.2735854    0.8589484 
H    -2.7752212    0.6615121    0.6298597 
