85
Energy =
C    -0.2532649   -1.2982592    2.4294747 
C     0.3464769   -0.0516535    2.7540451 
C    -0.3312337    1.1666702    2.4703005 
H     1.4017002   -0.0221676    3.0512373 
Pd   -0.0599359   -0.0087716    0.5946585 
P    -0.1338991    1.6670812   -1.0145045 
P    -0.1002816   -1.5206159   -1.1756769 
H    -1.3528370   -1.3238994    2.3781201 
H    -1.4310450    1.1286421    2.4620430 
C     1.5423102   -5.1996713    2.7543006 
C     0.1823085   -5.0569789    2.4390900 
C    -0.3882579   -3.7807846    2.3566388 
C     0.3891819   -2.6185579    2.5703521 
C     1.7546124   -2.7800663    2.9010074 
C     2.3215618   -4.0555141    2.9943483 
H     1.9905796   -6.1957588    2.8250836 
H    -0.4387597   -5.9428159    2.2699032 
H    -1.4565879   -3.6761623    2.1333529 
H     2.3868456   -1.9041299    3.0768229 
H     3.3804008   -4.1591272    3.2529615 
C     1.2396290    5.1652094    2.7633064 
C    -0.1428104    4.9394726    2.6808950 
C    -0.6375490    3.6309420    2.6079042 
C     0.2374303    2.5204857    2.6094063 
C     1.6274936    2.7636220    2.6979249 
C     2.1207967    4.0706378    2.7777283 
H     1.6293715    6.1863998    2.8222607 
H    -0.8387924    5.7847357    2.6796921 
H    -1.7188110    3.4606525    2.5507873 
H     2.3325284    1.9260352    2.6843981 
H     3.2006997    4.2384601    2.8458635 
C    -1.3453603   -2.9063323   -1.2140145 
C     1.3615363   -2.6160226   -1.6629191 
C     0.7704865    3.3088141   -0.9256001 
C    -1.8370234    2.4170140   -1.3400990 
C    -0.4202999   -0.5019261   -2.7188487 
C     0.3220152    0.8426614   -2.6266958 
C    -0.7836842   -3.8438627   -2.3031430 
C     0.7227045   -3.9934384   -2.0251690 
C    -0.2141249    4.3023184   -1.5834363 
C    -1.6317834    3.9366229   -1.1220058 
C    -2.8166028   -2.4770676   -1.3319742 
C     2.4632954   -2.7547071   -0.5976886 
C     2.1946267    3.3286407   -1.5032990 
C    -2.9724357    1.7809374   -0.5177221 
C    -3.7988877   -3.6426966   -1.1428442 
C     3.1825296   -1.4561719   -0.2292729 
C     3.1862753    2.4285465   -0.7582831 
C    -4.3580936    2.3488681   -0.8532975 
H    -1.1958867   -3.3957625   -0.2304119 
H     1.7868943   -2.1398224   -2.5667628 
H     0.8181703    3.5274874    0.1584188 
H    -2.0292059    2.2356903   -2.4164436 
H    -1.5111825   -0.3349490   -2.7819524 
H    -0.1206976   -1.0660324   -3.6193503 
H     0.0774593    1.5003526   -3.4799427 
H     1.4164588    0.6864993   -2.6253810 
H    -1.2875028   -4.8261168   -2.2843555 
H    -0.9672469   -3.4088265   -3.3044877 
H     1.2559396   -4.4529448   -2.8745576 
H     0.8539696   -4.6665098   -1.1580738 
H     0.0517229    5.3391396   -1.3113739 
H    -0.1392201    4.2269126   -2.6859841 
H    -2.4007282    4.5173815   -1.6593963 
H    -1.7374423    4.1661713   -0.0451150 
H    -3.0216928   -1.6988093   -0.5714403 
H    -2.9894114   -2.0059119   -2.3181790 
H     2.0273907   -3.2109387    0.3086413 
H     3.1973882   -3.4875447   -0.9845326 
H     2.1627558    3.0647511   -2.5779469 
H     2.5483608    4.3763321   -1.4641514 
H    -2.9694345    0.6871609   -0.6851475 
H    -2.7558929    1.9252996    0.5580182 
H    -4.8420082   -3.2871643   -1.1915110 
H    -3.6515061   -4.1292894   -0.1618279 
H    -3.6711268   -4.4116778   -1.9240529 
H     3.6446745   -0.9803455   -1.1129949 
H     2.4751213   -0.7287833    0.2181821 
H     3.9800268   -1.6438026    0.5095892 
H     2.8591088    1.3737522   -0.7633053 
H     3.2785487    2.7377933    0.2964666 
H     4.1877602    2.4731591   -1.2183540 
H    -5.1429637    1.8337352   -0.2736188 
H    -4.5907393    2.2215340   -1.9260300 
H    -4.4228967    3.4257693   -0.6200483 
