85
Energy =
C    -0.6151555   -1.3014361    2.4719751 
C     0.1436724   -0.1474623    2.7784826 
C    -0.3897397    1.1542480    2.5112492 
H     1.2016717   -0.2512301    3.0505915 
Pd   -0.2996007   -0.0082161    0.6318203 
P    -0.5258751    1.6595201   -0.9634437 
P     0.0215352   -1.4930889   -1.1214613 
H    -1.7035266   -1.1614305    2.3706005 
H    -1.4758680    1.2792132    2.6276515 
C     0.4977352   -5.4421757    2.8309606 
C    -0.7834383   -5.0750466    2.3912257 
C    -1.1291292   -3.7218975    2.2947541 
C    -0.2008514   -2.7063258    2.6251088 
C     1.0779505   -3.0931713    3.0886061 
C     1.4218352   -4.4456216    3.1872795 
H     0.7709458   -6.4991100    2.9113336 
H    -1.5172467   -5.8448162    2.1310189 
H    -2.1360043   -3.4396676    1.9655761 
H     1.8092882   -2.3338280    3.3836097 
H     2.4157076   -4.7260575    3.5508338 
C     1.8652331    4.8274332    2.6277107 
C     0.4755449    4.8345589    2.8207425 
C    -0.2452876    3.6328852    2.8020493 
C     0.4055084    2.3979614    2.5836681 
C     1.8077986    2.4069258    2.3886555 
C     2.5280625    3.6065628    2.4167365 
H     2.4295085    5.7652525    2.6438612 
H    -0.0496874    5.7795274    2.9943881 
H    -1.3288195    3.6476601    2.9659937 
H     2.3369763    1.4696022    2.1838945 
H     3.6122987    3.5910699    2.2639893 
C    -1.2539816   -2.8320786   -1.4306818 
C     1.5051449   -2.6552169   -1.1687572 
C     0.7678026    3.0069801   -1.0584013 
C    -1.9999525    2.8379890   -0.9632573 
C     0.2207347   -0.4630579   -2.6738610 
C    -0.6361909    0.8088989   -2.6291149 
C    -0.4269270   -4.0399151   -1.9273919 
C     0.8745463   -4.0656795   -1.1089501 
C    -0.0151136    4.2409190   -1.5599168 
C    -1.3659141    4.2436289   -0.8272312 
C    -2.4577194   -2.4050431   -2.2880246 
C     2.5835304   -2.3775884   -0.1108745 
C     2.0509553    2.6359198   -1.8197599 
C    -3.0926612    2.5172240    0.0684227 
C    -3.5406441   -3.4898250   -2.3861713 
C     3.2137209   -0.9831056   -0.1977344 
C     3.1396147    3.7141115   -1.7106541 
C    -3.7408705    1.1396522   -0.1112776 
H    -1.6129414   -3.0671524   -0.4094165 
H     1.9382748   -2.5053921   -2.1781443 
H     1.0277495    3.1743191    0.0052093 
H    -2.4285000    2.7379391   -1.9801774 
H     0.0005017   -1.0738174   -3.5676313 
H     1.2945580   -0.2046069   -2.7117860 
H    -1.7050948    0.5604962   -2.7601199 
H    -0.3634066    1.5147571   -3.4342727 
H    -0.9958457   -4.9792477   -1.8154872 
H    -0.2010934   -3.9216787   -3.0055438 
H     1.5865919   -4.8209817   -1.4849855 
H     0.6482264   -4.3230706   -0.0570647 
H     0.5500747    5.1691002   -1.3677145 
H    -0.1677675    4.1722247   -2.6552245 
H    -2.0524777    5.0137108   -1.2200410 
H    -1.1974011    4.4654717    0.2427596 
H    -2.9008637   -1.4885133   -1.8536600 
H    -2.1115902   -2.1379768   -3.3049604 
H     2.1407990   -2.5274307    0.8893350 
H     3.3682281   -3.1499582   -0.2198691 
H     2.4443008    1.6847255   -1.4158032 
H     1.8136926    2.4545473   -2.8859799 
H    -2.6611910    2.6023448    1.0829950 
H    -3.8659288    3.3052507   -0.0031351 
H    -4.4052330   -3.1267629   -2.9673070 
H    -3.9031597   -3.7791341   -1.3833766 
H    -3.1604970   -4.3981918   -2.8843468 
H     3.6618165   -0.7973332   -1.1909265 
H     2.4534194   -0.1981143   -0.0124325 
H     4.0088943   -0.8587791    0.5572434 
H     3.3833471    3.9176970   -0.6527317 
H     2.8191359    4.6632594   -2.1734940 
H     4.0633439    3.3893524   -2.2189747 
H    -4.5420806    0.9751823    0.6289568 
H    -2.9918222    0.3319448    0.0205207 
H    -4.1831777    1.0301664   -1.1182384 
