85
Energy =
C    -0.6934881   -1.3488038    2.4119575 
C     0.0703311   -0.1935078    2.7181984 
C    -0.4465257    1.1081454    2.4407903 
H     1.1262241   -0.3037019    2.9956214 
Pd   -0.3698169   -0.0827772    0.5703719 
P    -0.4374428    1.5837161   -1.0461690 
P    -0.2732151   -1.5852478   -1.2003374 
H    -1.7870372   -1.2256445    2.3722562 
H    -1.5364199    1.2376692    2.5130424 
C     0.5415957   -5.4678313    2.6073801 
C    -0.8136537   -5.1282863    2.4866994 
C    -1.1978238   -3.7815356    2.4421276 
C    -0.2371534   -2.7455860    2.5161858 
C     1.1236010   -3.1050740    2.6555011 
C     1.5065918   -4.4492704    2.6980838 
H     0.8460536   -6.5187275    2.6427217 
H    -1.5751186   -5.9131611    2.4323358 
H    -2.2589150   -3.5216629    2.3542769 
H     1.8916086   -2.3292983    2.7249757 
H     2.5652432   -4.7072132    2.8067268 
C     1.7956198    4.7873027    2.5735834 
C     2.4715792    3.5614747    2.4473951 
C     1.7564318    2.3596843    2.4116146 
C     0.3453222    2.3529537    2.5202272 
C    -0.3197170    3.5927858    2.6548399 
C     0.3965192    4.7972695    2.6762837 
H     2.3574043    5.7265392    2.5936252 
H     3.5633979    3.5442137    2.3665487 
H     2.2994767    1.4186149    2.2734037 
H    -1.4111677    3.6096181    2.7516158 
H    -0.1397536    5.7458923    2.7833541 
C    -0.9949888   -3.3183800   -1.1263124 
C     1.4357914   -2.1576065   -1.7777115 
C     0.7600582    3.0151449   -1.0389826 
C    -1.9824727    2.6690708   -1.2078813 
C    -0.9515857   -0.6549089   -2.6727616 
C    -0.2936466    0.7386148   -2.7159913 
C     0.0908829   -4.2293953   -1.7455335 
C     1.4606774   -3.6469777   -1.3695794 
C     0.0031062    4.1164812   -1.8109778 
C    -1.4333620    4.1222728   -1.2644283 
C    -2.4093111   -3.4994874   -1.7000711 
C     2.6608147   -1.3098038   -1.3867497 
C     2.1954438    2.6876367   -1.4786345 
C    -3.0527908    2.4683691   -0.1220811 
C    -3.5024087   -2.7716412   -0.9088205 
C     2.9484567   -1.1811058    0.1115139 
C     3.1498382    3.8829399   -1.3388641 
C    -3.6935438    1.0791367   -0.1077238 
H    -1.0252572   -3.5260087   -0.0392603 
H     1.3481569   -2.1228813   -2.8821565 
H     0.7859214    3.3056018    0.0301605 
H    -2.4152550    2.3974115   -2.1898527 
H    -2.0458577   -0.5679521   -2.5436306 
H    -0.7660928   -1.2146020   -3.6068159 
H    -0.7436078    1.3718344   -3.5005962 
H     0.7820830    0.6464851   -2.9482286 
H    -0.0346918   -5.2648521   -1.3835783 
H    -0.0200119   -4.2506079   -2.8468661 
H     2.2912409   -4.1692077   -1.8768679 
H     1.6219249   -3.7477477   -0.2797130 
H     0.4852240    5.0995055   -1.6716923 
H     0.0149127    3.8995031   -2.8970664 
H    -2.1056084    4.7619258   -1.8618346 
H    -1.4192315    4.5322689   -0.2372517 
H    -2.4264247   -3.1869734   -2.7617258 
H    -2.6234949   -4.5852430   -1.7042622 
H     3.5376253   -1.7592985   -1.8907619 
H     2.5510509   -0.3009262   -1.8239104 
H     2.5660745    1.8504196   -0.8576591 
H     2.2002503    2.3358415   -2.5279286 
H    -2.6047862    2.6891307    0.8644562 
H    -3.8332405    3.2368420   -0.2805056 
H    -4.4978250   -2.9487407   -1.3493892 
H    -3.3342680   -1.6810255   -0.8878276 
H    -3.5285640   -3.1199448    0.1387480 
H     2.0829779   -0.7236757    0.6330595 
H     3.1503059   -2.1601303    0.5768071 
H     3.8267693   -0.5360947    0.2842046 
H     3.1433988    4.2701159   -0.3050091 
H     2.8668184    4.7089689   -2.0137333 
H     4.1829285    3.5872489   -1.5887778 
H    -4.4767674    1.0052963    0.6656724 
H    -2.9320351    0.3026389    0.1119413 
H    -4.1553542    0.8359635   -1.0817954 
