85
Energy =
C    -0.4648207   -1.2650081    2.5232966 
C     0.3037810   -0.1029495    2.7685843 
C    -0.2503314    1.1920088    2.5106754 
H     1.3758425   -0.1978085    2.9827021 
Pd   -0.2604189   -0.0000624    0.6483252 
P    -0.5890075    1.6410013   -0.9567073 
P    -0.0329763   -1.5109869   -1.0972624 
H    -1.5578429   -1.1314291    2.4804634 
H    -1.3287462    1.3146568    2.6861464 
C     0.6880610   -5.3942444    2.8884106 
C    -0.6175543   -5.0401534    2.5148869 
C    -0.9750705   -3.6903104    2.4150193 
C    -0.0350308   -2.6653073    2.6757539 
C     1.2698159   -3.0387414    3.0729797 
C     1.6256075   -4.3878384    3.1752306 
H     0.9707107   -6.4484782    2.9715696 
H    -1.3608105   -5.8173815    2.3094310 
H    -2.0001840   -3.4180126    2.1378818 
H     2.0127998   -2.2714242    3.3132978 
H     2.6396675   -4.6578300    3.4872808 
C     1.9896273    4.8753204    2.4341772 
C     2.6459113    3.6531160    2.2106875 
C     1.9311153    2.4503952    2.2453301 
C     0.5417221    2.4398063    2.5171554 
C    -0.1021243    3.6761600    2.7477018 
C     0.6126645    4.8807873    2.7034939 
H     2.5492938    5.8154567    2.4011658 
H     3.7201688    3.6388500    1.9988555 
H     2.4529043    1.5112519    2.0301628 
H    -1.1750372    3.6899002    2.9707629 
H     0.0931397    5.8268959    2.8877461 
C    -1.3189721   -2.8579722   -1.3150889 
C     1.4499679   -2.6694718   -1.2111591 
C     0.6866048    2.9959038   -1.1452259 
C    -2.0700029    2.8091252   -0.8916704 
C     0.0760682   -0.5034964   -2.6731890 
C    -0.7842468    0.7649220   -2.6013859 
C    -0.5165467   -4.0708616   -1.8391485 
C     0.8289352   -4.0806523   -1.0947830 
C    -0.1329258    4.2144458   -1.6253396 
C    -1.4406458    4.2215772   -0.8184037 
C    -2.5696167   -2.4470973   -2.1110245 
C     2.5853677   -2.3726380   -0.2202131 
C     1.9296230    2.6201951   -1.9684942 
C    -3.0981621    2.5000843    0.2076594 
C    -3.6530472   -3.5356458   -2.1321624 
C     3.2023183   -0.9767164   -0.3621016 
C     3.0124349    3.7093364   -1.9405473 
C    -3.7463751    1.1158688    0.0902799 
H    -1.6201024   -3.0786060   -0.2721651 
H     1.8249063   -2.5336335   -2.2455971 
H     1.0024877    3.1846532   -0.1004540 
H    -2.5562882    2.6871199   -1.8797247 
H    -0.1882364   -1.1287040   -3.5448212 
H     1.1448888   -0.2406035   -2.7722622 
H    -1.8571611    0.5096070   -2.6717299 
H    -0.5585195    1.4600500   -3.4301104 
H    -1.0748438   -5.0099943   -1.6816486 
H    -0.3519538   -3.9682374   -2.9299257 
H     1.5214832   -4.8396460   -1.4987676 
H     0.6629671   -4.3225749   -0.0280188 
H     0.4344299    5.1501960   -1.4825238 
H    -0.3458315    4.1236997   -2.7089573 
H    -2.1543965    4.9790129   -1.1865515 
H    -1.2142204    4.4653523    0.2359858 
H    -2.9908552   -1.5249057   -1.6670989 
H    -2.2809451   -2.1953001   -3.1495909 
H     2.2009366   -2.5103434    0.8055156 
H     3.3665667   -3.1430461   -0.3630613 
H     2.3532415    1.6804295   -1.5682221 
H     1.6361292    2.4155470   -3.0163500 
H    -2.6087700    2.6057466    1.1935459 
H    -3.8796956    3.2822102    0.1679414 
H    -4.5495944   -3.1836246   -2.6700331 
H    -3.9586354   -3.8099207   -1.1063965 
H    -3.2983453   -4.4509320   -2.6364024 
H     3.5926538   -0.8032560   -1.3815564 
H     2.4495200   -0.1925158   -0.1452207 
H     4.0380470   -0.8379316    0.3450103 
H     3.3111715    3.9367570   -0.9017755 
H     2.6583843    4.6460032   -2.4043454 
H     3.9102484    3.3818362   -2.4917589 
H    -4.5010029    0.9596652    0.8796546 
H    -2.9852818    0.3150432    0.1906968 
H    -4.2470395    0.9862992   -0.8864870 
