85
Energy =
C    -0.4840468   -1.1582296    2.3953851 
C     0.2038199    0.0370808    2.7283763 
C    -0.3829012    1.3051865    2.4440389 
H     1.2562085   -0.0126943    3.0336657 
Pd   -0.1816196    0.1326417    0.5682067 
P    -0.2802645    1.8238096   -1.0283757 
P    -0.1465571   -1.3727097   -1.2051286 
H    -1.5803973   -1.0938059    2.3147477 
H    -1.4817305    1.3563624    2.4635598 
C     0.9601181   -5.2016017    2.7007953 
C    -0.3755951   -4.9371587    2.3612479 
C    -0.8302868   -3.6152639    2.2848152 
C     0.0405668   -2.5285637    2.5336835 
C     1.3775761   -2.8121788    2.8947447 
C     1.8302144   -4.1331723    2.9760660 
H     1.3189663   -6.2337757    2.7647414 
H    -1.0673238   -5.7628408    2.1639321 
H    -1.8770563   -3.4140111    2.0292747 
H     2.0750902   -1.9969144    3.1091973 
H     2.8693797   -4.3326505    3.2573478 
C     1.5459124    5.1486534    2.7010702 
C     0.1465234    5.0465694    2.6981985 
C    -0.4667249    3.7882341    2.6379377 
C     0.3041536    2.6054450    2.5726566 
C     1.7134381    2.7241659    2.5810753 
C     2.3255154    3.9806395    2.6488116 
H     2.0275319    6.1304316    2.7490544 
H    -0.4705165    5.9496458    2.7497322 
H    -1.5602695    3.7162282    2.6455446 
H     2.3382653    1.8274930    2.5108926 
H     3.4182583    4.0512146    2.6534756 
C    -1.1446879   -2.9409997   -1.2357682 
C     1.4232016   -2.2433181   -1.7576412 
C     0.7868677    3.3687357   -0.9953538 
C    -1.9198907    2.7591530   -1.2180285 
C    -0.6597199   -0.3874761   -2.7149061 
C     0.0030267    1.0004933   -2.6839851 
C    -0.6211691   -3.6443482   -2.5040125 
C     0.9229923   -3.5102445   -2.5394848 
C    -0.1155192    4.4539331   -1.6219349 
C    -1.5305422    4.2517815   -1.0675203 
C    -2.6664092   -2.7824602   -1.0974820 
C     2.3452068   -2.6263059   -0.5785893 
C     2.1828093    3.2443887   -1.6244870 
C    -3.0568597    2.3282034   -0.2772539 
C    -3.4036759   -4.1269872   -1.0074450 
C     3.0441624   -1.4559133    0.1152215 
C     3.0812312    2.1990820   -0.9561963 
C    -3.5495533    0.8940939   -0.4818752 
H    -0.7656103   -3.4837998   -0.3454444 
H     1.9621251   -1.5491040   -2.4286495 
H     0.8976377    3.5836966    0.0852412 
H    -2.2288998    2.5687567   -2.2646038 
H    -1.7606589   -0.2966636   -2.6871449 
H    -0.3931528   -0.9301459   -3.6383723 
H    -0.3681601    1.6447216   -3.5007923 
H     1.0962434    0.9039943   -2.8119491 
H    -0.9177699   -4.7072534   -2.5165452 
H    -1.0836627   -3.1801153   -3.3949233 
H     1.2906822   -3.4932671   -3.5785565 
H     1.3726486   -4.3975392   -2.0614864 
H     0.2769110    5.4596428   -1.3887887 
H    -0.1133230    4.3521093   -2.7247636 
H    -2.2740465    4.8927400   -1.5726120 
H    -1.5411792    4.5189791    0.0054015 
H    -2.8772645   -2.1888304   -0.1884823 
H    -3.0626860   -2.1980617   -1.9500043 
H     1.7666120   -3.2132365    0.1601302 
H     3.1106621   -3.3178093   -0.9796679 
H     2.0840258    3.0348547   -2.7069821 
H     2.6608751    4.2398092   -1.5568145 
H    -2.7268863    2.4678703    0.7692155 
H    -3.8957395    3.0337573   -0.4286068 
H    -4.4832144   -3.9709231   -0.8427360 
H    -3.0158778   -4.7348795   -0.1698883 
H    -3.2887548   -4.7167543   -1.9330159 
H     3.6867104   -0.8981701   -0.5883485 
H     2.3082887   -0.7429563    0.5388079 
H     3.6801397   -1.8164390    0.9409495 
H     2.6346432    1.1902965   -1.0093206 
H     3.2287916    2.4327246    0.1117519 
H     4.0720579    2.1560979   -1.4390127 
H    -4.3860515    0.6565902    0.1970120 
H    -2.7363117    0.1703427   -0.2752458 
H    -3.8975240    0.7289232   -1.5177804 
