85
Energy =
C    -0.5459185   -1.2277408    2.4206406 
C     0.1091496   -0.0082415    2.7380793 
C    -0.5250236    1.2413035    2.4843127 
H     1.1723181   -0.0246463    3.0064404 
Pd   -0.3541798    0.0752473    0.5939975 
P    -0.3689173    1.7679589   -1.0110016 
P    -0.2950799   -1.4338461   -1.1789543 
H    -1.6465169   -1.2115854    2.3979097 
H    -1.6251651    1.2559402    2.5147353 
C     1.0970532   -5.2033716    2.6522704 
C    -0.2736482   -5.0018535    2.4310446 
C    -0.7914277   -3.7018345    2.3748312 
C     0.0479775   -2.5740860    2.5274565 
C     1.4243953   -2.7949343    2.7663582 
C     1.9405850   -4.0936314    2.8286768 
H     1.5050324   -6.2180194    2.7009726 
H    -0.9435328   -5.8597882    2.3118247 
H    -1.8645799   -3.5499927    2.2171159 
H     2.1034482   -1.9465610    2.8991115 
H     3.0090097   -4.2425926    3.0163193 
C     1.2754412    5.1466122    2.7543938 
C    -0.1193220    4.9994516    2.7109894 
C    -0.6901008    3.7217345    2.6467691 
C     0.1187861    2.5629772    2.6170093 
C     1.5225795    2.7274393    2.6710252 
C     2.0924619    4.0035499    2.7416270 
H     1.7239732    6.1437637    2.8060775 
H    -0.7660844    5.8826775    2.7341291 
H    -1.7805340    3.6153690    2.6228308 
H     2.1784145    1.8513265    2.6406878 
H     3.1816918    4.1084437    2.7822072 
C    -1.2122621   -3.0618834   -1.2985433 
C     1.3818377   -2.1666172   -1.6533520 
C     0.7798956    3.2541742   -0.9396247 
C    -1.9431094    2.7961842   -1.2638565 
C    -0.7802303   -0.4413356   -2.6913963 
C    -0.0696552    0.9229747   -2.6546547 
C    -0.3896518   -3.8320203   -2.3541404 
C     1.0921518   -3.6591001   -1.9852507 
C    -0.0373352    4.3866878   -1.5982246 
C    -1.4789700    4.2639008   -1.0923054 
C    -2.7303161   -2.9938066   -1.5399690 
C     2.4647702   -1.9688224   -0.5773178 
C     2.1918342    3.0591305   -1.5122955 
C    -3.1364813    2.4185360   -0.3729720 
C    -3.5377264   -2.6533118   -0.2806380 
C     3.8494692   -2.4610119   -1.0169943 
C     3.0277179    2.0053552   -0.7792909 
C    -3.7082352    1.0275346   -0.6492424 
H    -1.0245111   -3.5343948   -0.3130660 
H     1.6827205   -1.6298995   -2.5741953 
H     0.8594047    3.4654369    0.1444167 
H    -2.2184768    2.6265252   -2.3232864 
H    -1.8767773   -0.3092918   -2.6663269 
H    -0.5310239   -0.9965474   -3.6129026 
H    -0.3979566    1.5733212   -3.4847098 
H     1.0228210    0.7882516   -2.7546213 
H    -0.6821845   -4.8974304   -2.3657888 
H    -0.5980724   -3.4328941   -3.3655722 
H     1.7600846   -4.0201082   -2.7852628 
H     1.3063875   -4.2640559   -1.0841355 
H     0.4028536    5.3690706   -1.3513522 
H    -0.0028942    4.2825855   -2.7003351 
H    -2.1684776    4.9453836   -1.6204415 
H    -1.5111192    4.5291647   -0.0194259 
H    -2.9561843   -2.2773551   -2.3521771 
H    -3.0528475   -3.9809995   -1.9208797 
H     2.5186794   -0.8978276   -0.3095860 
H     2.1492844   -2.4983786    0.3395718 
H     2.1263764    2.8210394   -2.5912964 
H     2.7043484    4.0380587   -1.4553763 
H    -2.8315900    2.4984938    0.6872591 
H    -3.9222819    3.1825833   -0.5250757 
H    -4.6023425   -2.4920851   -0.5186926 
H    -3.1577369   -1.7386686    0.2075358 
H    -3.4776847   -3.4740724    0.4549304 
H     3.8459917   -3.5430527   -1.2360791 
H     4.1903554   -1.9334362   -1.9264812 
H     4.5963540   -2.2842427   -0.2239977 
H     2.5376720    1.0148152   -0.8040343 
H     3.1587602    2.2772274    0.2817144 
H     4.0270709    1.8988839   -1.2337653 
H    -4.5649867    0.8032742    0.0080736 
H    -2.9391971    0.2523465   -0.4683097 
H    -4.0488101    0.9306406   -1.6961474 
