85
Energy =
C    -0.3345512   -1.4236970    2.4101718 
C     0.2791734   -0.1820465    2.6924765 
C    -0.3950977    1.0468809    2.4123253 
H     1.3432227   -0.1585736    2.9589897 
Pd   -0.1962896   -0.1286869    0.5438194 
P    -0.5597080    1.5405163   -1.0308887 
P     0.0971995   -1.6139798   -1.2368743 
H    -1.4315737   -1.4296965    2.3074649 
H    -1.4892397    1.0503783    2.5191388 
C     1.3899255   -5.3395884    2.8526210 
C     0.1106054   -5.1755762    2.2973129 
C    -0.4427924   -3.8955747    2.1812116 
C     0.2758195   -2.7509855    2.5991809 
C     1.5524343   -2.9340789    3.1784159 
C     2.1014888   -4.2151747    3.3024448 
H     1.8240291   -6.3397555    2.9494804 
H    -0.4596959   -6.0488571    1.9640729 
H    -1.4469200   -3.7714042    1.7593542 
H     2.1233385   -2.0726069    3.5381866 
H     3.0901635   -4.3388672    3.7559935 
C     1.4555690    4.9371052    2.5890685 
C     2.2417272    3.7979119    2.3472578 
C     1.6507927    2.5306331    2.2965960 
C     0.2588689    2.3702394    2.4957629 
C    -0.5162814    3.5238616    2.7484577 
C     0.0747681    4.7938344    2.7916155 
H     1.9183076    5.9285074    2.6240767 
H     3.3205322    3.8997293    2.1888846 
H     2.2723237    1.6568822    2.0721710 
H    -1.5928496    3.4216218    2.9247016 
H    -0.5448787    5.6738924    2.9928137 
C    -1.2133084   -2.9066614   -1.6144369 
C     1.5479045   -2.8175705   -1.4557387 
C     0.6562154    2.9632601   -1.1946147 
C    -2.0943389    2.6459221   -0.9977602 
C     0.2106241   -0.5535522   -2.7826050 
C    -0.6737412    0.6980925   -2.7000960 
C    -0.4711443   -3.9039735   -2.5267067 
C     0.8974712   -4.1636716   -1.8826890 
C    -0.2139957    4.1203464   -1.7295547 
C    -1.5381458    4.0908109   -0.9545046 
C    -2.5585857   -2.3917114   -2.1451446 
C     2.4847085   -2.9893500   -0.2474200 
C     1.9391010    2.6795163   -1.9892158 
C    -3.1143605    2.3035524    0.1018910 
C    -3.3433232   -1.5463814   -1.1357869 
C     3.2018322   -1.7242461    0.2275321 
C     2.8833666    1.6846226   -1.3070363 
C    -4.3934398    3.1484405    0.0214134 
H    -1.3778365   -3.3959864   -0.6336942 
H     2.1216665   -2.3944155   -2.3026489 
H     0.9267182    3.1911374   -0.1448925 
H    -2.5673515    2.4785398   -1.9856955 
H    -0.0386709   -1.1611016   -3.6713559 
H     1.2743760   -0.2710542   -2.8745522 
H    -1.7385990    0.4295129   -2.8201924 
H    -0.4312556    1.4187342   -3.5021278 
H    -1.0541424   -4.8358223   -2.6387436 
H    -0.3572154   -3.4764090   -3.5419442 
H     1.5749754   -4.7208922   -2.5522492 
H     0.7549838   -4.7817511   -0.9764938 
H     0.3131683    5.0833902   -1.6083162 
H    -0.3969428    3.9861815   -2.8141211 
H    -2.2725077    4.8032849   -1.3671420 
H    -1.3517987    4.3771785    0.0975078 
H    -2.3971291   -1.8271119   -3.0837563 
H    -3.1629106   -3.2728690   -2.4327218 
H     1.9103380   -3.4289577    0.5853581 
H     3.2350690   -3.7517383   -0.5323371 
H     1.6805882    2.3333612   -3.0088753 
H     2.4620029    3.6444556   -2.1296905 
H    -3.3754144    1.2315570    0.0376574 
H    -2.6332507    2.4475951    1.0854807 
H    -4.2964230   -1.1910833   -1.5623682 
H    -2.7614128   -0.6619828   -0.8148337 
H    -3.5739540   -2.1284681   -0.2257906 
H     3.8128909   -1.2736459   -0.5747131 
H     2.4748621   -0.9618717    0.5691206 
H     3.8699621   -1.9527310    1.0750299 
H     2.3768259    0.7248126   -1.1021024 
H     3.2338902    2.0758646   -0.3366932 
H     3.7684052    1.4766653   -1.9317208 
H    -5.1131875    2.8415001    0.7992940 
H    -4.8865733    3.0318897   -0.9604979 
H    -4.1813986    4.2219412    0.1669910 
