99
Energy =
C     1.6102922    0.7292678   -2.4928735 
C     1.1580714    1.9654150   -1.9762932 
C     1.6150455    2.4533252   -0.7227220 
H     0.3549242    2.4996357   -2.4971392 
Pd    0.5329196    0.4776301   -0.4526378 
P     0.1014074    0.9141597    1.8173976 
P    -0.1723722   -1.7429201   -0.9123324 
H     2.5462518    0.3238946   -2.0813605 
H     2.5853289    2.0792953   -0.3665192 
C     0.4952972   -1.0357431   -6.2544816 
C    -0.2026495    0.0907204   -5.7843397 
C     0.1506329    0.6811969   -4.5679781 
C     1.2071583    0.1546416   -3.7853535 
C     1.9143813   -0.9631971   -4.2847258 
C     1.5603787   -1.5533602   -5.5037060 
H     0.2166373   -1.4961233   -7.2078598 
H    -1.0225706    0.5130376   -6.3743596 
H    -0.3999593    1.5625351   -4.2264668 
H     2.7475778   -1.3730411   -3.7043876 
H     2.1203179   -2.4213139   -5.8663943 
C     0.3940175    6.1109676    1.1875502 
C     1.5434014    5.4272760    1.6112921 
C     1.9380180    4.2485522    0.9674247 
C     1.1859917    3.7228591   -0.1091161 
C     0.0447208    4.4387336   -0.5427098 
C    -0.3469919    5.6167565    0.0998823 
H     0.0821540    7.0314186    1.6915723 
H     2.1366183    5.8111390    2.4474428 
H     2.8340907    3.7184854    1.3058543 
H    -0.5511111    4.0687717   -1.3833718 
H    -1.2353917    6.1544053   -0.2471849 
C    -4.1939713    1.1513503   -0.1315601 
C    -3.6968149    1.4077087   -1.5705651 
C    -3.1017706    1.1322229    0.9529271 
C    -2.5004622    0.5542215   -2.0241783 
C    -2.2272460    2.3884419    1.0252741 
C    -2.7228374   -0.9655102   -2.0214689 
C    -1.0959979    2.3224947    2.0675581 
C    -1.4429534   -1.7848722   -2.2861497 
C    -0.3970936   -0.4576963    2.9380788 
C     1.6517934    1.4637038    2.6524100 
C     1.2695122   -2.6745119   -1.5678086 
C    -0.8792941   -2.9180428    0.3226327 
C     0.4376276   -1.5955943    2.9620777 
C     2.8883476    0.9695257    2.1914008 
C     2.5322933   -2.4306666   -0.9875504 
C    -2.0377603   -2.5660822    1.0473839 
C    -1.5035593   -0.4001137    3.8054804 
C     1.6292842    2.3403487    3.7549832 
C     1.1607798   -3.6304544   -2.5972127 
C    -0.3114969   -4.1933035    0.5272043 
C     0.1819316   -2.6453336    3.8491021 
C     4.0856148    1.3597619    2.8071434 
C     3.6674058   -3.1207089   -1.4332597 
C    -2.6348980   -3.4774536    1.9254588 
C    -1.7624472   -1.4592391    4.6889273 
C     2.8281272    2.7362028    4.3641194 
C     2.2983414   -4.3190143   -3.0432722 
C    -0.9063806   -5.0991978    1.4173381 
C    -0.9200918   -2.5784730    4.7162711 
C     4.0570849    2.2515875    3.8902496 
C     3.5516420   -4.0643386   -2.4667754 
C    -2.0726332   -4.7491200    2.1110385 
H    -4.9453545    1.9232534    0.1201089 
H    -4.7331977    0.1862729   -0.0906026 
H    -3.4132762    2.4722809   -1.6757970 
H    -4.5441135    1.2554446   -2.2657034 
H    -2.4303458    0.2687073    0.7749270 
H    -3.5773845    0.9464891    1.9338150 
H    -1.6206355    0.7866253   -1.3789031 
H    -2.2059061    0.8626747   -3.0424350 
H    -2.8467448    3.2780667    1.2450965 
H    -1.7665038    2.5719317    0.0389022 
H    -3.4551341   -1.2273989   -2.8081398 
H    -3.1822154   -1.2936432   -1.0722782 
H    -0.4762848    3.2331340    1.9989235 
H    -1.4920241    2.2772597    3.0974091 
H    -1.6985747   -2.8472239   -2.4439271 
H    -0.9244784   -1.4180664   -3.1906047 
H     1.2935935   -1.6592223    2.2803055 
H     2.9101485    0.2855854    1.3342049 
H     2.6209403   -1.6879612   -0.1850818 
H    -2.4691038   -1.5680689    0.9455519 
H    -2.1691661    0.4674449    3.8087233 
H     0.6811544    2.7273572    4.1407924 
H     0.1943859   -3.8385696   -3.0645548 
H     0.5942045   -4.4875588   -0.0107015 
H     0.8352095   -3.5231199    3.8545713 
H     5.0409181    0.9728088    2.4376082 
H     4.6422626   -2.9215000   -0.9764345 
H    -3.5325952   -3.1843925    2.4784934 
H    -2.6250966   -1.4030248    5.3610391 
H     2.8013090    3.4269103    5.2133034 
H     2.2040211   -5.0541027   -3.8492601 
H    -0.4546356   -6.0860939    1.5625911 
H    -1.1242438   -3.4023881    5.4075139 
H     4.9911157    2.5650714    4.3675736 
H     4.4376700   -4.6012265   -2.8207908 
H    -2.5365838   -5.4600212    2.8023984 
