99
Energy =
C     1.5380215    0.6893182   -2.4044790 
C     1.1533156    1.9332522   -1.8456776 
C     1.6099463    2.3730811   -0.5805942 
H     0.3947420    2.5298814   -2.3653890 
Pd    0.4347007    0.4071163   -0.3878152 
P    -0.2318898    0.9228700    1.8267654 
P    -0.0590885   -1.8939411   -0.6936389 
H     2.4619800    0.2249653   -2.0314994 
H     2.5230194    1.9070169   -0.1823237 
C     0.3378199   -0.7009581   -6.2996087 
C     1.4050617   -1.3036012   -5.6190119 
C     1.7811212   -0.8447283   -4.3511029 
C     1.0958645    0.2250810   -3.7312174 
C     0.0361046    0.8387405   -4.4428981 
C    -0.3402817    0.3787324   -5.7072863 
H     0.0415589   -1.0590338   -7.2908905 
H     1.9509877   -2.1358684   -6.0746621 
H     2.6191189   -1.3180674   -3.8303073 
H    -0.5055795    1.6826251   -4.0063840 
H    -1.1640062    0.8668326   -6.2384660 
C     0.6290322    6.1173688    1.2987986 
C    -0.0793643    5.7089813    0.1550391 
C     0.2328854    4.5001497   -0.4727963 
C     1.2590389    3.6649802    0.0317916 
C     1.9791653    4.1026522    1.1674627 
C     1.6647935    5.3132667    1.7960221 
H     0.3810586    7.0640590    1.7895465 
H    -0.8778809    6.3394944   -0.2493632 
H    -0.3330395    4.2020249   -1.3596652 
H     2.7898449    3.4812978    1.5613235 
H     2.2328990    5.6279512    2.6772764 
C    -3.7513945    1.8232492   -1.1298254 
C    -3.5653046    0.3150016   -1.3958993 
C    -2.6175289    2.4492147   -0.2954663 
C    -2.4219796    0.0315370   -2.3809399 
C    -2.7304818    2.1707551    1.2137842 
C    -2.1307885   -1.4469279   -2.6763992 
C    -1.4116925    2.3648551    1.9858756 
C    -1.7065579   -2.2934717   -1.4615299 
C    -1.0747593   -0.3400543    2.8682810 
C     1.2399712    1.4082267    2.8181672 
C     1.2046086   -2.7409791   -1.7362895 
C    -0.0000547   -2.9941128    0.7875628 
C    -2.0792664   -1.1378193    2.2866717 
C     2.4822179    0.8129103    2.5124146 
C     2.5546243   -2.5948515   -1.3500010 
C     0.8392286   -2.6484407    1.8624131 
C    -0.7582406   -0.5200945    4.2296001 
C     1.1768496    2.3552506    3.8609808 
C     0.8908720   -3.5612750   -2.8348373 
C    -0.7209887   -4.2042182    0.8434939 
C    -2.7590850   -2.0966232    3.0469475 
C     3.6358052    1.1527487    3.2313331 
C     3.5697462   -3.2632303   -2.0442289 
C     0.9466878   -3.4822604    2.9818181 
C    -1.4385734   -1.4825142    4.9885318 
C     2.3328220    2.6976229    4.5774964 
C     1.9111960   -4.2294950   -3.5304588 
C    -0.6152529   -5.0363003    1.9660685 
C    -2.4369118   -2.2727604    4.4005835 
C     3.5627854    2.0996949    4.2651357 
C     3.2485871   -4.0840360   -3.1390544 
C     0.2148479   -4.6768808    3.0379484 
H    -3.8239852    2.3459634   -2.1022415 
H    -4.7165919    1.9950544   -0.6173364 
H    -4.5054954   -0.1108783   -1.7932976 
H    -3.3799357   -0.2023278   -0.4342402 
H    -2.5912444    3.5422196   -0.4502692 
H    -1.6400944    2.0691722   -0.6610369 
H    -1.4891247    0.4999270   -2.0008313 
H    -2.6459447    0.5345891   -3.3389103 
H    -3.1162221    1.1501470    1.3941209 
H    -3.4874436    2.8477123    1.6503045 
H    -1.3542170   -1.5053102   -3.4610707 
H    -3.0370912   -1.9196191   -3.1002489 
H    -0.8781151    3.2721608    1.6519951 
H    -1.6131850    2.4641219    3.0667854 
H    -2.4383843   -2.2013112   -0.6397593 
H    -1.6873700   -3.3627044   -1.7353917 
H    -2.3122904   -1.0227265    1.2229611 
H     2.5468830    0.0946016    1.6859481 
H     2.8089522   -1.9594634   -0.4926269 
H     1.3935988   -1.7054860    1.8341207 
H     0.0294643    0.0779892    4.6978698 
H     0.2314716    2.8433673    4.1141829 
H    -0.1435340   -3.6834113   -3.1681342 
H    -1.3684066   -4.5123948    0.0173954 
H    -3.5288913   -2.7172657    2.5775204 
H     4.5930068    0.6845297    2.9798788 
H     4.6125206   -3.1466857   -1.7314670 
H     1.5913705   -3.1886948    3.8162601 
H    -1.1805020   -1.6193248    6.0438341 
H     2.2712525    3.4400054    5.3799339 
H     1.6544742   -4.8616143   -4.3867323 
H    -1.1843247   -5.9711321    2.0010578 
H    -2.9587139   -3.0301273    4.9943680 
H     4.4636915    2.3728787    4.8239800 
H     4.0410507   -4.6072852   -3.6836834 
H     0.2904317   -5.3269382    3.9156335 
