99
Energy =
C     0.3307293    2.8261907   -1.0724679 
C     1.0646582    1.9920602   -1.9549123 
C     0.3914208    1.0760579   -2.8045939 
H     2.1605408    1.9934444   -1.9190817 
Pd    0.0386899    0.6106238   -0.5753757 
P    -0.4357034   -1.6697200   -0.9862228 
P    -0.1439183    0.9873254    1.7349685 
H    -0.7297232    2.9817145   -1.3210303 
H    -0.6613553    1.2979046   -3.0257675 
C     1.9051198    5.8786779    1.5148991 
C     2.7749813    4.9263680    0.9587957 
C     2.2817238    3.9253499    0.1178397 
C     0.9032575    3.8536926   -0.1889528 
C     0.0427151    4.8310605    0.3643893 
C     0.5363087    5.8307914    1.2108108 
H     2.2950388    6.6591244    2.1762034 
H     3.8442322    4.9598200    1.1888415 
H     2.9752324    3.1876295   -0.2947388 
H    -1.0246104    4.8078087    0.1147963 
H    -0.1463667    6.5795754    1.6256124 
C     2.2699545   -1.3762651   -5.7933031 
C     0.9091632   -1.0511810   -5.8853074 
C     0.3083082   -0.2682025   -4.8918417 
C     1.0534756    0.2042867   -3.7863826 
C     2.4207910   -0.1478952   -3.7002578 
C     3.0212584   -0.9221189   -4.6959398 
H     2.7451200   -1.9830467   -6.5707981 
H     0.3168810   -1.3962021   -6.7390802 
H    -0.7477642    0.0110191   -4.9855706 
H     3.0168205    0.1773227   -2.8419251 
H     4.0807736   -1.1832569   -4.6127758 
C    -4.3106127    1.1252446   -1.2134458 
C    -4.6198730    0.8249300    0.2695060 
C    -3.0883744    0.3974383   -1.7982672 
C    -3.4222933    0.9124463    1.2329645 
C    -3.1526662   -1.1372447   -1.8095823 
C    -2.6814945    2.2552829    1.2687865 
C    -1.8311016   -1.8194681   -2.2246021 
C    -1.4330617    2.2616714    2.1733956 
C     1.0229722   -2.4589352   -1.7669689 
C    -0.9227396   -2.9167463    0.2847138 
C    -0.3678932   -0.4371361    2.8817375 
C     1.4501033    1.6670169    2.3624176 
C     2.2652136   -2.2928753   -1.1166462 
C    -2.0018792   -2.6490440    1.1528497 
C    -1.3718515   -0.4993597    3.8661484 
C     2.6470403    1.1908871    1.7883487 
C     0.9521923   -3.2617825   -2.9208931 
C    -0.2804911   -4.1704464    0.3638223 
C     0.5634548   -1.4931741    2.7857451 
C     1.5147122    2.5824092    3.4300926 
C     3.4105348   -2.9409773   -1.5941722 
C    -2.4482417   -3.6185788    2.0578653 
C    -1.4350460   -1.5933862    4.7427752 
C     3.8887722    1.6105150    2.2826718 
C     2.1055792   -3.8952759   -3.4061033 
C    -0.7221026   -5.1341864    1.2821944 
C     0.5026623   -2.5788870    3.6643154 
C     2.7588441    3.0152191    3.9094117 
C     3.3308168   -3.7461591   -2.7410527 
C    -1.8094844   -4.8656768    2.1248485 
C    -0.4984434   -2.6310312    4.6469261 
C     3.9459213    2.5265750    3.3434850 
H    -5.2082597    0.8856302   -1.8140923 
H    -4.1483364    2.2122690   -1.3413464 
H    -5.0512859   -0.1896872    0.3596292 
H    -5.4140054    1.5172312    0.6066429 
H    -2.1817571    0.7071457   -1.2262571 
H    -2.9202161    0.7555927   -2.8321026 
H    -2.6833959    0.1341095    0.9581907 
H    -3.7666058    0.6527879    2.2510579 
H    -3.9355629   -1.4641422   -2.5192966 
H    -3.4703598   -1.5217402   -0.8242627 
H    -3.3617165    3.0579504    1.6104726 
H    -2.3690903    2.5319942    0.2450553 
H    -1.9938364   -2.8998367   -2.3835564 
H    -1.4478772   -1.3911448   -3.1680934 
H    -0.9087791    3.2273629    2.0779642 
H    -1.7039877    2.1474833    3.2374383 
H     2.3267799   -1.6547347   -0.2273622 
H    -2.4850215   -1.6700438    1.1425010 
H    -2.1101129    0.3009770    3.9663428 
H     2.5986950    0.5007472    0.9369685 
H     0.0056873   -3.3997756   -3.4502429 
H     0.5623072   -4.4022410   -0.2934146 
H     1.3414268   -1.4655289    2.0154484 
H     0.6013794    2.9633302    3.8972062 
H     4.3661621   -2.8137895   -1.0750256 
H    -3.2857243   -3.3899134    2.7240804 
H    -2.2197934   -1.6287290    5.5056316 
H     4.8119258    1.2313930    1.8318510 
H     2.0427138   -4.5093732   -4.3101027 
H    -0.2140232   -6.1030026    1.3313056 
H     1.2286980   -3.3924389    3.5730005 
H     2.7993081    3.7342470    4.7340840 
H     4.2253280   -4.2503395   -3.1209321 
H    -2.1534225   -5.6221725    2.8376695 
H    -0.5508733   -3.4832334    5.3319703 
H     4.9147101    2.8623910    3.7274577 
