99
Energy =
C     1.4809837    0.7575808   -2.5144720 
C     1.0775719    1.9952811   -1.9532286 
C     1.6091750    2.4485045   -0.7197776 
H     0.2607378    2.5560576   -2.4222471 
Pd    0.5010500    0.4668514   -0.4540715 
P     0.0259578    0.9022955    1.8330698 
P    -0.0230017   -1.7888480   -0.9121630 
H     2.4474769    0.3514244   -2.1844155 
H     2.5684349    2.0163926   -0.3980627 
C     0.0967754   -0.9501388   -6.2143252 
C     1.2242038   -1.4677663   -5.5598556 
C     1.6683924   -0.8932914   -4.3632128 
C     0.9884807    0.2059433   -3.7877606 
C    -0.1316593    0.7328254   -4.4740945 
C    -0.5723988    0.1601020   -5.6707193 
H    -0.2525070   -1.3979213   -7.1503049 
H     1.7641111   -2.3212937   -5.9822831 
H     2.5528424   -1.2992810   -3.8623311 
H    -0.6687271    1.5964901   -4.0715425 
H    -1.4410826    0.5828636   -6.1860165 
C     0.6292910    6.1148363    1.3016843 
C     1.7339872    5.3471757    1.6986206 
C     2.0486763    4.1639213    1.0195370 
C     1.2590999    3.7184189   -0.0655315 
C     0.1571242    4.5127179   -0.4656289 
C    -0.1526035    5.6963217    0.2103948 
H     0.3817201    7.0403281    1.8314394 
H     2.3555003    5.6699877    2.5401390 
H     2.9112459    3.5676219    1.3347542 
H    -0.4719907    4.1982990   -1.3039222 
H    -1.0089529    6.2973622   -0.1122135 
C    -3.9335251    1.3057090   -0.3688845 
C    -3.9593715    0.9791518   -1.8758667 
C    -2.6188114    1.9474652    0.0903992 
C    -2.7799215    0.1260255   -2.3780275 
C    -2.5263008    2.2058450    1.6020336 
C    -2.6828434   -1.2827046   -1.7729376 
C    -1.0868857    2.3807678    2.1193291 
C    -1.3717365   -2.0091798   -2.1660147 
C    -0.7762129   -0.3538449    2.9061383 
C     1.5958473    1.3152677    2.6939813 
C     1.4569173   -2.6303279   -1.6218456 
C    -0.4391194   -2.9573766    0.4479448 
C    -1.9369466   -0.9988071    2.4311130 
C     2.7658046    0.6378081    2.2892354 
C     2.7364157   -2.2386469   -1.1783155 
C     0.4381464   -3.0061576    1.5514428 
C    -0.3118955   -0.6368363    4.2057492 
C     1.6844903    2.2770344    3.7207870 
C     1.3468380   -3.6704483   -2.5652051 
C    -1.5425245   -3.8311665    0.4080542 
C    -2.6388620   -1.8894608    3.2510486 
C     3.9992571    0.9178447    2.8913041 
C     3.8872515   -2.8619536   -1.6793005 
C     0.2255612   -3.9201925    2.5878580 
C    -1.0118847   -1.5391591    5.0198737 
C     2.9207106    2.5588030    4.3205006 
C     2.4993575   -4.2880315   -3.0711603 
C    -1.7558155   -4.7436480    1.4523615 
C    -2.1772600   -2.1600929    4.5483479 
C     4.0788506    1.8842083    3.9066916 
C     3.7700008   -3.8842374   -2.6338396 
C    -0.8735431   -4.7923077    2.5397224 
H    -4.7835275    1.9716609   -0.1287065 
H    -4.1042138    0.3826093    0.2198521 
H    -3.9638712    1.9272724   -2.4469810 
H    -4.9115799    0.4710278   -2.1193516 
H    -2.4373207    2.8871105   -0.4648354 
H    -1.7798855    1.2738105   -0.1940642 
H    -1.8270866    0.6558396   -2.1820757 
H    -2.8433140    0.0285252   -3.4768609 
H    -3.0115425    1.3798261    2.1541679 
H    -3.0941148    3.1166986    1.8682126 
H    -3.5448526   -1.8870389   -2.1096132 
H    -2.7669251   -1.2343001   -0.6705001 
H    -0.5923720    3.2455834    1.6460660 
H    -1.1012609    2.5505784    3.2100388 
H    -1.5334934   -3.0925711   -2.2993226 
H    -0.9740030   -1.6246525   -3.1223070 
H    -2.2812788   -0.8145532    1.4083666 
H     2.7040841   -0.1057591    1.4855266 
H     2.8283891   -1.4282986   -0.4452452 
H     1.2905061   -2.3191277    1.6018280 
H     0.5946349   -0.1542981    4.5846905 
H     0.7966208    2.8228081    4.0515432 
H     0.3668096   -3.9989980   -2.9229277 
H    -2.2456791   -3.8133253   -0.4296417 
H    -3.5365861   -2.3858118    2.8700810 
H     4.8990220    0.3855825    2.5659205 
H     4.8754925   -2.5462237   -1.3292493 
H     0.9109068   -3.9437153    3.4406526 
H    -0.6440520   -1.7545248    6.0285232 
H     2.9779328    3.3134311    5.1118037 
H     2.4028402   -5.0876925   -3.8128918 
H    -2.6166133   -5.4192459    1.4117374 
H    -2.7211350   -2.8633898    5.1872314 
H     5.0424902    2.1104185    4.3745178 
H     4.6673029   -4.3673901   -3.0337349 
H    -1.0442273   -5.5042795    3.3535713 
