99
Energy =
C     1.5518830    0.6873780   -2.5664362 
C     1.2312921    1.9530991   -2.0024193 
C     1.8103910    2.3793473   -0.7853647 
H     0.4344635    2.5548618   -2.4551144 
Pd    0.6122471    0.4242280   -0.5277279 
P    -0.0476479    0.9430964    1.6894175 
P     0.1173280   -1.8493099   -0.9483102 
H     2.5306540    0.2566256   -2.3126815 
H     2.7311038    1.8716122   -0.4609454 
C    -0.1887856   -0.9578115   -6.1423190 
C    -0.8364261    0.0987198   -5.4779396 
C    -0.2783483    0.6495653   -4.3203430 
C     0.9436367    0.1583525   -3.8001353 
C     1.5908871   -0.8926934   -4.4887004 
C     1.0283972   -1.4466139   -5.6455859 
H    -0.6292973   -1.3902683   -7.0464386 
H    -1.7827415    0.4912752   -5.8641712 
H    -0.8062698    1.4596541   -3.8071739 
H     2.5414999   -1.2787462   -4.1067310 
H     1.5453390   -2.2629319   -6.1603811 
C     1.0972526    6.0936692    1.2559278 
C     2.1020065    5.2161410    1.6903947 
C     2.3324655    4.0180959    1.0045332 
C     1.5554003    3.6677454   -0.1247301 
C     0.5625631    4.5752516   -0.5664812 
C     0.3358180    5.7721473    0.1182448 
H     0.9144623    7.0308926    1.7913733 
H     2.7083150    5.4628279    2.5677455 
H     3.1126767    3.3333251    1.3530590 
H    -0.0469433    4.3417889   -1.4444813 
H    -0.4379054    6.4613298   -0.2353337 
C    -4.2449378    1.8063382   -0.4745417 
C    -4.1493069    0.3605579   -1.0013564 
C    -3.4143210    2.0562987    0.8080597 
C    -2.7558539   -0.0741383   -1.4835301 
C    -2.0330953    2.6975758    0.5673116 
C    -2.6523823   -1.5881732   -1.7178782 
C    -1.0392017    2.5335367    1.7347289 
C    -1.2667426   -2.0967455   -2.1628761 
C    -1.0056126   -0.2495135    2.7164508 
C     1.4417056    1.3120304    2.7019412 
C     1.5816633   -2.6641789   -1.7214796 
C    -0.2136521   -2.9931620    0.4533965 
C    -2.0274454   -1.0072184    2.1103144 
C     2.6402520    0.6308920    2.4040768 
C     2.8637249   -2.2877944   -1.2701520 
C     0.5470455   -2.8323871    1.6288827 
C    -0.7476042   -0.4232568    4.0908350 
C     1.4365663    2.2670880    3.7394586 
C     1.4689355   -3.6628303   -2.7077896 
C    -1.1490118   -4.0436132    0.3776452 
C    -2.7937730   -1.9035604    2.8630388 
C     3.8118972    0.8985530    3.1247437 
C     4.0123794   -2.8863624   -1.8039419 
C     0.3720526   -3.6981657    2.7135829 
C    -1.5127329   -1.3276574    4.8421519 
C     2.6105023    2.5358653    4.4579315 
C     2.6200470   -4.2572483   -3.2449562 
C    -1.3287821   -4.9052158    1.4697079 
C    -2.5373990   -2.0657409    4.2329239 
C     3.7988257    1.8556550    4.1516427 
C     3.8919719   -3.8693603   -2.7989413 
C    -0.5725735   -4.7332341    2.6378149 
H    -3.9440741    2.5207586   -1.2665638 
H    -5.3084667    2.0186032   -0.2668431 
H    -4.8748108    0.2174785   -1.8246882 
H    -4.4746003   -0.3219824   -0.1901467 
H    -3.2965353    1.0999642    1.3494434 
H    -3.9751412    2.7111570    1.4996730 
H    -1.9876678    0.2214997   -0.7388526 
H    -2.4884231    0.4667803   -2.4101320 
H    -2.1652185    3.7781747    0.3774821 
H    -1.5677100    2.2910056   -0.3522647 
H    -3.3783303   -1.8868157   -2.4974252 
H    -2.9648868   -2.1200670   -0.7984433 
H    -0.2798936    3.3322796    1.7013042 
H    -1.5488999    2.5942997    2.7129309 
H    -1.3219267   -3.1734710   -2.4016344 
H    -0.9367172   -1.5824728   -3.0826789 
H    -2.2094045   -0.9104220    1.0374874 
H     2.6557068   -0.0985590    1.5851245 
H     2.9591465   -1.5122131   -0.5001398 
H     1.2683028   -2.0111980    1.7008934 
H     0.0557950    0.1371786    4.5785718 
H     0.5221944    2.8150738    3.9866695 
H     0.4888471   -3.9765115   -3.0777814 
H    -1.7430552   -4.2031519   -0.5272564 
H    -3.5779837   -2.4898056    2.3740371 
H     4.7366728    0.3655439    2.8808717 
H     5.0018802   -2.5837087   -1.4460267 
H     0.9608880   -3.5535480    3.6245384 
H    -1.3025975   -1.4559544    5.9091277 
H     2.5965195    3.2839784    5.2573266 
H     2.5201820   -5.0253887   -4.0188668 
H    -2.0625379   -5.7152979    1.4040774 
H    -3.1286625   -2.7743531    4.8218378 
H     4.7144966    2.0718765    4.7114989 
H     4.7879955   -4.3338086   -3.2231225 
H    -0.7199423   -5.4044118    3.4900230 
