99
Energy =
C     1.8939080    0.4245718   -2.3179579 
C     1.6114908    1.6932130   -1.7678875 
C     1.9854015    2.0550786   -0.4392678 
H     0.9612863    2.3788835   -2.3244985 
Pd    0.6261720    0.2846648   -0.3793764 
P     0.1061495    0.3769511    1.9153144 
P    -0.5275520   -1.6823572   -1.0383392 
H     2.6959735   -0.1676356   -1.8532740 
H     2.8843467    1.5832860   -0.0152699 
C     0.7281399   -0.9766899   -6.2197580 
C     1.5757002   -1.7409285   -5.4050944 
C     1.9574894   -1.2661905   -4.1446185 
C     1.4928610   -0.0196629   -3.6642151 
C     0.6627379    0.7534749   -4.5127087 
C     0.2823028    0.2789188   -5.7711777 
H     0.4280336   -1.3463972   -7.2055571 
H     1.9437029   -2.7126387   -5.7491384 
H     2.6178637   -1.8722266   -3.5168569 
H     0.3182780    1.7416579   -4.1943983 
H    -0.3583867    0.8942364   -6.4112878 
C     1.0348609    5.9324733    1.1645301 
C     2.2087634    5.2694797    1.5502738 
C     2.4969552    3.9948735    1.0478897 
C     1.6222804    3.3642025    0.1376472 
C     0.4309364    4.0349910   -0.2259226 
C     0.1419646    5.3060157    0.2794706 
H     0.8106491    6.9290212    1.5584376 
H     2.9031964    5.7449289    2.2500064 
H     3.4170922    3.4848587    1.3516031 
H    -0.2786820    3.5506431   -0.9050180 
H    -0.7845129    5.8102557   -0.0150532 
C    -3.7862803    2.1993674   -0.3768083 
C    -3.0884623    2.3161433   -1.7499894 
C    -2.8400890    1.9775077    0.8291177 
C    -2.1010832    1.1968903   -2.1191694 
C    -2.6839714    0.4937534    1.1879400 
C    -2.7164778   -0.1979712   -2.3021277 
C    -1.7063845    0.1310949    2.3158586 
C    -1.6926100   -1.3450493   -2.4593682 
C     0.9812568   -1.0073606    2.7573887 
C     0.6339882    1.8143712    2.9429718 
C     0.6347891   -2.9523528   -1.6949299 
C    -1.4805436   -2.6688869    0.1948301 
C     0.4834608   -1.6101925    3.9292851 
C    -0.1977087    2.9433935    3.0902054 
C     0.2715001   -3.8575721   -2.7113855 
C    -0.7596705   -3.3445118    1.2029209 
C     2.2112269   -1.4471227    2.2278044 
C     1.8780110    1.7904515    3.6094077 
C     1.9237721   -3.0347722   -1.1307587 
C    -2.8881287   -2.7505253    0.1902026 
C     1.1885948   -2.6594713    4.5345935 
C     0.1932289    4.0083847    3.9117335 
C     1.1916608   -4.8128629   -3.1651328 
C    -1.4346215   -4.0657841    2.1956517 
C     2.9179078   -2.4937920    2.8364558 
C     2.2618178    2.8579588    4.4324292 
C     2.8377430   -3.9993943   -1.5764233 
C    -3.5600380   -3.4685845    1.1900611 
C     2.4004669   -3.1087755    3.9865647 
C     1.4180473    3.9657781    4.5927027 
C     2.4748122   -4.8861842   -2.6014594 
C    -2.8368028   -4.1220910    2.1984470 
H    -4.3651745    3.1271185   -0.2232650 
H    -4.5373215    1.3858648   -0.3990503 
H    -2.5337085    3.2739733   -1.7755960 
H    -3.8638866    2.3978224   -2.5356454 
H    -3.2296674    2.5186555    1.7115603 
H    -1.8471607    2.4189385    0.6079753 
H    -1.3053068    1.1447457   -1.3385073 
H    -1.5771256    1.4719723   -3.0506777 
H    -2.3766211   -0.0652991    0.2899696 
H    -3.6743911    0.0865651    1.4647163 
H    -3.3438699   -0.1981154   -3.2132454 
H    -3.4072183   -0.4182782   -1.4696632 
H    -1.9302249    0.6747766    3.2507593 
H    -1.8028212   -0.9494717    2.5219750 
H    -2.2190774   -2.2903031   -2.6817652 
H    -1.0193911   -1.1351273   -3.3109990 
H    -0.4568672   -1.2702672    4.3740836 
H    -1.1576487    2.9977243    2.5726324 
H    -0.7232111   -3.8211305   -3.1646678 
H     0.3341295   -3.3133424    1.2144275 
H     2.6115850   -0.9593498    1.3302213 
H     2.5416866    0.9260041    3.5100603 
H     2.2110764   -2.3316795   -0.3430057 
H    -3.4743881   -2.2546640   -0.5877251 
H     0.7894938   -3.1277893    5.4403118 
H    -0.4657821    4.8760317    4.0166931 
H     0.9028784   -5.5044377   -3.9633727 
H    -0.8583688   -4.5827676    2.9693109 
H     3.8694549   -2.8302262    2.4119133 
H     3.2221015    2.8161094    4.9569578 
H     3.8356080   -4.0529581   -1.1286840 
H    -4.6536475   -3.5212511    1.1744052 
H     2.9450586   -3.9315180    4.4610731 
H     1.7157132    4.7956204    5.2417904 
H     3.1893100   -5.6345605   -2.9593172 
H    -3.3640305   -4.6831769    2.9768333 
