99
Energy =
C     1.5800192    0.8213791   -2.4404001 
C     1.0901893    2.0366786   -1.9085893 
C     1.5272160    2.5091083   -0.6404965 
H     0.2776689    2.5597539   -2.4262995 
Pd    0.4991168    0.5012909   -0.4260469 
P     0.1994673    0.8034599    1.9123213 
P    -0.2079693   -1.6861220   -1.0048933 
H     2.5173308    0.4303568   -2.0174019 
H     2.5159114    2.1760392   -0.2952941 
C     0.5127945   -0.9921989   -6.1879867 
C     1.5552151   -1.5136889   -5.4075781 
C     1.9009104   -0.9011072   -4.1975628 
C     1.2032689    0.2399111   -3.7364759 
C     0.1712451    0.7699234   -4.5476844 
C    -0.1703730    0.1588061   -5.7572385 
H     0.2408027   -1.4696105   -7.1348963 
H     2.1033298   -2.4007285   -5.7409701 
H     2.7153100   -1.3130322   -3.5926995 
H    -0.3736382    1.6636543   -4.2309520 
H    -0.9721945    0.5817895   -6.3711099 
C     0.1137596    6.0602051    1.3360191 
C    -0.6313525    5.5117856    0.2772884 
C    -0.1795657    4.3644963   -0.3814621 
C     1.0298009    3.7374397    0.0028469 
C     1.7786229    4.3128952    1.0548221 
C     1.3228531    5.4597796    1.7164563 
H    -0.2446072    6.9557452    1.8538510 
H    -1.5705028    5.9816053   -0.0329470 
H    -0.7810345    3.9435526   -1.1929589 
H     2.7245875    3.8509996    1.3553513 
H     1.9166654    5.8850170    2.5320294 
C    -3.8806800    1.1866280   -0.3356965 
C    -3.8452166    1.1895223   -1.8788253 
C    -2.6324820    1.8209972    0.2894841 
C    -2.6651440    0.4143974   -2.4972651 
C    -2.5195046    1.6947157    1.8145788 
C    -2.7190978   -1.1079263   -2.2743223 
C    -1.1130608    2.0486231    2.3433465 
C    -1.3683241   -1.8230358   -2.4685593 
C    -0.1160667   -0.6442287    3.0039888 
C     1.7516808    1.4635930    2.6594964 
C     1.2688902   -2.6683785   -1.4919377 
C    -1.0795466   -2.7381879    0.2246794 
C     0.6236889   -1.8198956    2.7647547 
C     2.9848479    1.0005871    2.1565613 
C     2.4952861   -2.3807169   -0.8559171 
C    -2.0752145   -2.1446955    1.0249537 
C    -1.0171778   -0.6079640    4.0858793 
C     1.7488638    2.3799884    3.7289426 
C     1.2330156   -3.6743072   -2.4792611 
C    -0.8193819   -4.1165961    0.3558296 
C     0.4658446   -2.9395484    3.5881044 
C     4.1934638    1.4559212    2.6996151 
C     3.6609195   -3.0784630   -1.1978974 
C    -2.8127937   -2.9152042    1.9312987 
C    -1.1782988   -1.7341767    4.9062529 
C     2.9594413    2.8394210    4.2674793 
C     2.4010765   -4.3707180   -2.8227666 
C    -1.5544209   -4.8845617    1.2701522 
C    -0.4399515   -2.8997635    4.6594440 
C     4.1822819    2.3835491    3.7531677 
C     3.6156393   -4.0742460   -2.1865200 
C    -2.5519270   -4.2879568    2.0555782 
H    -4.7854146    1.7222495    0.0075204 
H    -3.9908957    0.1485003    0.0345778 
H    -3.8029158    2.2378621   -2.2317012 
H    -4.7956804    0.7745710   -2.2639526 
H    -2.5749793    2.8883347    0.0090487 
H    -1.7278816    1.3478994   -0.1545295 
H    -1.7103855    0.8060808   -2.0910025 
H    -2.6273558    0.6113797   -3.5832439 
H    -2.7899285    0.6696520    2.1333463 
H    -3.2510712    2.3631483    2.3050361 
H    -3.4446910   -1.5511226   -2.9806930 
H    -3.1134050   -1.3430336   -1.2689041 
H    -0.7653578    3.0082111    1.9208126 
H    -1.1252568    2.1651323    3.4408610 
H    -1.5328857   -2.9062783   -2.6054587 
H    -0.8333979   -1.4450281   -3.3571999 
H     1.3163324   -1.8638872    1.9172515 
H     2.9945621    0.2853852    1.3252301 
H     2.5339072   -1.5866614   -0.1003703 
H    -2.2535404   -1.0675631    0.9527372 
H    -1.6009230    0.2915675    4.3023414 
H     0.8084036    2.7553596    4.1418197 
H     0.3007347   -3.9127978   -2.9989564 
H    -0.0385330   -4.5915391   -0.2466849 
H     1.0386221   -3.8492344    3.3832709 
H     5.1442026    1.0903482    2.2980229 
H     4.6055787   -2.8417021   -0.6975362 
H    -3.5770921   -2.4393820    2.5536748 
H    -1.8843817   -1.6969492    5.7423195 
H     2.9449264    3.5605243    5.0913093 
H     2.3612451   -5.1447052   -3.5962583 
H    -1.3436713   -5.9544523    1.3701571 
H    -0.5718786   -3.7785071    5.2988593 
H     5.1250427    2.7478911    4.1738220 
H     4.5259375   -4.6170190   -2.4610443 
H    -3.1194712   -4.8907907    2.7718554 
