99
Energy =
C     1.6045231    0.7321607   -2.4963939 
C     1.1544777    1.9675273   -1.9762291 
C     1.6156332    2.4528967   -0.7231296 
H     0.3500672    2.5031454   -2.4936739 
Pd    0.5327709    0.4782712   -0.4528412 
P     0.1085606    0.9114695    1.8194500 
P    -0.1773370   -1.7409775   -0.9145909 
H     2.5412945    0.3252490   -2.0882689 
H     2.5869335    2.0779267   -0.3706697 
C     0.4778041   -1.0258164   -6.2577477 
C    -0.2176752    0.1007085   -5.7841042 
C     0.1393207    0.6888633   -4.5677025 
C     1.1972518    0.1599057   -3.7886008 
C     1.9020664   -0.9578485   -4.2915839 
C     1.5443611   -1.5456577   -5.5106129 
H     0.1958747   -1.4847104   -7.2108819 
H    -1.0387060    0.5247684   -6.3713234 
H    -0.4093108    1.5703860   -4.2235091 
H     2.7365329   -1.3692934   -3.7142038 
H     2.1028934   -2.4131900   -5.8764618 
C     0.4026495    6.1078864    1.1974125 
C    -0.3418601    5.6161645    0.1110137 
C     0.0471842    4.4390616   -0.5348773 
C     1.1891795    3.7215887   -0.1058853 
C     1.9446837    4.2447888    0.9694139 
C     1.5527302    5.4225773    1.6166146 
H     0.0927968    7.0275350    1.7041331 
H    -1.2311062    6.1548479   -0.2322612 
H    -0.5513207    4.0711247   -1.3745312 
H     2.8415010    3.7136149    1.3041126 
H     2.1486945    5.8045488    2.4516786 
C    -4.1924281    1.1564755   -0.1158171 
C    -3.6995362    1.4154022   -1.5558517 
C    -3.0968516    1.1339349    0.9651645 
C    -2.5055649    0.5615777   -2.0151421 
C    -2.2212098    2.3893407    1.0375353 
C    -2.7297393   -0.9578776   -2.0150161 
C    -1.0867473    2.3202898    2.0761534 
C    -1.4516897   -1.7784016   -2.2849635 
C     1.6620500    1.4579104    2.6506794 
C    -0.3876850   -0.4626529    2.9383406 
C     1.2613755   -2.6735072   -1.5757309 
C    -0.8833485   -2.9175866    0.3195970 
C     1.6440382    2.3330982    3.7544853 
C     0.4453202   -1.6019205    2.9557322 
C     2.5260841   -2.4326041   -0.9984601 
C    -2.0384959   -2.5643326    1.0489677 
C     2.8965331    0.9627035    2.1852348 
C    -1.4905995   -0.4058140    3.8103053 
C     1.1484441   -3.6271699   -2.6067977 
C    -0.3187274   -4.1951291    0.5185673 
C     2.8452542    2.7265341    4.3605073 
C     0.1915627   -2.6538083    3.8407611 
C     3.6590189   -3.1231663   -1.4488761 
C    -2.6354906   -3.4764160    1.9263973 
C     4.0961687    1.3505343    2.7978498 
C    -1.7476025   -1.4670788    4.6917306 
C     2.2838996   -4.3159592   -3.0578257 
C    -0.9136492   -5.1019352    1.4077666 
C     4.0721183    2.2410637    3.8821357 
C    -0.9069454   -2.5877509    4.7124209 
C     3.5391315   -4.0642224   -2.4842624 
C    -2.0765995   -4.7503852    2.1062589 
H    -4.9423027    1.9285205    0.1398764 
H    -4.7324179    0.1918052   -0.0752476 
H    -3.4150900    2.4798763   -1.6596802 
H    -4.5492156    1.2656630   -2.2486256 
H    -2.4266631    0.2703579    0.7829736 
H    -3.5693818    0.9462712    1.9471868 
H    -1.6234014    0.7916263   -1.3722413 
H    -2.2139449    0.8719313   -3.0336855 
H    -2.8393686    3.2789128    1.2613057 
H    -1.7634861    2.5746987    0.0501144 
H    -3.4645632   -1.2172598   -2.8001599 
H    -3.1868335   -1.2874023   -1.0651902 
H    -0.4666230    3.2306463    2.0072879 
H    -1.4797091    2.2734440    3.1071113 
H    -1.7092765   -2.8400506   -2.4442399 
H    -0.9353689   -1.4103719   -3.1901629 
H     0.6975734    2.7208689    4.1435861 
H     1.2983074   -1.6649616    2.2701708 
H     2.6179851   -1.6915430   -0.1948414 
H    -2.4671821   -1.5647679    0.9513392 
H     2.9147899    0.2797739    1.3271506 
H    -2.1550008    0.4626429    3.8184320 
H     0.1803007   -3.8334832   -3.0712940 
H     0.5843662   -4.4905028   -0.0230969 
H     2.8219205    3.4158399    5.2109335 
H     0.8435775   -3.5325496    3.8412472 
H     4.6354464   -2.9262711   -0.9944063 
H    -3.5303919   -3.1822028    2.4833405 
H     5.0498489    0.9627704    2.4249862 
H    -2.6074293   -1.4114524    5.3674995 
H     2.1864102   -5.0488870   -3.8654054 
H    -0.4645890   -6.0907135    1.5484825 
H     5.0080524    2.5530997    4.3566730 
H    -1.1097064   -3.4133705    5.4020358 
H     4.4234343   -4.6015915   -2.8418463 
H    -2.5406246   -5.4620376    2.7967979 
