99
Energy =
C    -1.3753966    0.6287548   -2.6257707 
C     0.0144915    0.6796796   -2.9081954 
C     0.7940519   -0.5056970   -2.8905239 
H     0.5030484    1.6499027   -3.0564934 
Pd   -0.0983908   -0.0551732   -0.8315419 
P     1.7444542   -0.9218111    0.3369325 
P    -1.7788308    0.4796903    0.7433769 
H    -1.8673156   -0.3428298   -2.7697307 
H     0.2411252   -1.4505076   -3.0003696 
C    -4.0873063    3.9534993   -2.8797958 
C    -2.7181798    4.1896555   -2.6685140 
C    -1.8258960    3.1208600   -2.5551046 
C    -2.2812592    1.7861394   -2.6653242 
C    -3.6633254    1.5642975   -2.8686907 
C    -4.5582206    2.6362175   -2.9743125 
H    -4.7825795    4.7945450   -2.9674383 
H    -2.3471517    5.2155969   -2.5820085 
H    -0.7668189    3.3242396   -2.3688806 
H    -4.0313189    0.5371901   -2.9767622 
H    -5.6223927    2.4425733   -3.1440104 
C     4.9613320   -0.8848694   -3.8804296 
C     4.1319278   -2.0148089   -3.8191806 
C     2.7770975   -1.8710039   -3.4979010 
C     2.2239375   -0.5980058   -3.2232791 
C     3.0715276    0.5310028   -3.3033381 
C     4.4230142    0.3876460   -3.6282601 
H     6.0214082   -0.9931174   -4.1314091 
H     4.5389514   -3.0087380   -4.0317460 
H     2.1284111   -2.7543479   -3.4677507 
H     2.6762235    1.5300468   -3.1004920 
H     5.0634638    1.2734961   -3.6776196 
C    -2.1359219   -3.9788751   -0.9521867 
C    -1.3151369   -4.5061356    0.2450289 
C    -2.4339685   -2.4701305   -0.9411889 
C    -0.0471036   -3.7045741    0.5911127 
C    -3.2603514   -1.9493606    0.2442197 
C     0.9836950   -3.5533577   -0.5347282 
C    -3.3667978   -0.4104477    0.3088466 
C     2.1871522   -2.6608695   -0.1711926 
C    -1.6768657    0.2047599    2.5659233 
C    -2.1566140    2.2704569    0.6395509 
C     3.2336530    0.0944793   -0.0451871 
C     1.7718360   -0.8643516    2.1782519 
C    -1.3464560   -1.0725025    3.0650265 
C    -1.0638470    3.1611000    0.7182443 
C     3.0630879    1.4830247   -0.2230749 
C     1.5507483    0.3899857    2.7860173 
C    -1.9908182    1.2323776    3.4801608 
C    -3.4624446    2.7889148    0.5558488 
C     4.5300743   -0.4521475   -0.0948232 
C     2.0483018   -1.9784550    2.9925865 
C    -1.3570367   -1.3263993    4.4411391 
C    -1.2742764    4.5449416    0.7417074 
C     4.1708156    2.3145135   -0.4325741 
C     1.6210248    0.5309631    4.1750771 
C    -1.9863436    0.9773115    4.8593051 
C    -3.6677163    4.1762516    0.5622354 
C     5.6345047    0.3801842   -0.3235985 
C     2.1121568   -1.8358675    4.3871982 
C    -1.6781284   -0.3014063    5.3433766 
C    -2.5797632    5.0546274    0.6654709 
C     5.4592721    1.7626176   -0.4861921 
C     1.9030726   -0.5837979    4.9800917 
H    -1.6018539   -4.2098007   -1.8932939 
H    -3.0852823   -4.5447541   -1.0022693 
H    -1.0406309   -5.5583534    0.0423334 
H    -1.9533863   -4.5339842    1.1481650 
H    -2.9508640   -2.2011401   -1.8824501 
H    -1.4659760   -1.9152716   -0.9655831 
H     0.4338822   -4.1656471    1.4734519 
H    -0.3424579   -2.6853075    0.9087693 
H    -2.8560548   -2.3297624    1.1989146 
H    -4.2878005   -2.3537008    0.1781643 
H     0.4936156   -3.1266908   -1.4290410 
H     1.3669570   -4.5458866   -0.8376703 
H    -3.6892106    0.0019225   -0.6641174 
H    -4.1111827   -0.1114503    1.0674216 
H     2.8072827   -3.1192727    0.6187479 
H     2.8359976   -2.5326680   -1.0538453 
H    -1.0554543   -1.8713480    2.3800031 
H    -0.0446018    2.7603646    0.7670368 
H     2.0511808    1.9067712   -0.2139410 
H     1.3202799    1.2631837    2.1664547 
H    -2.2451983    2.2335100    3.1207409 
H    -4.3262555    2.1226895    0.4844594 
H     4.6910299   -1.5253656    0.0459239 
H     2.2214460   -2.9651152    2.5542927 
H    -1.0952518   -2.3236704    4.8077128 
H    -0.4198607    5.2258965    0.8137456 
H     4.0269932    3.3919792   -0.5653748 
H     1.4415653    1.5092678    4.6312082 
H    -2.2327266    1.7849818    5.5565355 
H    -4.6862121    4.5701874    0.4863126 
H     6.6382315   -0.0548269   -0.3685691 
H     2.3301489   -2.7101091    5.0094335 
H    -1.6797759   -0.4973508    6.4205449 
H    -2.7481087    6.1364041    0.6781530 
H     6.3265801    2.4084485   -0.6577862 
H     1.9530671   -0.4760846    6.0683063 
