99
Energy =
C     1.3909073    0.7087441   -2.5878881 
C     0.0141639    0.7117200   -2.9110889 
C    -0.8692273    1.6710661   -2.3443665 
H    -0.3968146   -0.1073598   -3.5126439 
Pd    0.0706841    0.4010365   -0.7194339 
P    -1.5795790    1.0458562    0.8648286 
P     1.7121734   -0.9033672    0.3866874 
H     1.8086957    1.6326432   -2.1612054 
H    -0.4315996    2.6252794   -2.0197171 
C     4.3880289   -2.0152140   -4.0274800 
C     3.0387317   -2.2337556   -4.3572510 
C     2.0518171   -1.3516005   -3.9088468 
C     2.3915846   -0.2303223   -3.1143253 
C     3.7563895   -0.0075926   -2.8158810 
C     4.7430790   -0.8939790   -3.2628830 
H     5.1580799   -2.7098164   -4.3783515 
H     2.7573747   -3.0961908   -4.9702109 
H     1.0084587   -1.5404382   -4.1763665 
H     4.0397221    0.8654371   -2.2189888 
H     5.7922897   -0.7065077   -3.0131505 
C    -5.1216185    1.8471405   -2.9792240 
C    -4.4202464    0.6709206   -3.2978223 
C    -3.0370401    0.6024343   -3.1070307 
C    -2.3208560    1.7097606   -2.5927216 
C    -3.0368256    2.8923780   -2.2968876 
C    -4.4229679    2.9582803   -2.4847152 
H    -6.2054079    1.8972041   -3.1257974 
H    -4.9570840   -0.1968273   -3.6950103 
H    -2.5109750   -0.3267694   -3.3461937 
H    -2.4976874    3.7642130   -1.9124737 
H    -4.9576242    3.8829209   -2.2442901 
C    -1.3176912   -3.9316178   -1.5929603 
C    -2.1970767   -3.3993613   -0.4415395 
C     0.0573894   -3.2473070   -1.7221095 
C    -2.5210778   -1.9069684   -0.5804193 
C     1.0192339   -3.5280520   -0.5534995 
C    -3.2409071   -1.2723929    0.6170084 
C     2.1786811   -2.5206456   -0.4347293 
C    -3.2435496    0.2705131    0.5670581 
C     3.2801592    0.0565180    0.4426071 
C     1.4476337   -1.4604786    2.1181987 
C    -1.2632789    0.8586268    2.6682618 
C    -1.8701853    2.8646584    0.7569881 
C     3.1941018    1.4618055    0.5377193 
C     0.1766944   -1.9520770    2.4750106 
C     0.0171361    1.2002800    3.1482995 
C    -0.7678022    3.7037322    0.4950856 
C     4.5535679   -0.5449877    0.3743018 
C     2.4799500   -1.4558785    3.0769708 
C    -2.2514704    0.4441950    3.5823364 
C    -3.1379137    3.4431871    0.9609566 
C     4.3515019    2.2507632    0.5607549 
C    -0.0588674   -2.4472906    3.7628281 
C     0.3072152    1.1276965    4.5146399 
C    -0.9299575    5.0934838    0.4214643 
C     5.7117961    0.2458918    0.3954870 
C     2.2389135   -1.9451145    4.3686983 
C    -1.9561306    0.3661907    4.9512836 
C    -3.2997642    4.8338386    0.8812466 
C     5.6145305    1.6424108    0.4859364 
C     0.9734703   -2.4432440    4.7126750 
C    -0.6792965    0.7057331    5.4193150 
C    -2.2002680    5.6609394    0.6078415 
H    -1.1723543   -5.0208305   -1.4643640 
H    -1.8656038   -3.8059765   -2.5465203 
H    -1.6926591   -3.5778016    0.5282357 
H    -3.1347966   -3.9844480   -0.4008473 
H    -0.0815528   -2.1513717   -1.8205278 
H     0.5395115   -3.5695692   -2.6619559 
H    -3.1186997   -1.7372896   -1.4942659 
H    -1.5723704   -1.3458804   -0.7376910 
H     1.4545080   -4.5364736   -0.6777904 
H     0.4708865   -3.5657224    0.4053602 
H    -2.7793292   -1.6134214    1.5637513 
H    -4.2903931   -1.6183840    0.6544857 
H     2.9806216   -2.9432447    0.1957407 
H     2.6113883   -2.2826598   -1.4220464 
H    -3.5679014    0.6303746   -0.4257087 
H    -3.9501011    0.6849516    1.3067382 
H     2.2063227    1.9370608    0.5735933 
H    -0.6373926   -1.9222316    1.7445323 
H     0.7973457    1.5097766    2.4445085 
H     0.2228880    3.2604247    0.3370568 
H     4.6534634   -1.6306883    0.2890600 
H     3.4694033   -1.0630440    2.8220936 
H    -3.2569667    0.1789142    3.2427154 
H    -4.0111204    2.8184834    1.1687026 
H     4.2682866    3.3402294    0.6313558 
H    -1.0535569   -2.8179650    4.0292761 
H     1.3091122    1.3855426    4.8713792 
H    -0.0660401    5.7335407    0.2145993 
H     6.6945282   -0.2331130    0.3349794 
H     3.0445161   -1.9337091    5.1102900 
H    -2.7302353    0.0389981    5.6532121 
H    -4.2922067    5.2715373    1.0308036 
H     6.5209574    2.2563369    0.4968524 
H     0.7887464   -2.8192826    5.7241001 
H    -0.4509276    0.6386854    6.4878662 
H    -2.3316423    6.7459086    0.5434429 
