99
Energy =
C     1.5229009    0.6587419   -2.5930644 
C     0.1523650    0.7873125   -2.9510780 
C    -0.6497209    1.8201718   -2.4143851 
H    -0.3188117    0.0046977   -3.5571621 
Pd    0.2102216    0.4556713   -0.7644586 
P    -1.6782499    0.7125104    0.6447459 
P     1.9464710   -0.5534309    0.4831825 
H     2.0475273    1.5699103   -2.2731934 
H    -0.1295751    2.6889328   -1.9840150 
C     4.1532984   -2.4860947   -3.9025559 
C     2.7614016   -2.6597282   -4.0002561 
C     1.8946136   -1.6430211   -3.5881533 
C     2.3994659   -0.4259062   -3.0695725 
C     3.8010586   -0.2601433   -2.9932061 
C     4.6680359   -1.2809840   -3.4027894 
H     4.8302831   -3.2848018   -4.2223940 
H     2.3519299   -3.5945663   -4.3967826 
H     0.8138764   -1.8035690   -3.6558786 
H     4.2097384    0.6779135   -2.6038587 
H     5.7503390   -1.1320387   -3.3312074 
C    -4.8125999    2.5375085   -3.2060247 
C    -4.1981998    1.3843776   -3.7258202 
C    -2.8423069    1.1412848   -3.4907238 
C    -2.0689674    2.0462669   -2.7243789 
C    -2.6939023    3.2165857   -2.2329855 
C    -4.0527247    3.4565803   -2.4670105 
H    -5.8760994    2.7221323   -3.3888592 
H    -4.7822631    0.6726760   -4.3182844 
H    -2.3867950    0.2335448   -3.8973866 
H    -2.1078789    3.9334760   -1.6483570 
H    -4.5186660    4.3633367   -2.0684156 
C    -1.1881615   -4.1007355   -0.3394431 
C    -2.5891622   -3.7470476   -0.8771423 
C    -0.0903922   -3.0643028   -0.6286720 
C    -3.2086396   -2.4912149   -0.2165340 
C     1.1965491   -3.3221856    0.1684528 
C    -3.0463401   -1.1894789   -1.0266828 
C     2.3252445   -2.2941583   -0.0441926 
C    -3.2336035    0.1025554   -0.2061639 
C     3.5166846    0.3786626    0.2157920 
C     1.8672886   -0.5750451    2.3206773 
C    -1.9918107    2.5018886    0.9272122 
C    -1.7330967   -0.0250245    2.3323802 
C     3.4429221    1.7828858    0.1075272 
C     1.3470728    0.5615141    2.9716566 
C    -0.8871424    3.3780203    0.9651902 
C    -1.1970081   -1.3124419    2.5344840 
C     4.7762052   -0.2476985    0.1530400 
C     2.3503669   -1.6493772    3.0930270 
C    -3.2905233    3.0305082    1.0770860 
C    -2.2979616    0.6608250    3.4261169 
C     4.6032394    2.5464264   -0.0750855 
C     1.3004129    0.6223193    4.3683619 
C    -1.0736586    4.7551201    1.1457723 
C    -1.2432713   -1.9151842    3.7961487 
C     5.9363313    0.5176415   -0.0349217 
C     2.2949511   -1.5894988    4.4932197 
C    -3.4756614    4.4090572    1.2556229 
C    -2.3377807    0.0569965    4.6916581 
C     5.8535342    1.9127672   -0.1532543 
C     1.7688066   -0.4577545    5.1321356 
C    -2.3706584    5.2731051    1.2878167 
C    -1.8149937   -1.2303803    4.8791202 
H    -1.2670611   -4.2391085    0.7579886 
H    -0.8722759   -5.0808160   -0.7447015 
H    -3.2472418   -4.6153258   -0.6972778 
H    -2.5534582   -3.6184126   -1.9772921 
H    -0.4579775   -2.0452951   -0.3866974 
H     0.1376099   -3.0437832   -1.7103852 
H    -2.7716808   -2.3652863    0.7908251 
H    -4.2888742   -2.6490129   -0.0438473 
H     1.6007077   -4.3155995   -0.1032042 
H     0.9498864   -3.3840463    1.2460712 
H    -3.7827090   -1.1830276   -1.8506300 
H    -2.0537422   -1.1552087   -1.5177744 
H     3.2352939   -2.6214935    0.4886053 
H     2.5912024   -2.2186851   -1.1131851 
H    -3.5277837    0.9330848   -0.8688946 
H    -4.0223253   -0.0136109    0.5586970 
H     2.4651975    2.2778656    0.1578748 
H     0.9581887    1.3964821    2.3788106 
H     0.1241760    2.9754866    0.8298451 
H    -0.7201308   -1.8368674    1.7032053 
H     4.8656520   -1.3346114    0.2340294 
H     2.7744630   -2.5381042    2.6162337 
H    -4.1654508    2.3741273    1.0444328 
H    -2.6996849    1.6706960    3.2988101 
H     4.5319718    3.6357778   -0.1594760 
H     0.8815330    1.5057014    4.8599836 
H    -0.2078908    5.4249929    1.1690048 
H    -0.8142267   -2.9121271    3.9365105 
H     6.9090604    0.0183422   -0.0929648 
H     2.6671806   -2.4318548    5.0855408 
H    -4.4889380    4.8093022    1.3651141 
H    -2.7780229    0.5997132    5.5346926 
H     6.7612404    2.5062461   -0.3029258 
H     1.7220217   -0.4174913    6.2251659 
H    -2.5196354    6.3494432    1.4219894 
H    -1.8427842   -1.6956059    5.8697482 
