99
Energy =
C     1.4538159    0.7576332   -2.5824613 
C     0.0820853    0.7432211   -2.9251341 
C    -0.8288299    1.6838071   -2.3740214 
H    -0.3059707   -0.0804252   -3.5355232 
Pd    0.0952233    0.4242985   -0.7291027 
P    -1.6742859    0.8836664    0.7501695 
P     1.7506462   -0.7806534    0.4745790 
H     1.8576231    1.6875260   -2.1562653 
H    -0.4083805    2.6332480   -2.0138016 
C     4.4897231   -1.9021211   -4.0723511 
C     4.8322271   -0.7603376   -3.3339638 
C     3.8327393    0.0995286   -2.8634343 
C     2.4669016   -0.1667711   -3.1142439 
C     2.1393924   -1.3091308   -3.8848440 
C     3.1378230   -2.1671333   -4.3538247 
H     5.2697948   -2.5762682   -4.4405625 
H     5.8823434   -0.5353479   -3.1217644 
H     4.1082455    0.9895431   -2.2883854 
H     1.0951891   -1.5294127   -4.1247944 
H     2.8635625   -3.0449457   -4.9479517 
C    -5.0624410    1.8675492   -3.1263975 
C    -4.3398647    0.7236018   -3.5080860 
C    -2.9614909    0.6541052   -3.2858489 
C    -2.2720512    1.7265240   -2.6711316 
C    -3.0077499    2.8826249   -2.3199930 
C    -4.3885423    2.9500288   -2.5412402 
H    -6.1426299    1.9172228   -3.2974888 
H    -4.8562031   -0.1180781   -3.9811170 
H    -2.4203074   -0.2492352   -3.5855243 
H    -2.4893037    3.7299099   -1.8598377 
H    -4.9387895    3.8518480   -2.2541943 
C    -1.4599553   -3.6900002   -1.5246189 
C    -2.2677060   -3.7016095   -0.2090874 
C    -0.1434945   -2.8957244   -1.4907127 
C    -2.4838116   -2.3265130    0.4479768 
C     0.9013156   -3.3731986   -0.4712748 
C    -3.1438175   -1.2695280   -0.4436334 
C     2.1141949   -2.4304563   -0.3316234 
C    -3.2866014    0.1184156    0.2070303 
C     1.6643794   -1.2211861    2.2646186 
C     3.3267005    0.1585984    0.3703591 
C    -1.4740297    0.5611031    2.5507368 
C    -2.0047293    2.6981149    0.7834906 
C     0.5785890   -1.9796117    2.7515046 
C     3.2634979    1.5662789    0.4414837 
C    -0.3486665    1.1354655    3.1798460 
C    -3.2892349    3.2128102    1.0475534 
C     2.6933047   -0.8565764    3.1584098 
C     4.5837629   -0.4660985    0.2470863 
C    -2.4042338   -0.1535707    3.3279622 
C    -0.9364596    3.5914730    0.5680982 
C     0.5401192   -2.3953087    4.0871622 
C     4.4320479    2.3370070    0.3785197 
C    -0.1679336    1.0137398    4.5607100 
C    -3.5022895    4.5981427    1.0660128 
C     2.6446315   -1.2649566    4.4992411 
C     5.7522930    0.3069098    0.1826897 
C    -2.2155855   -0.2812139    4.7126584 
C    -1.1496546    4.9766511    0.5951283 
C     1.5753548   -2.0417945    4.9652700 
C     5.6796361    1.7066077    0.2441016 
C    -1.1031669    0.3045645    5.3310237 
C    -2.4365092    5.4818655    0.8359358 
H    -1.2527833   -4.7367595   -1.8172592 
H    -2.0870089   -3.2728078   -2.3354685 
H    -1.7684233   -4.3579673    0.5283613 
H    -3.2499512   -4.1702359   -0.4074669 
H    -0.3706722   -1.8217834   -1.2912953 
H     0.3136391   -2.9159551   -2.4953130 
H    -1.5044204   -1.9229948    0.7733945 
H    -3.0751644   -2.4627437    1.3723270 
H     1.2832244   -4.3647935   -0.7789706 
H     0.4398612   -3.5312471    0.5194852 
H    -4.1482122   -1.6055209   -0.7627770 
H    -2.5530142   -1.1487351   -1.3687142 
H     2.8995816   -2.9106617    0.2777831 
H     2.5430826   -2.1963244   -1.3227128 
H    -3.7014292    0.8302453   -0.5270754 
H    -3.9803780    0.0974272    1.0658141 
H    -0.2551499   -2.2326129    2.0933672 
H     2.2869693    2.0563164    0.5392954 
H     0.3909514    1.6814395    2.5829028 
H    -4.1325789    2.5401783    1.2316055 
H     3.5395200   -0.2566822    2.8116348 
H     4.6614486   -1.5554770    0.1913232 
H    -3.2849254   -0.6107063    2.8686297 
H     0.0655923    3.1948955    0.3633199 
H    -0.3111261   -2.9827515    4.4447443 
H     4.3699359    3.4288345    0.4317267 
H     0.7107027    1.4612079    5.0350685 
H    -4.5063535    4.9886565    1.2616206 
H     3.4525817   -0.9758948    5.1795412 
H     6.7231508   -0.1884031    0.0784325 
H    -2.9467325   -0.8379148    5.3080832 
H    -0.3128702    5.6613057    0.4221195 
H     1.5422092   -2.3617895    6.0117609 
H     6.5938580    2.3064687    0.1892327 
H    -0.9597053    0.2042628    6.4116336 
H    -2.6078529    6.5630972    0.8487274 
