99
Energy =
C     1.2096453    0.3243497   -2.6990554 
C    -0.1939159    0.4415873   -2.9212126 
C    -0.9061240    1.5662029   -2.4464052 
H    -0.7388920   -0.3895856   -3.3842877 
Pd    0.0850236    0.3391600   -0.7385169 
P    -1.7257522    0.6455656    0.7714464 
P     1.8638797   -0.6913140    0.4051136 
H     1.7658691    1.2629947   -2.5676347 
H    -0.3094740    2.4526672   -2.1849891 
C     3.6348520   -2.9230158   -4.1412113 
C     2.2686249   -3.1338527   -3.8902292 
C     1.4721141   -2.0942959   -3.4033611 
C     2.0215177   -0.8120849   -3.1688090 
C     3.3988867   -0.6167454   -3.4211484 
C     4.1985425   -1.6616684   -3.9013727 
H     4.2563462   -3.7407952   -4.5199155 
H     1.8259305   -4.1196299   -4.0629545 
H     0.4159101   -2.2838767   -3.1866317 
H     3.8375075    0.3757799   -3.2644603 
H     5.2608711   -1.4865847   -4.1004819 
C    -5.0643183    2.4633443   -3.0477557 
C    -4.5812313    1.1810599   -3.3587635 
C    -3.2350773    0.8657350   -3.1601222 
C    -2.3357345    1.8313143   -2.6500205 
C    -2.8346347    3.1228476   -2.3559083 
C    -4.1856198    3.4353077   -2.5471388 
H    -6.1208062    2.7045795   -3.2031764 
H    -5.2613830    0.4201994   -3.7533469 
H    -2.8836271   -0.1415462   -3.3992005 
H    -2.1442022    3.8930785   -1.9924765 
H    -4.5502663    4.4418420   -2.3178768 
C     2.7037247    3.9898916    0.3549945 
C     1.5253944    3.9591733    1.3531974 
C     3.0397088    2.6265096   -0.2802927 
C     0.2271128    3.4267397    0.7337915 
C     3.6081942    1.5832961    0.6984213 
C    -0.9416501    3.2383133    1.7098770 
C     3.5309951    0.1298149    0.1885586 
C    -2.1128591    2.4333837    1.1056914 
C     1.7958066   -0.8533937    2.2342910 
C     2.0961177   -2.4141157   -0.1835321 
C    -3.2480391   -0.0601179    0.0109497 
C    -1.7541508   -0.1625071    2.4271830 
C     1.3221840    0.2358472    2.9916217 
C     0.9448858   -3.2235407   -0.2981962 
C    -3.1259151   -1.2869721   -0.6752330 
C    -1.3400423   -1.5068688    2.5123191 
C     2.2563775   -2.0084231    2.8969754 
C     3.3538157   -2.9668923   -0.4926125 
C    -4.5190756    0.5291934    0.1456270 
C    -2.2023513    0.4893278    3.5926558 
C     1.3203435    0.1817790    4.3902559 
C     1.0498489   -4.5650453   -0.6822488 
C    -4.2575049   -1.9242508   -1.1997980 
C    -1.3689970   -2.1874331    3.7336088 
C     2.2431008   -2.0636114    4.2979446 
C     3.4542548   -4.3076152   -0.8926709 
C    -5.6474171   -0.1039823   -0.3942377 
C    -2.2255334   -0.1928302    4.8182898 
C     1.7792091   -0.9707894    5.0453395 
C     2.3087134   -5.1106881   -0.9790259 
C    -5.5218873   -1.3325099   -1.0591260 
C    -1.8086892   -1.5288120    4.8923364 
H     2.4647847    4.7045285   -0.4553768 
H     3.5993822    4.3916137    0.8649045 
H     1.3627917    4.9779968    1.7514647 
H     1.7899822    3.3345796    2.2290456 
H     3.7588849    2.7727501   -1.1078258 
H     2.1254614    2.2154099   -0.7485879 
H     0.4369127    2.4351205    0.2731939 
H    -0.0886712    4.0807448   -0.1029884 
H     3.1030812    1.6512852    1.6787407 
H     4.6688828    1.8177882    0.9023055 
H    -1.3284729    4.2223947    2.0334009 
H    -0.5840680    2.7390074    2.6308743 
H     3.7926876    0.0613495   -0.8821660 
H     4.2383413   -0.5058049    0.7499663 
H    -2.9999989    2.4806008    1.7608134 
H    -2.4174615    2.8520378    0.1307005 
H     0.9303690    1.1198593    2.4790770 
H    -0.0404440   -2.7901277   -0.0934698 
H    -2.1335972   -1.7363836   -0.8048898 
H    -0.9761691   -2.0199256    1.6169526 
H     2.6196623   -2.8659965    2.3212858 
H     4.2623140   -2.3621238   -0.4333760 
H    -4.6426773    1.4834657    0.6655141 
H    -2.5379664    1.5299404    3.5631738 
H     0.9414534    1.0311270    4.9670955 
H     0.1489511   -5.1826759   -0.7586778 
H    -4.1515312   -2.8792404   -1.7250486 
H    -1.0333548   -3.2278318    3.7832619 
H     2.5969960   -2.9661406    4.8070926 
H     4.4364135   -4.7233050   -1.1394254 
H    -6.6304783    0.3670422   -0.2922282 
H    -2.5732214    0.3256540    5.7178818 
H     1.7669283   -1.0203544    6.1389512 
H     2.3946830   -6.1580136   -1.2863214 
H    -6.4079912   -1.8256626   -1.4719095 
H    -1.8229974   -2.0562003    5.8515423 
