99
Energy =
C     1.4659760    0.7646297   -2.5716137 
C     0.0966332    0.7449157   -2.9235358 
C    -0.8215158    1.6811092   -2.3769924 
H    -0.2839551   -0.0793684   -3.5377694 
Pd    0.0974511    0.4235610   -0.7276681 
P    -1.6817285    0.8761586    0.7415848 
P     1.7501830   -0.7764509    0.4837564 
H     1.8628345    1.6958238   -2.1416938 
H    -0.4071759    2.6318417   -2.0131506 
C     4.5243930   -1.8747964   -4.0515327 
C     4.8568269   -0.7306254   -3.3122501 
C     3.8499956    0.1220591   -2.8442832 
C     2.4867957   -0.1538217   -3.0989258 
C     2.1693781   -1.2988629   -3.8697590 
C     3.1751076   -2.1497791   -4.3360489 
H     5.3102314   -2.5432420   -4.4178833 
H     5.9047619   -0.4982121   -3.0972760 
H     4.1175987    1.0141532   -2.2686680 
H     1.1273245   -1.5268219   -4.1118843 
H     2.9086644   -3.0297083   -4.9306070 
C    -5.0508101    1.8495273   -3.1567389 
C    -4.3215285    0.7084637   -3.5342937 
C    -2.9444015    0.6438811   -3.3029561 
C    -2.2629882    1.7184861   -2.6831473 
C    -3.0052597    2.8716295   -2.3360797 
C    -4.3848181    2.9340525   -2.5663121 
H    -6.1299880    1.8954132   -3.3351294 
H    -4.8316508   -0.1348626   -4.0111275 
H    -2.3979241   -0.2572978   -3.5995509 
H    -2.4929110    3.7207153   -1.8724127 
H    -4.9402596    3.8336560   -2.2823271 
C    -1.4403376   -3.6954197   -1.5340499 
C    -2.2555053   -3.7102896   -0.2231297 
C    -0.1267282   -2.8967927   -1.4921401 
C    -2.4795678   -2.3361674    0.4332770 
C     0.9135230   -3.3714637   -0.4667581 
C    -3.1381386   -1.2808794   -0.4614111 
C     2.1228579   -2.4252122   -0.3202999 
C    -3.2886562    0.1063820    0.1889349 
C     1.6556530   -1.2165754    2.2734851 
C     3.3239561    0.1673883    0.3882193 
C    -1.4912505    0.5540247    2.5433094 
C    -2.0178730    2.6896709    0.7734429 
C     0.5697911   -1.9784721    2.7548028 
C     3.2563366    1.5745877    0.4656180 
C    -0.3717888    1.1323734    3.1792667 
C    -0.9512505    3.5863536    0.5637317 
C     2.6783817   -0.8479486    3.1727368 
C     4.5832617   -0.4530328    0.2666785 
C    -2.4237738   -0.1637525    3.3148622 
C    -3.3053860    3.2003903    1.0305012 
C     0.5253074   -2.3934564    4.0904941 
C     4.4228532    2.3489878    0.4108036 
C    -0.1991507    1.0114152    4.5612349 
C    -1.1689495    4.9708713    0.5892673 
C     2.6235968   -1.2555725    4.5135618 
C     5.7497860    0.3236999    0.2105582 
C    -2.2431654   -0.2906906    4.7007117 
C    -3.5229985    4.5850506    1.0469904 
C     1.5544300   -2.0358268    4.9741228 
C     5.6728327    1.7228455    0.2784335 
C    -1.1366371    0.2990373    5.3258595 
C    -2.4587471    5.4720866    0.8226021 
H    -1.2279630   -4.7413473   -1.8259307 
H    -2.0640970   -3.2799349   -2.3483065 
H    -1.7583313   -4.3654791    0.5167786 
H    -3.2351388   -4.1818629   -0.4273346 
H    -0.3584976   -1.8236739   -1.2936653 
H     0.3362967   -2.9152669   -2.4940990 
H    -1.5032402   -1.9296881    0.7641945 
H    -3.0754781   -2.4746889    1.3543516 
H     1.3000086   -4.3619503   -0.7723128 
H     0.4468532   -3.5308571    0.5213295 
H    -4.1397708   -1.6199381   -0.7859485 
H    -2.5428592   -1.1578824   -1.3833193 
H     2.9062539   -2.9030769    0.2934989 
H     2.5564177   -2.1898454   -1.3090744 
H    -3.7013791    0.8173078   -0.5472213 
H    -3.9872198    0.0830368    1.0437718 
H    -0.2595205   -2.2345067    2.0922447 
H     2.2780816    2.0613677    0.5624846 
H     0.3694413    1.6810817    2.5868615 
H     0.0531509    3.1929189    0.3644880 
H     3.5244776   -0.2454178    2.8302407 
H     4.6644293   -1.5418802    0.2059197 
H    -3.3002487   -0.6236292    2.8502359 
H    -4.1474452    2.5251705    1.2109459 
H    -0.3258912   -2.9835910    4.4437342 
H     4.3573270    3.4403797    0.4687325 
H     0.6748792    1.4621710    5.0409701 
H    -0.3333297    5.6581219    0.4209612 
H     3.4267038   -0.9632394    5.1981901 
H     6.7224722   -0.1683202    0.1077511 
H    -2.9760335   -0.8498816    5.2916755 
H    -4.5294556    4.9724264    1.2364680 
H     1.5167186   -2.3555586    6.0205425 
H     6.5854933    2.3256264    0.2298558 
H    -0.9994504    0.1992892    6.4073398 
H    -2.6335585    6.5527787    0.8342044 
