99
Energy =
C     1.4503578    0.7428853   -2.4342271 
C     0.0859294    0.7657769   -2.8079854 
C    -0.8412613    1.6830641   -2.2539180 
H    -0.2883291   -0.0209629   -3.4731532 
Pd    0.0937042    0.3379329   -0.6213614 
P    -1.5492333    0.7756176    1.0345234 
P     1.7748833   -0.9393665    0.4587952 
H     1.8632308    1.6492248   -1.9681493 
H    -0.4435997    2.6056211   -1.8076252 
C     4.4529180   -1.9118437   -3.9999303 
C     4.8114371   -0.7973036   -3.2278258 
C     3.8240674    0.0637182   -2.7344374 
C     2.4547840   -0.1755881   -2.9951082 
C     2.1111379   -1.2906285   -3.7973223 
C     3.0977947   -2.1487145   -4.2904708 
H     5.2235102   -2.5869570   -4.3858981 
H     5.8644099   -0.5944400   -3.0077701 
H     4.1125244    0.9322521   -2.1337673 
H     1.0636420   -1.4956971   -4.0345466 
H     2.8112601   -3.0066031   -4.9074469 
C    -4.9809160    1.9507087   -3.4108295 
C    -4.2304232    0.8174540   -3.7698123 
C    -2.8870925    0.7159415   -3.3996169 
C    -2.2592949    1.7410768   -2.6506486 
C    -3.0223831    2.8834505   -2.3178006 
C    -4.3674850    2.9860078   -2.6917100 
H    -6.0333134    2.0282403   -3.7025269 
H    -4.6961803    0.0112686   -4.3460731 
H    -2.3249338   -0.1744130   -3.6950864 
H    -2.5515021    3.6989641   -1.7603423 
H    -4.9362063    3.8803689   -2.4179424 
C    -1.3433885   -3.8091942   -1.5371019 
C    -2.2714198   -3.0461541   -0.5692232 
C     0.0589243   -3.1852787   -1.6717584 
C    -2.7167050   -1.6893339   -1.1336474 
C     1.0016997   -3.5187051   -0.5023068 
C    -3.6104038   -0.8347749   -0.2232540 
C     2.1999621   -2.5594134   -0.3727913 
C    -2.9789922   -0.4128566    1.1169192 
C     3.3517507    0.0083362    0.4765243 
C     1.5616318   -1.4843845    2.2046607 
C    -0.9923900    0.8962815    2.7903265 
C    -2.2940722    2.4524850    0.8497114 
C     4.6148073   -0.6150446    0.4090119 
C     2.6146479   -1.4314856    3.1395786 
C     0.3291368    1.2945123    3.0628482 
C    -3.6788219    2.6981496    0.8436346 
C     3.2895906    1.4161306    0.5498017 
C     0.3092612   -1.9852082    2.6102652 
C    -1.8733968    0.6647912    3.8662194 
C    -1.4011852    3.5436539    0.7777930 
C     5.7861979    0.1562124    0.4123492 
C     2.4108202   -1.8731582    4.4542821 
C     0.7731428    1.4418947    4.3824110 
C    -4.1613219    4.0149191    0.7738484 
C     4.4605231    2.1856306    0.5558771 
C     0.1087228   -2.4287106    3.9227345 
C    -1.4268226    0.8092927    5.1866016 
C    -1.8847359    4.8553604    0.7103586 
C     5.7128028    1.5553230    0.4840035 
C     1.1602025   -2.3700756    4.8490948 
C    -0.1036412    1.1941303    5.4481548 
C    -3.2698994    5.0937671    0.7080881 
H    -1.2430178   -4.8601769   -1.2066195 
H    -1.8262724   -3.8464483   -2.5318975 
H    -1.7504365   -2.9067613    0.3983701 
H    -3.1633863   -3.6613605   -0.3474054 
H    -0.0363995   -2.0821991   -1.7562051 
H     0.5335629   -3.5179327   -2.6116741 
H    -3.2575203   -1.8599268   -2.0819576 
H    -1.8183298   -1.0916532   -1.3978308 
H     1.3942209   -4.5434033   -0.6354630 
H     0.4447129   -3.5435530    0.4526390 
H    -4.5324919   -1.3979459    0.0156421 
H    -3.9312374    0.0628969   -0.7831258 
H     2.9876534   -3.0149805    0.2523186 
H     2.6376571   -2.3249375   -1.3590452 
H    -3.7452752    0.0443868    1.7668792 
H    -2.5947578   -1.2897791    1.6673486 
H     4.6958653   -1.7034461    0.3392362 
H     3.5912834   -1.0314265    2.8504279 
H     1.0240533    1.4654423    2.2351302 
H    -4.3964015    1.8738201    0.8831364 
H     2.3115817    1.9120504    0.5775748 
H    -0.5215569   -2.0038806    1.8972565 
H    -2.9125746    0.3723728    3.6896563 
H    -0.3192378    3.3621491    0.7850124 
H     6.7602690   -0.3402185    0.3529301 
H     3.2333908   -1.8210983    5.1751811 
H     1.8097759    1.7353770    4.5756773 
H    -5.2416154    4.1926991    0.7644688 
H     4.3956113    3.2772996    0.6087412 
H    -0.8735695   -2.8047109    4.2257748 
H    -2.1184799    0.6213393    6.0143963 
H    -1.1822832    5.6938274    0.6620302 
H     6.6293126    2.1541535    0.4808874 
H     1.0026712   -2.7050502    5.8793409 
H     0.2432372    1.2999379    6.4811333 
H    -3.6500799    6.1189878    0.6550328 
