99
Energy =
C    -1.3866247    0.4249024   -2.6578547 
C    -0.0067304    0.6144733   -2.9067291 
C     0.9043619   -0.4753295   -2.8237451 
H     0.3803287    1.6265380   -3.0748235 
Pd   -0.0823858   -0.0828954   -0.8166373 
P     1.6910173   -1.1067076    0.3582078 
P    -1.6660016    0.7170064    0.7395195 
H    -1.7610146   -0.6056190   -2.7407830 
H     0.4844860   -1.4819316   -2.9687244 
C    -4.5035662    3.3709542   -2.9409895 
C    -4.8121830    2.0050168   -2.8601213 
C    -3.7832906    1.0601449   -2.7684704 
C    -2.4259799    1.4600356   -2.7457670 
C    -2.1331586    2.8408834   -2.8368221 
C    -3.1603280    3.7826174   -2.9357889 
H    -5.3051089    4.1128943   -3.0156997 
H    -5.8556799    1.6741467   -2.8808976 
H    -4.0266675   -0.0076104   -2.7308706 
H    -1.0954364    3.1852354   -2.8235067 
H    -2.9129662    4.8464082   -3.0023213 
C     5.0939184   -0.1765484   -3.7545597 
C     4.4203273   -1.3996935   -3.8801618 
C     3.0596927   -1.4867072   -3.5582638 
C     2.3463933   -0.3547886   -3.1015324 
C     3.0457693    0.8675544   -2.9648667 
C     4.4001812    0.9558810   -3.2951694 
H     6.1559655   -0.1040409   -4.0100229 
H     4.9511898   -2.2858934   -4.2429225 
H     2.5307065   -2.4376760   -3.6918887 
H     2.5286878    1.7528849   -2.5812694 
H     4.9237394    1.9100667   -3.1815859 
C    -3.0056153   -3.8110484   -0.6176945 
C    -1.6439750   -4.2219540   -0.0197413 
C    -3.2756176   -2.2947501   -0.6438880 
C    -0.4492375   -3.4846469   -0.6387838 
C    -3.3099379   -1.6060182    0.7305693 
C     0.9083256   -3.8479161   -0.0172619 
C    -3.3459404   -0.0598973    0.6264587 
C     2.0316417   -2.8291446   -0.2906865 
C    -1.2853827    0.7166674    2.5430726 
C    -1.9145524    2.5168906    0.4354420 
C     3.2539140   -0.1729748    0.1471341 
C     1.6054484   -1.4140571    2.1674041 
C    -0.0461856    1.2504968    2.9522801 
C    -0.7848076    3.2926821    0.0998499 
C     3.2108755    1.2179674    0.3863984 
C     0.4162293   -1.9448612    2.7073489 
C    -2.1811339    0.2426454    3.5211095 
C    -3.1627492    3.1495348    0.5880432 
C     4.4800579   -0.7716972   -0.1991758 
C     2.7121442   -1.1994774    3.0127513 
C     0.2883182    1.3200663    4.3080137 
C    -0.8957193    4.6800405   -0.0572622 
C     4.3749126    1.9910794    0.3080649 
C     0.3393710   -2.2766352    4.0645503 
C    -1.8421066    0.3100317    4.8808286 
C    -3.2732171    4.5360592    0.4128961 
C     5.6420060    0.0084001   -0.2906990 
C     2.6269360   -1.5219752    4.3749427 
C    -0.6108400    0.8484412    5.2771089 
C    -2.1422614    5.3042943    0.0997085 
C     5.5951999    1.3849827   -0.0299606 
C     1.4459339   -2.0645411    4.9011646 
H    -3.0689609   -4.1864269   -1.6566050 
H    -3.8118625   -4.3209640   -0.0576532 
H    -1.5148720   -5.3141017   -0.1386548 
H    -1.6412816   -4.0407288    1.0733663 
H    -4.2390954   -2.1087236   -1.1547791 
H    -2.5056534   -1.7998711   -1.2645554 
H    -0.6066428   -2.3889083   -0.5088929 
H    -0.4234783   -3.6468525   -1.7345999 
H    -2.4373249   -1.9178316    1.3351532 
H    -4.1965306   -1.9526705    1.2918566 
H     1.2440840   -4.8321296   -0.3933556 
H     0.7959148   -3.9696000    1.0758645 
H    -3.7714874    0.2668444   -0.3380039 
H    -3.9761398    0.3864135    1.4145085 
H     2.9644570   -3.1696142    0.1921927 
H     2.2307741   -2.7207582   -1.3708943 
H     0.6665074    1.6077190    2.2019095 
H     0.1829387    2.7986656   -0.0515740 
H     2.2544291    1.6932761    0.6317324 
H    -0.4585391   -2.0812184    2.0634291 
H    -3.1479120   -0.1849203    3.2409812 
H    -4.0569463    2.5721809    0.8399207 
H     4.5408345   -1.8425621   -0.4088717 
H     3.6400392   -0.7812418    2.6099859 
H     1.2574564    1.7304136    4.6078458 
H    -0.0108285    5.2728941   -0.3115837 
H     4.3293629    3.0673790    0.5040091 
H    -0.5908072   -2.6838584    4.4723775 
H    -2.5471366   -0.0619162    5.6315658 
H    -4.2500069    5.0176851    0.5249502 
H     6.5879671   -0.4658981   -0.5707864 
H     3.4904568   -1.3502385    5.0260025 
H    -0.3481063    0.8957500    6.3387363 
H    -2.2336987    6.3879297   -0.0275764 
H     6.5068556    1.9874410   -0.0981856 
H     1.3835563   -2.3144445    5.9652656 
