85
Energy =
C     0.0160682    2.4565647   -0.9460247 
C    -0.2368078    1.5722830   -2.0430923 
C    -1.4712941    0.9199987   -2.1924742 
H     0.5781181    1.3628257   -2.7475583 
Pd   -0.2881403    0.4046241   -0.1499276 
P    -0.4455478   -1.9827184   -0.1862697 
P     0.3997817    0.8660094    2.0895727 
H    -0.8476894    3.0176062   -0.5625764 
H    -2.2977145    1.2608587   -1.5503417 
C     3.8322452    4.4086484   -0.4979959 
C     3.7769901    3.0465710   -0.8393239 
C     2.5403419    2.4118754   -0.9978432 
C     1.3312079    3.1231003   -0.8104137 
C     1.4025954    4.4950018   -0.4835147 
C     2.6415230    5.1311212   -0.3287372 
H     4.7997899    4.9043697   -0.3696342 
H     4.7014084    2.4758161   -0.9758941 
H     2.5110759    1.3425627   -1.2390342 
H     0.4774884    5.0661270   -0.3522940 
H     2.6771104    6.1961313   -0.0770208 
C    -2.7814768   -1.4455733   -5.5315226 
C    -3.6772790   -1.0767691   -4.5162003 
C    -3.2308816   -0.3102981   -3.4344790 
C    -1.8791304    0.1006478   -3.3384625 
C    -0.9977282   -0.2498618   -4.3911480 
C    -1.4430898   -1.0201917   -5.4684366 
H    -3.1271397   -2.0463677   -6.3788411 
H    -4.7269744   -1.3824684   -4.5709085 
H    -3.9356275   -0.0172178   -2.6490432 
H     0.0421658    0.0867265   -4.3738955 
H    -0.7469685   -1.2820198   -6.2718392 
N     2.6692611   -1.1821198    0.5181556 
C     0.7537831   -2.8797009    0.9215283 
C     1.7512135   -0.2401635    2.7212880 
C    -2.0719640   -2.8675130    0.1699514 
C    -0.0277493   -2.5934594   -1.9252285 
C     1.0703927    2.5987948    2.4248205 
C    -1.0096472    0.7210919    3.3472141 
C     2.2574003   -2.5746394    0.6619386 
C     2.9322972   -0.4225409    1.7308260 
C    -3.2078263   -2.2415770   -0.6517356 
C    -2.4362837   -2.9370798    1.6602128 
C     0.0916206   -4.1218420   -2.0577130 
C     1.2096730   -1.8911156   -2.5151709 
C     1.8672384    2.7288051    3.7357907 
C    -0.0573286    3.6452583    2.3710611 
C    -0.9910671   -0.5814187    4.1637326 
C    -2.3641886    0.9698315    2.6571493 
H     0.5749737   -3.9651035    0.8046885 
H     0.4636247   -2.6228266    1.9536844 
H     1.3066459   -1.2196399    2.9514744 
H     2.1116551    0.1681281    3.6809820 
H    -1.9006756   -3.9007313   -0.1858674 
H    -0.9056352   -2.2557514   -2.5072062 
H     1.7573723    2.7844356    1.5813433 
H    -0.8223175    1.5534325    4.0509663 
H     2.5611530   -3.1253863   -0.2467001 
H     2.8450618   -3.0162740    1.4874727 
H     3.7479096   -0.9304079    2.2789117 
H     3.3275302    0.5653914    1.4307487 
H     2.0460857   -0.6649339   -0.1151939 
H    -3.3597200   -1.1839853   -0.3685422 
H    -3.0102429   -2.2804039   -1.7347289 
H    -4.1515378   -2.7835239   -0.4642147 
H    -2.6250259   -1.9343387    2.0759493 
H    -1.6596446   -3.4309345    2.2670917 
H    -3.3653461   -3.5225386    1.7768844 
H     0.9695350   -4.5122025   -1.5139634 
H    -0.8039863   -4.6562790   -1.6996130 
H     0.2228143   -4.3832309   -3.1228924 
H     2.1487134   -2.2459981   -2.0613146 
H     1.1610636   -0.7978069   -2.3774302 
H     1.2665401   -2.0956484   -3.5980725 
H     1.2778878    2.4175610    4.6179888 
H     2.8058950    2.1517897    3.7201884 
H     2.1406125    3.7888891    3.8823434 
H    -0.6947953    3.5329394    1.4799857 
H     0.3839558    4.6559235    2.3440779 
H    -0.7052773    3.5900523    3.2634996 
H    -1.0229114   -1.4768617    3.5224549 
H    -0.1006644   -0.6492727    4.8095391 
H    -1.8804345   -0.6142563    4.8179406 
H    -3.1789372    0.9586146    3.4028479 
H    -2.5743439    0.1900258    1.9037174 
H    -2.3887789    1.9445579    2.1423118 
