85
Energy =
C     0.0777824    0.5349565   -2.7069247 
C    -0.3147831    1.6687795   -1.9730259 
C     0.5697582    2.3047618   -1.0498080 
H    -1.3435945    2.0372620   -2.0659776 
Pd    0.0959362    0.2322155   -0.3233748 
P     1.0084231    0.6783258    1.8235129 
P    -0.7179270   -1.9894551   -0.1794543 
H     1.1514921    0.2946270   -2.7096891 
H     1.6456064    2.1947086   -1.2468997 
C    -2.0679132   -1.3836098   -5.9014174 
C    -2.6914142   -0.3612471   -5.1654330 
C    -2.0134722    0.2707486   -4.1196549 
C    -0.6925572   -0.1083637   -3.7791157 
C    -0.0690325   -1.1186538   -4.5512799 
C    -0.7497010   -1.7545736   -5.5953701 
H    -2.6031112   -1.8760336   -6.7195944 
H    -3.7120111   -0.0528252   -5.4138571 
H    -2.5182284    1.0686349   -3.5665502 
H     0.9657048   -1.3990248   -4.3285099 
H    -0.2475075   -2.5331172   -6.1786497 
C    -0.4442663    5.8375909    1.2022669 
C    -1.4616405    4.9734470    0.7631913 
C    -1.1464759    3.8319939    0.0192242 
C     0.1961746    3.5231277   -0.3025332 
C     1.2053088    4.4201213    0.1197928 
C     0.8902252    5.5611325    0.8687281 
H    -0.6928417    6.7270575    1.7898494 
H    -2.5068379    5.1891414    1.0079970 
H    -1.9519837    3.1591359   -0.2927229 
H     2.2481301    4.2256211   -0.1565862 
H     1.6879959    6.2409031    1.1852555 
N     2.1244237   -2.5568393    1.5484288 
C     1.2517544   -0.6627806    3.0883501 
C    -0.3912184   -3.0505493    1.3168116 
C     2.7150439    1.4268891    1.5424576 
C    -0.0248672    1.9566830    2.7467621 
C    -2.6006847   -2.0479699   -0.2174690 
C    -0.1886722   -3.0296331   -1.6503371 
C     2.2849170   -1.7738984    2.7582251 
C     1.0629765   -3.5467107    1.5119291 
C     3.5149254    0.6167393    0.4994831 
C     3.5577465    1.7087207    2.7988349 
C     0.3050153    2.1710750    4.2350797 
C    -1.5165182    1.6214651    2.5707944 
C    -3.1583800   -1.4116071   -1.4969592 
C    -3.2123417   -1.3904593    1.0317063 
C    -0.7117001   -4.4760719   -1.6384956 
C     1.3329817   -2.9631843   -1.8870195 
H     0.2536505   -1.0847830    3.2989528 
H     1.5785572   -0.1569164    4.0151088 
H    -1.0665384   -3.9238848    1.2387924 
H    -0.7286863   -2.4691700    2.1907906 
H     2.4483116    2.3972811    1.0868635 
H     0.1903722    2.8899457    2.1960365 
H    -2.8489405   -3.1268428   -0.2073232 
H    -0.6697858   -2.4937641   -2.4892163 
H     2.2898684   -2.4780219    3.6110667 
H     3.2909383   -1.3184653    2.7430034 
H     1.2948809   -4.2808885    0.7200757 
H     1.1019599   -4.1112422    2.4619584 
H     2.1751351   -1.9921525    0.6964513 
H     3.9152869   -0.3207388    0.9205911 
H     2.8970591    0.3566980   -0.3799422 
H     4.3766794    1.2114022    0.1479403 
H     3.7846660    0.7894503    3.3655908 
H     3.0695648    2.4240273    3.4781828 
H     4.5231259    2.1510578    2.4938197 
H     0.0304592    1.2925213    4.8442925 
H     1.3660345    2.4006135    4.4169215 
H    -0.2869123    3.0256149    4.6082234 
H    -1.7827601    0.6853665    3.0938725 
H    -1.7788137    1.5077874    1.5055156 
H    -2.1356303    2.4323579    2.9925995 
H    -2.8969093   -0.3398007   -1.5379895 
H    -2.7802907   -1.8895137   -2.4148004 
H    -4.2597356   -1.4927370   -1.5063917 
H    -2.9782932   -0.3136570    1.0602169 
H    -2.8619079   -1.8463171    1.9724981 
H    -4.3109666   -1.4976989    1.0016510 
H    -0.2588671   -5.0734615   -0.8282086 
H    -1.8086404   -4.5251158   -1.5329547 
H    -0.4516271   -4.9667071   -2.5935319 
H     1.9017904   -3.5413312   -1.1404831 
H     1.7016834   -1.9220999   -1.8644221 
H     1.5726408   -3.3880705   -2.8777237 
