85
Energy =
C     0.3641990    0.3408169   -2.7010745 
C     0.1513171    1.5975762   -2.0927522 
C     1.1500542    2.1845864   -1.2715361 
H    -0.8130132    2.1061998   -2.2146249 
Pd    0.3607975    0.2383297   -0.3750345 
P     0.9442811    0.6609753    1.9094277 
P    -0.7245985   -1.8549791   -0.0926910 
H     1.4069153   -0.0057433   -2.7583752 
H     2.1867540    1.8697465   -1.4582751 
C    -2.1832654   -1.4993210   -5.6429971 
C    -2.7143041   -0.5271900   -4.7781446 
C    -1.9015087    0.0824526   -3.8180241 
C    -0.5384651   -0.2745038   -3.6885599 
C    -0.0128503   -1.2314845   -4.5882725 
C    -0.8252902   -1.8395738   -5.5523669 
H    -2.8224202   -1.9761519   -6.3929879 
H    -3.7680884   -0.2407267   -4.8570217 
H    -2.3336026    0.8432349   -3.1607189 
H     1.0490741   -1.4918680   -4.5310296 
H    -0.3959956   -2.5762775   -6.2392226 
C     0.7661640    6.1291134    0.4122599 
C    -0.3706838    5.3142793    0.2771150 
C    -0.2575579    4.0313513   -0.2689915 
C     0.9970651    3.5322375   -0.6899871 
C     2.1291412    4.3693766   -0.5622611 
C     2.0149969    5.6538875   -0.0157750 
H     0.6763303    7.1312583    0.8435268 
H    -1.3491357    5.6806281    0.6050867 
H    -1.1459101    3.3952801   -0.3452902 
H     3.1054532    4.0066024   -0.9013168 
H     2.9032226    6.2880685    0.0722943 
N     2.2672920   -2.1752356    0.7749602 
C     1.9439154   -0.6749039    2.7531169 
C    -0.0843338   -2.9368658    1.2788823 
C     2.0423048    2.1814590    2.1317668 
C    -0.4558164    1.0057218    3.1295077 
C    -2.5257102   -1.5436917    0.3936996 
C    -0.7537457   -2.9510259   -1.6183217 
C     2.9259451   -1.4599411    1.8663970 
C     1.4124791   -3.2994579    1.1734410 
C     3.4151109    1.9550505    1.4735292 
C     2.2098984    2.6843898    3.5763801 
C    -1.2158225   -0.2221382    3.6532030 
C    -1.4031843    2.0513502    2.5158687 
C    -3.2484219   -2.6581376    1.1714215 
C    -3.3287256   -1.0430020   -0.8179510 
C    -1.5882122   -4.2377488   -1.4959863 
C     0.6692420   -3.2624217   -2.1200665 
H     1.2365829   -1.3751561    3.2270434 
H     2.4984961   -0.1994411    3.5823308 
H    -0.6851626   -3.8623664    1.3192423 
H    -0.2953964   -2.3862952    2.2102201 
H     1.5124680    2.9603466    1.5586355 
H     0.0546525    1.4589164    3.9972563 
H    -2.4154938   -0.6794807    1.0739486 
H    -1.2321627   -2.2943956   -2.3678314 
H     3.4878474   -2.1494928    2.5387915 
H     3.6650230   -0.7783181    1.4175643 
H     1.5289171   -4.1025539    0.4298887 
H     1.7356747   -3.7335605    2.1453589 
H     2.9687516   -2.4892112    0.1025538 
H     4.0582776    1.3107145    2.0986072 
H     3.3302581    1.4949964    0.4739540 
H     3.9324950    2.9229521    1.3592101 
H     2.6160454    1.9088203    4.2514056 
H     1.2689537    3.0647305    4.0058684 
H     2.9272186    3.5244766    3.5777009 
H    -1.7517913   -0.7564339    2.8541568 
H    -0.5584975   -0.9383995    4.1740774 
H    -1.9724963    0.1123826    4.3848201 
H    -1.8919590    1.6543261    1.6071595 
H    -0.8703601    2.9747528    2.2333501 
H    -2.1904767    2.3228705    3.2411729 
H    -3.3630615   -3.5805836    0.5806908 
H    -2.7320325   -2.9155466    2.1112288 
H    -4.2613858   -2.3077847    1.4400931 
H    -3.4776795   -1.8272676   -1.5797155 
H    -2.8187706   -0.1933104   -1.2994819 
H    -4.3262053   -0.7023096   -0.4886477 
H    -1.2200218   -4.8976797   -0.6903952 
H    -2.6547208   -4.0316240   -1.3160008 
H    -1.5182301   -4.8043631   -2.4419909 
H     1.1398133   -4.0641021   -1.5268211 
H     1.3245987   -2.3762672   -2.0840215 
H     0.6185397   -3.6159246   -3.1636518 
