85
Energy =
C    -0.0707813    0.4683949   -2.6831883 
C    -0.2489131    1.7044444   -2.0146113 
C     0.7825693    2.2931634   -1.2401702 
H    -1.2410657    2.1718094   -2.0199580 
Pd    0.1717352    0.2436392   -0.4085012 
P     0.8570873    0.7423549    1.8093947 
P    -0.5597617   -2.0137199   -0.3569399 
H     0.9636463    0.1647664   -2.9019753 
H     1.8150855    1.9945371   -1.4741856 
C    -2.9858047   -1.4310940   -5.2236312 
C    -3.4027676   -0.4708795   -4.2859717 
C    -2.4697021    0.1585330   -3.4558703 
C    -1.0936054   -0.1598320   -3.5403754 
C    -0.6881726   -1.1122467   -4.5052265 
C    -1.6229534   -1.7438811   -5.3351162 
H    -3.7191192   -1.9231026   -5.8704691 
H    -4.4633994   -0.2122782   -4.2021933 
H    -2.8204923    0.8935264   -2.7248048 
H     0.3775241   -1.3468890   -4.6116473 
H    -1.2853600   -2.4757736   -6.0760121 
C     0.4987860    6.0812582    0.7935795 
C    -0.6740861    5.4026599    0.4208262 
C    -0.5994406    4.1763479   -0.2469519 
C     0.6525415    3.5939729   -0.5563590 
C     1.8231679    4.3041829   -0.1991919 
C     1.7484439    5.5309526    0.4724301 
H     0.4367685    7.0392729    1.3194727 
H    -1.6533148    5.8331849    0.6543632 
H    -1.5270664    3.6606348   -0.5135772 
H     2.8030789    3.8923705   -0.4675654 
H     2.6680561    6.0625818    0.7374717 
N     2.0092345   -2.4479260    1.8027622 
C     0.8753281   -0.5507096    3.1445722 
C    -0.4292050   -3.0449959    1.1839854 
C     2.5940938    1.4623336    1.7506547 
C    -0.2520486    2.0948174    2.5181149 
C    -2.4004707   -2.0638194   -0.7746480 
C     0.3070536   -2.9852635   -1.7140115 
C     1.9536971   -1.6586761    3.0176916 
C     1.0020546   -3.4718587    1.6036726 
C     3.5267735    0.6196611    0.8558049 
C     3.2468335    1.7922246    3.1042373 
C    -0.1834421    2.3130513    4.0405532 
C    -1.7079004    1.8593985    2.0766514 
C    -3.1169342   -0.8576040   -0.1406775 
C    -3.1455397   -3.3674412   -0.4341066 
C    -0.0066259   -4.4898114   -1.7871174 
C     1.8258894   -2.7154325   -1.7240625 
H    -0.1432433   -0.9745591    3.1896642 
H     1.0392553   -0.0195849    4.0993594 
H    -1.0230597   -3.9598395    1.0081640 
H    -0.9416901   -2.4844142    1.9854304 
H     2.4021591    2.4160584    1.2265676 
H     0.1223716    3.0023855    2.0097461 
H    -2.3995072   -1.9283137   -1.8721055 
H    -0.1204132   -2.5074940   -2.6139875 
H     1.8136789   -2.3576854    3.8630797 
H     2.9443477   -1.1960083    3.1746183 
H     1.3813708   -4.1888690    0.8538357 
H     0.9168180   -4.0434107    2.5464369 
H     2.1758544   -1.8830911    0.9665016 
H     3.8484463   -0.3145448    1.3467151 
H     3.0420848    0.3531351   -0.1014547 
H     4.4398522    1.1969887    0.6256153 
H     3.3797678    0.8972211    3.7358855 
H     2.6697070    2.5369746    3.6737531 
H     4.2499991    2.2199797    2.9270616 
H    -0.6372322    1.4709676    4.5913477 
H     0.8419184    2.4578909    4.4142179 
H    -0.7601592    3.2198964    4.2955622 
H    -2.1242884    0.9444454    2.5353126 
H    -1.7871529    1.7563694    0.9815150 
H    -2.3379958    2.7099879    2.3911153 
H    -3.1169267   -0.9230795    0.9620928 
H    -2.6349740    0.0939991   -0.4226368 
H    -4.1687884   -0.8265206   -0.4756837 
H    -3.2556153   -3.4972534    0.6565636 
H    -2.6585901   -4.2667467   -0.8418125 
H    -4.1625340   -3.3185016   -0.8624129 
H     0.3049769   -5.0293618   -0.8763765 
H    -1.0770230   -4.6837220   -1.9567935 
H     0.5454467   -4.9328253   -2.6354370 
H     2.3517215   -3.2404221   -0.9085910 
H     2.0486553   -1.6363279   -1.6354706 
H     2.2592858   -3.0745637   -2.6745211 
