85
Energy =
C     0.0629922    0.5138043   -2.7119264 
C    -0.3176777    1.6555558   -1.9840488 
C     0.5769484    2.2928945   -1.0714781 
H    -1.3447666    2.0297537   -2.0731604 
Pd    0.0949592    0.2295456   -0.3262481 
P     1.0268741    0.6857022    1.8107806 
P    -0.7336383   -1.9854432   -0.1589092 
H     1.1351479    0.2667955   -2.7199472 
H     1.6507611    2.1750086   -1.2751441 
C    -2.1151948   -1.4147675   -5.8782272 
C    -2.7278977   -0.3837429   -5.1452707 
C    -2.0393855    0.2516104   -4.1084754 
C    -0.7183865   -0.1327182   -3.7741095 
C    -0.1059229   -1.1520990   -4.5431852 
C    -0.7971617   -1.7912859   -5.5782773 
H    -2.6585958   -1.9096458   -6.6894827 
H    -3.7482927   -0.0710749   -5.3891640 
H    -2.5358313    1.0562499   -3.5576520 
H     0.9285526   -1.4370782   -4.3251406 
H    -0.3033647   -2.5767857   -6.1593910 
C    -0.4010447    5.8476465    1.1618930 
C    -1.4263395    4.9860472    0.7364290 
C    -1.1229100    3.8374974   -0.0014376 
C     0.2156646    3.5188345   -0.3306080 
C     1.2327861    4.4131413    0.0779665 
C     0.9294480    5.5612914    0.8208312 
H    -0.6404029    6.7426347    1.7448906 
H    -2.4685054    5.2092274    0.9873660 
H    -1.9343071    3.1667345   -0.3024566 
H     2.2724832    4.2107910   -0.2044561 
H     1.7332328    6.2388355    1.1267342 
N     2.1174318   -2.5593343    1.5520789 
C     1.2701969   -0.6474825    3.0840351 
C    -0.4030565   -3.0373094    1.3429314 
C     2.7365462    1.4197249    1.5107830 
C     0.0092318    1.9779779    2.7317510 
C    -2.6169096   -2.0303384   -0.1826033 
C    -0.2228706   -3.0405679   -1.6258246 
C     2.2927794   -1.7685800    2.7546397 
C     1.0490557   -3.5421235    1.5310888 
C     3.5221238    0.5959378    0.4675596 
C     3.5915272    1.7043017    2.7582415 
C     0.3537494    2.2040565    4.2150162 
C    -1.4857555    1.6495885    2.5721351 
C    -3.1788490   -1.3935888   -1.4600870 
C    -3.2150371   -1.3649709    1.0689626 
C    -0.7553064   -4.4833765   -1.5985409 
C     1.2973381   -2.9862931   -1.8744093 
H     0.2706046   -1.0604510    3.3053081 
H     1.6075808   -0.1370161    4.0044944 
H    -1.0852194   -3.9063093    1.2767873 
H    -0.7297777   -2.4465914    2.2147013 
H     2.4735276    2.3887482    1.0501388 
H     0.2246549    2.9050292    2.1707701 
H    -2.8730781   -3.1073123   -0.1676068 
H    -0.7069441   -2.5081262   -2.4652031 
H     2.2991409   -2.4661973    3.6127936 
H     3.3019285   -1.3206239    2.7283959 
H     1.2699929   -4.2840206    0.7432934 
H     1.0911815   -4.0996287    2.4851189 
H     2.1659996   -2.0016364    0.6954179 
H     3.9190105   -0.3413213    0.8924568 
H     2.8954019    0.3340190   -0.4049998 
H     4.3854006    1.1816393    0.1049015 
H     3.8162475    0.7874636    3.3297793 
H     3.1142907    2.4280746    3.4363795 
H     4.5576404    2.1371840    2.4421943 
H     0.0808100    1.3323107    4.8346584 
H     1.4174492    2.4302290    4.3849695 
H    -0.2307509    3.0646580    4.5859088 
H    -1.7524768    0.7194529    3.1055219 
H    -1.7583010    1.5284993    1.5102297 
H    -2.0965507    2.4674226    2.9926515 
H    -2.9096116   -0.3238619   -1.5061593 
H    -2.8106911   -1.8770924   -2.3790132 
H    -4.2808112   -1.4664757   -1.4616684 
H    -2.9702687   -0.2904855    1.0947856 
H    -2.8641257   -1.8231510    2.0084239 
H    -4.3148169   -1.4613400    1.0449791 
H    -0.2997254   -5.0774477   -0.7873488 
H    -1.8516333   -4.5245123   -1.4837468 
H    -0.5061667   -4.9830726   -2.5517895 
H     1.5265515   -3.4208454   -2.8633984 
H     1.8679038   -3.5621918   -1.1274702 
H     1.6732120   -1.9476018   -1.8631081 
