85
Energy =
C     0.0871986    0.3173926   -2.7566575 
C     0.0197018    1.5680692   -2.1058333 
C     1.1055924    2.0658000   -1.3390695 
H    -0.9105650    2.1477366   -2.1446184 
Pd    0.2661952    0.1586226   -0.4218671 
P     0.8429175    0.5757716    1.8575775 
P    -0.6632629   -2.0188328   -0.1765709 
H     1.0893380   -0.1123076   -2.8983982 
H     2.1035667    1.6689987   -1.5773803 
C    -2.8161028   -1.2041258   -5.5506976 
C    -3.1454188   -0.1085896   -4.7346091 
C    -2.2193601    0.3911314   -3.8147191 
C    -0.9365376   -0.1920098   -3.6855231 
C    -0.6112184   -1.2745453   -4.5371576 
C    -1.5409588   -1.7808686   -5.4533251 
H    -3.5449611   -1.5946080   -6.2680667 
H    -4.1324302    0.3579352   -4.8169882 
H    -2.5035558    1.2410920   -3.1863548 
H     0.3913969   -1.7122976   -4.4856795 
H    -1.2651843   -2.6191353   -6.1013743 
C     1.1506012    6.0025336    0.4055076 
C    -0.0631193    5.3018231    0.2987862 
C    -0.0916276    4.0252364   -0.2711826 
C     1.0952114    3.4155552   -0.7422704 
C     2.3045873    4.1401396   -0.6450871 
C     2.3322455    5.4199052   -0.0763586 
H     1.1718874    7.0001475    0.8556922 
H    -0.9904660    5.7532036    0.6666205 
H    -1.0402997    3.4815813   -0.3255771 
H     3.2299832    3.6920058   -1.0223752 
H     3.2793138    5.9656113   -0.0120219 
N     2.2042701   -2.3309704    0.8918132 
C     1.7981110   -0.7409925    2.7765754 
C    -0.1672972   -3.0183296    1.3165792 
C     1.8737388    2.1168329    2.1594372 
C    -0.7485233    0.7040845    2.8505390 
C    -2.5447697   -2.1322980   -0.0675196 
C    -0.2894799   -3.1299042   -1.6522067 
C     2.8181249   -1.5560987    1.9669264 
C     1.3192860   -3.4242207    1.3117032 
C     3.2892197    1.9061821    1.5901743 
C     1.9337295    2.6289950    3.6083490 
C    -1.6022879    1.8735333    2.3303755 
C    -0.6572311    0.6793786    4.3878143 
C    -3.2119860   -1.5169261   -1.3050695 
C    -3.1150696   -1.5048111    1.2148590 
C    -0.8409986   -4.5617888   -1.5328805 
C     1.1922776   -3.1361399   -2.0721808 
H     1.0626273   -1.4204895    3.2401193 
H     2.3154587   -0.2423472    3.6157727 
H    -0.8083890   -3.9173928    1.3670107 
H    -0.4140341   -2.4081496    2.2019220 
H     1.3690885    2.8839315    1.5493891 
H    -1.2446974   -0.2326008    2.5393591 
H    -2.7555035   -3.2182224   -0.0409367 
H    -0.8484513   -2.6118653   -2.4524559 
H     3.3639957   -2.2043150    2.6915992 
H     3.5647421   -0.8871138    1.5097848 
H     1.4502044   -4.2634763    0.6093714 
H     1.5926104   -3.8183562    2.3153557 
H     2.9342750   -2.6854129    0.2719698 
H     3.8921916    1.2510569    2.2438658 
H     3.2711717    1.4660795    0.5778397 
H     3.8075083    2.8780336    1.5276419 
H     2.2886549    1.8611420    4.3189301 
H     0.9582471    3.0016786    3.9558929 
H     2.6440703    3.4737712    3.6566209 
H    -1.1328939    2.8495342    2.5451190 
H    -1.7500562    1.7993404    1.2383992 
H    -2.5946755    1.8622868    2.8146624 
H    -0.2996069    1.6331672    4.8030153 
H    -0.0036202   -0.1248369    4.7641977 
H    -1.6678942    0.5003619    4.7970577 
H    -2.9926671   -0.4371446   -1.3612623 
H    -2.8820485   -1.9780903   -2.2500195 
H    -4.3077143   -1.6382637   -1.2394510 
H    -2.9516149   -0.4137149    1.2270798 
H    -2.6877129   -1.9399425    2.1341200 
H    -4.2056204   -1.6759030    1.2494973 
H    -0.3407651   -5.1322710   -0.7301409 
H    -1.9276916   -4.5867910   -1.3490445 
H    -0.6578905   -5.1010025   -2.4796134 
H     1.7942896   -3.8092622   -1.4396065 
H     1.6420034   -2.1310863   -2.0254842 
H     1.2766257   -3.5118314   -3.1072877 
