85
Energy =
C    -0.4133086    0.3941109   -2.5525101 
C    -0.6140685    1.6038407   -1.8484317 
C     0.4450348    2.2773478   -1.1952331 
H    -1.6318765    2.0002500   -1.7546761 
Pd    0.1008352    0.1761293   -0.3073184 
P     1.1313165    0.6699991    1.7808213 
P    -0.1927008   -2.1873458   -0.2591532 
H     0.6151623    0.1681728   -2.8686460 
H     1.4652067    2.0396058   -1.5289219 
C    -3.3898391   -1.4536006   -5.0543067 
C    -3.7900222   -0.5715373   -4.0359827 
C    -2.8382121    0.0212568   -3.2006278 
C    -1.4590547   -0.2488525   -3.3685929 
C    -1.0717377   -1.1256916   -4.4088313 
C    -2.0262441   -1.7265406   -5.2389721 
H    -4.1379152   -1.9198659   -5.7032034 
H    -4.8522732   -0.3509522   -3.8893393 
H    -3.1744178    0.6915469   -2.4030838 
H    -0.0063557   -1.3225763   -4.5757853 
H    -1.7042402   -2.4017884   -6.0382652 
C     0.0934560    6.2323195    0.4691278 
C    -1.0571708    5.4409549    0.3115153 
C    -0.9582101    4.1463227   -0.2074065 
C     0.2960856    3.6129476   -0.5884371 
C     1.4423868    4.4276889   -0.4375566 
C     1.3437002    5.7211499    0.0903009 
H     0.0131821    7.2437677    0.8797585 
H    -2.0363876    5.8350221    0.6019272 
H    -1.8654475    3.5413997   -0.3049901 
H     2.4189245    4.0446007   -0.7557165 
H     2.2436762    6.3353182    0.1970324 
N    -0.5735900   -1.8807456    3.0144470 
C     1.6519855   -0.6936483    2.9475768 
C     0.4664026   -3.2233597    1.1493165 
C     2.7797442    1.5214861    1.4513305 
C     0.1344124    1.7823188    2.9452552 
C    -1.9885487   -2.7846458   -0.3352106 
C     0.7216483   -2.9385765   -1.7253493 
C     0.5424321   -1.3399174    3.7905593 
C    -0.3458159   -3.2118729    2.4525695 
C     3.5609692    0.7690175    0.3568684 
C     3.6682636    1.7566695    2.6879657 
C    -1.3652519    1.5567156    2.6711119 
C     0.5000476    3.2751816    2.9324606 
C    -2.5007498   -3.2090584   -1.7207752 
C    -2.8877841   -1.7090706    0.3047760 
C     0.7861393   -4.4776869   -1.7548568 
C     2.1339458   -2.3332047   -1.8410107 
H     2.3790766   -0.2426331    3.6451417 
H     2.2092946   -1.4410671    2.3596006 
H     1.5161161   -2.9317884    1.3171715 
H     0.4885692   -4.2638522    0.7812838 
H     2.4631615    2.5012566    1.0498241 
H     0.3709365    1.3919914    3.9530914 
H    -1.9989410   -3.6825477    0.3112172 
H     0.1168869   -2.5921593   -2.5831285 
H     0.1317962   -0.5823097    4.4792961 
H     1.0182156   -2.1177705    4.4319829 
H     0.1708643   -3.8854312    3.1752451 
H    -1.3333137   -3.6650488    2.2611816 
H    -1.3995393   -1.9193535    3.6162740 
H     3.8653190   -0.2369924    0.6979805 
H     2.9647304    0.6439132   -0.5629721 
H     4.4809303    1.3237637    0.0996597 
H     4.1601761    0.8238336    3.0138430 
H     3.1149458    2.1712842    3.5467480 
H     4.4684954    2.4731463    2.4304903 
H    -1.6380987    1.9556336    1.6779440 
H    -1.6210417    0.4842164    2.6844272 
H    -1.9734017    2.0797695    3.4305243 
H     0.3309403    3.7332150    1.9496044 
H     1.5448002    3.4598273    3.2257664 
H    -0.1449763    3.8003915    3.6593427 
H    -2.4833594   -2.3794853   -2.4391319 
H    -1.9295199   -4.0481160   -2.1466111 
H    -3.5498432   -3.5403185   -1.6209644 
H    -2.9139221   -0.8041531   -0.3281480 
H    -2.5170370   -1.4126781    1.3001942 
H    -3.9204609   -2.0878400    0.4058651 
H     1.5260462   -4.8640063   -1.0325252 
H    -0.1840884   -4.9562195   -1.5419186 
H     1.1076176   -4.8093910   -2.7581188 
H     2.6311919   -2.7049567   -2.7546087 
H     2.7664640   -2.6175139   -0.9806575 
H     2.1072334   -1.2312133   -1.8864455 
