85
Energy =
C     0.2123808    0.4663771   -2.6143409 
C    -0.2761552    1.6003797   -1.9436409 
C     0.5246524    2.3008078   -0.9873671 
H    -1.3088803    1.9274944   -2.1167817 
Pd    0.0894895    0.2437722   -0.2310866 
P     1.0943359    0.6192270    1.8917120 
P    -0.8064456   -1.9471668   -0.0810004 
H     1.2933294    0.2747397   -2.5389465 
H     1.6122714    2.2629979   -1.1354051 
C    -1.6172712   -1.6518679   -5.8760626 
C    -0.2676942   -1.8559285   -5.5508385 
C     0.3070722   -1.1578215   -4.4834085 
C    -0.4539138   -0.2473462   -3.7104120 
C    -1.8051404   -0.0303233   -4.0732865 
C    -2.3790338   -0.7283708   -5.1391412 
H    -2.0715211   -2.1967706   -6.7098104 
H     0.3398001   -2.5544351   -6.1352711 
H     1.3640612   -1.3090637   -4.2419220 
H    -2.4147719    0.6893155   -3.5196645 
H    -3.4263101   -0.5489341   -5.4028607 
C    -0.8965868    5.9373079    0.8300063 
C    -1.8004043    4.8995161    0.5442832 
C    -1.3451633    3.7068518   -0.0277543 
C     0.0245925    3.5287814   -0.3356029 
C     0.9210606    4.5804786   -0.0425039 
C     0.4653131    5.7723022    0.5360628 
H    -1.2536448    6.8685318    1.2810753 
H    -2.8631585    5.0189510    0.7791020 
H    -2.0540313    2.8921733   -0.2150812 
H     1.9835294    4.4655996   -0.2868068 
H     1.1746141    6.5779420    0.7518958 
N     1.9895597   -2.5846318    1.2209568 
C     1.5478665   -0.8378355    2.9739916 
C    -0.4732982   -3.0315691    1.3969205 
C     2.7272796    1.5171913    1.6171135 
C     0.1927560    1.6175616    3.2280464 
C    -2.6916889   -1.8858287   -0.0222569 
C    -0.4546778   -3.0224780   -1.5828122 
C     2.4932501   -1.9077502    2.4134305 
C     0.9555536   -3.5952451    1.4683166 
C     3.5550447    0.8983807    0.4722020 
C     3.5751674    1.6885665    2.8906877 
C    -1.2823636    1.1867286    3.2779036 
C     0.3156982    3.1450964    3.1339079 
C    -3.2747360   -1.2413133   -1.2873668 
C    -3.1920314   -1.1533461    1.2336074 
C    -1.1385409   -4.4005023   -1.5590330 
C     1.0473774   -3.1343780   -1.9025808 
H     0.5972273   -1.2874471    3.3086832 
H     2.0103370   -0.4065598    3.8802509 
H    -1.2015651   -3.8633224    1.3820145 
H    -0.7102459   -2.4251996    2.2868919 
H     2.3780697    2.5138277    1.2861356 
H     0.6848512    1.2913726    4.1643029 
H    -3.0175431   -2.9423065    0.0308766 
H    -0.9103841   -2.4226903   -2.3923383 
H     2.7011614   -2.6256776    3.2413876 
H     3.4586958   -1.4423582    2.1567055 
H     1.0599778   -4.3855848    0.7074371 
H     1.0919823   -4.0938796    2.4543075 
H     2.7727053   -3.0104040    0.7219174 
H     4.0567669   -0.0308589    0.7891109 
H     2.9308942    0.6521851   -0.4040873 
H     4.3404021    1.6063567    0.1536337 
H     4.0046427    0.7274777    3.2232691 
H     3.0039821    2.1184192    3.7303803 
H     4.4205889    2.3681872    2.6815548 
H    -1.8085854    1.5171752    2.3658594 
H    -1.4004262    0.0934325    3.3665986 
H    -1.7807762    1.6496081    4.1477913 
H    -0.2062145    3.5399002    2.2520827 
H     1.3598014    3.4946017    3.1056131 
H    -0.1564440    3.5899991    4.0279705 
H    -2.9308399   -0.1952587   -1.3763297 
H    -2.9933029   -1.7745890   -2.2094869 
H    -4.3775774   -1.2305611   -1.2288359 
H    -2.8750098   -0.0970088    1.2181727 
H    -2.8298139   -1.6104749    2.1693273 
H    -4.2958673   -1.1768851    1.2606238 
H    -0.7431841   -5.0442780   -0.7533226 
H    -2.2321898   -4.3281088   -1.4372251 
H    -0.9485550   -4.9189677   -2.5158708 
H     1.5542912   -3.8592633   -1.2452101 
H     1.5608232   -2.1640265   -1.7988371 
H     1.1727317   -3.4909975   -2.9395312 
