85
Energy =
C     0.9325099    0.3115608   -2.6598395 
C     0.3154059    1.5048783   -2.2349323 
C     0.9134006    2.2785548   -1.1879787 
H    -0.6666664    1.7873597   -2.6328234 
Pd    0.3492209    0.2580906   -0.4290763 
P     0.9399872    0.5801062    1.8395814 
P    -0.8239292   -1.7996241   -0.2128809 
H     1.9761111    0.1591676   -2.3447920 
H     2.0098962    2.2835029   -1.1403987 
C    -0.2617995   -2.3822479   -5.7862690 
C     0.8977841   -2.6233608   -5.0318368 
C     1.2767996   -1.7243318   -4.0295135 
C     0.4998804   -0.5736837   -3.7475986 
C    -0.6511262   -0.3326916   -4.5335771 
C    -1.0259155   -1.2291471   -5.5399125 
H    -0.5605842   -3.0809376   -6.5742504 
H     1.5096066   -3.5088367   -5.2321352 
H     2.1864494   -1.9087507   -3.4463233 
H    -1.2575052    0.5613013   -4.3602329 
H    -1.9181255   -1.0261326   -6.1411167 
C    -0.9673388    5.7748475    0.4902633 
C    -1.7568953    4.7547703   -0.0666994 
C    -1.1560601    3.6144097   -0.6099370 
C     0.2526271    3.4719008   -0.6223059 
C     1.0330228    4.5131607   -0.0694836 
C     0.4299799    5.6490425    0.4863444 
H    -1.4394959    6.6638898    0.9203084 
H    -2.8481647    4.8452741   -0.0663020 
H    -1.7873460    2.8107742   -1.0055825 
H     2.1263231    4.4352595   -0.0940708 
H     1.0537992    6.4446082    0.9069660 
N     2.3733247   -1.8263126    0.2642530 
C     1.6398010   -0.9949766    2.5508149 
C     0.2725109   -3.1896013    0.3703836 
C     2.2956008    1.8699112    2.0231952 
C    -0.4257719    1.0419603    3.0534819 
C    -2.1391282   -1.7131229    1.1296837 
C    -1.5891577   -2.4256067   -1.8137447 
C     2.7051143   -1.7121647    1.6919922 
C     1.7148871   -3.0702793   -0.1499063 
C     3.5115893    1.5471868    1.1285624 
C     2.7487327    2.1734418    3.4620350 
C    -0.8197406    2.5184112    2.8663392 
C    -0.2086277    0.6627495    4.5304294 
C    -2.9693991   -2.9907027    1.3411772 
C    -3.0297126   -0.4612287    0.9975733 
C    -2.7524972   -1.5104812   -2.2365879 
C    -1.9696702   -3.9143046   -1.8948323 
H     0.7672485   -1.6486009    2.7276394 
H     2.0676460   -0.7779543    3.5459212 
H    -0.1503177   -4.1614401    0.0659289 
H     0.2601172   -3.1822230    1.4739554 
H     1.7975300    2.7694091    1.6164356 
H    -1.2657765    0.4318992    2.6801833 
H    -1.4976623   -1.5722803    2.0239501 
H    -0.7628755   -2.2594443   -2.5275769 
H     2.8932157   -2.7106576    2.1447197 
H     3.6511984   -1.1562713    1.7722244 
H     1.7086899   -3.0915657   -1.2542797 
H     2.2770209   -3.9691860    0.1907580 
H     3.2188939   -1.6936152   -0.2933067 
H     4.2071531    0.8587189    1.6384001 
H     3.2179744    1.0868247    0.1697024 
H     4.0725143    2.4729188    0.9105233 
H     3.1498559    1.2763948    3.9667223 
H     1.9383914    2.5880629    4.0808966 
H     3.5596848    2.9236524    3.4352827 
H    -0.0522714    3.2048902    3.2622083 
H    -0.9805188    2.7661142    1.8044587 
H    -1.7590666    2.7221777    3.4096338 
H     0.6500259    1.1836046    4.9824175 
H    -0.0652780   -0.4219394    4.6679164 
H    -1.1080694    0.9489063    5.1050388 
H    -3.6798615   -3.1470763    0.5123480 
H    -2.3411664   -3.8926145    1.4349138 
H    -3.5621791   -2.8967587    2.2688706 
H    -3.7927270   -0.5882597    0.2136371 
H    -2.4357517    0.4374351    0.7503230 
H    -3.5609669   -0.2781175    1.9485337 
H    -3.6603848   -1.7102479   -1.6422759 
H    -2.4918298   -0.4425683   -2.1261668 
H    -2.9977498   -1.6910800   -3.2966304 
H    -2.7755927   -4.1862631   -1.1948383 
H    -1.1095054   -4.5793274   -1.7095386 
H    -2.3273163   -4.1311119   -2.9173742 
