85
Energy =
C     0.1965053    0.3697072   -2.7625362 
C     0.0285495    1.6072479   -2.0924093 
C     1.0703984    2.1319749   -1.2881456 
H    -0.9346668    2.1299830   -2.1475258 
Pd    0.2849093    0.1459322   -0.4688283 
P     0.6319823    0.6899360    1.8142497 
P    -0.4771469   -2.1108672   -0.2825089 
H     1.2321116    0.0509334   -2.9509213 
H     2.0816146    1.7521947   -1.4966253 
C    -2.6724693   -1.3250421   -5.4865707 
C    -3.1140413   -0.5165931   -4.4252670 
C    -2.1929751    0.0414453   -3.5328728 
C    -0.8069504   -0.1992905   -3.6794678 
C    -0.3767170   -1.0018410   -4.7617979 
C    -1.2994071   -1.5598514   -5.6550447 
H    -3.3957907   -1.7633493   -6.1815759 
H    -4.1838406   -0.3249984   -4.2914877 
H    -2.5534475    0.6506302   -2.6977776 
H     0.6945551   -1.1823252   -4.9019510 
H    -0.9456342   -2.1760765   -6.4880553 
C     1.0906874    5.9886188    0.6276678 
C    -0.1334671    5.3446322    0.3800119 
C    -0.1603717    4.0952080   -0.2484043 
C     1.0389749    3.4542405   -0.6352464 
C     2.2618526    4.1246707   -0.3976222 
C     2.2883204    5.3774177    0.2270596 
H     1.1083760    6.9657578    1.1208456 
H    -1.0730245    5.8218722    0.6774887 
H    -1.1232923    3.6086124   -0.4274046 
H     3.1999969    3.6525875   -0.7089832 
H     3.2460310    5.8793639    0.3989264 
N     2.4166779   -1.7661370    1.3555674 
C     0.8443307   -0.7169083    3.0147227 
C     0.4929575   -3.2726952    0.8134583 
C     2.1189613    1.8063002    2.1234232 
C    -0.7870470    1.7615421    2.4965099 
C    -2.2388608   -2.3423461    0.3442218 
C    -0.5004971   -3.0217549   -1.9318994 
C     2.1485846   -1.5045417    2.7750835 
C     2.0171772   -3.0803831    0.8581605 
C     3.4050892    1.3580261    1.4069992 
C     2.3783815    2.1289369    3.6053958 
C    -1.1683615    1.4989183    3.9648998 
C    -2.0412010    1.7311234    1.6013659 
C    -3.2032323   -1.5133418   -0.5210650 
C    -2.4166885   -2.0440552    1.8406751 
C    -1.2559280   -4.3616615   -1.9431014 
C     0.9290491   -3.1867421   -2.4778733 
H    -0.0437439   -1.3595703    2.9140876 
H     0.8357687   -0.3240376    4.0457053 
H     0.2641273   -4.3010267    0.4800263 
H     0.0810368   -3.1887933    1.8325918 
H     1.7823975    2.7362367    1.6318356 
H    -0.3521240    2.7760202    2.4166091 
H    -2.4523474   -3.4160441    0.1901769 
H    -1.0371168   -2.3211674   -2.5937642 
H     2.1143576   -2.4445675    3.3688041 
H     2.9889201   -0.9186281    3.1819702 
H     2.4466109   -3.1969035   -0.1493201 
H     2.4299124   -3.9069201    1.4826641 
H     3.4051618   -1.6140273    1.1502422 
H     3.9271350    0.5585763    1.9590910 
H     3.2047993    0.9940050    0.3859713 
H     4.1013250    2.2127325    1.3425777 
H     2.6759635    1.2354734    4.1822647 
H     1.5027490    2.5834810    4.0962505 
H     3.2071935    2.8560350    3.6771471 
H    -1.6040405    0.4925630    4.0936023 
H    -0.3149619    1.5940213    4.6552237 
H    -1.9331975    2.2314262    4.2794900 
H    -2.6495786    0.8311260    1.7867421 
H    -1.7824805    1.7420526    0.5286244 
H    -2.6756264    2.6085624    1.8185883 
H    -2.9835095   -0.4355650   -0.4255898 
H    -3.1373312   -1.7782651   -1.5892625 
H    -4.2445135   -1.6828109   -0.1944370 
H    -2.1075110   -1.0165180    2.0897104 
H    -1.8555788   -2.7448684    2.4815399 
H    -3.4832595   -2.1434929    2.1092923 
H    -0.8386154   -5.0884319   -1.2224796 
H    -2.3320498   -4.2431029   -1.7359496 
H    -1.1668057   -4.8121182   -2.9477295 
H     1.4695708   -3.9938710   -1.9528548 
H     1.5192961   -2.2579696   -2.3870997 
H     0.8870512   -3.4606234   -3.5461058 
