85
Energy =
C     0.4236446    0.3019923   -2.7820715 
C     0.2374230    1.5643824   -2.1762323 
C     1.2441903    2.1277661   -1.3455244 
H    -0.7171748    2.0913836   -2.2974676 
Pd    0.4202681    0.2046961   -0.4640326 
P     0.9046764    0.6204498    1.8376072 
P    -0.7238669   -1.8588915   -0.1491280 
H     1.4594229   -0.0628237   -2.8519572 
H     2.2787271    1.8056407   -1.5340077 
C    -2.2178171   -1.5240962   -5.6488273 
C    -2.7196117   -0.5551905   -4.7629378 
C    -1.8747271    0.0512974   -3.8288149 
C    -0.5076848   -0.3047849   -3.7483252 
C    -0.0130061   -1.2607111   -4.6659008 
C    -0.8579240   -1.8655910   -5.6041463 
H    -2.8819371   -1.9988671   -6.3781531 
H    -3.7759978   -0.2702081   -4.8038793 
H    -2.2848206    0.8047269   -3.1495374 
H     1.0495074   -1.5247685   -4.6420985 
H    -0.4527216   -2.6018255   -6.3059906 
C     0.8809635    6.0229444    0.4550474 
C    -0.2603259    5.2185231    0.2939629 
C    -0.1536405    3.9554537   -0.2968131 
C     1.0986041    3.4644587   -0.7364109 
C     2.2338054    4.2914677   -0.5833582 
C     2.1262566    5.5572798    0.0072850 
H     0.7970560    7.0096676    0.9216460 
H    -1.2364809    5.5776019    0.6365547 
H    -1.0448385    3.3258960   -0.3908678 
H     3.2086614    3.9351424   -0.9332541 
H     3.0176466    6.1839087    0.1154054 
N     2.2897819   -2.1502689    0.6777074 
C     1.9438770   -0.6888269    2.6735150 
C    -0.0499172   -2.9526274    1.1979890 
C     1.8594846    2.2002413    2.1907138 
C    -0.6783297    0.6221873    2.8549175 
C    -2.4981443   -1.5296604    0.4141237 
C    -0.8182850   -2.9467441   -1.6779157 
C     2.9426127   -1.4308207    1.7703350 
C     1.4535204   -3.2890396    1.0746573 
C     3.2887944    2.0652141    1.6328021 
C     1.8857926    2.6749965    3.6532160 
C    -1.6171616    1.7373760    2.3616757 
C    -0.5643737    0.5780152    4.3905155 
C    -3.2319658   -2.6648805    1.1513881 
C    -3.3179449   -0.9366902   -0.7442327 
C    -1.7012269   -4.2007254   -1.5597950 
C     0.5888882   -3.3095295   -2.1898982 
H     1.2543983   -1.4128512    3.1407501 
H     2.4877023   -0.2092054    3.5070528 
H    -0.6337413   -3.8894770    1.2295413 
H    -0.2636040   -2.4239154    2.1440074 
H     1.3275961    2.9599374    1.5942988 
H    -1.1133473   -0.3465285    2.5413664 
H    -2.3477639   -0.7130339    1.1431446 
H    -1.2760280   -2.2670942   -2.4195572 
H     3.5340401   -2.1116521    2.4255833 
H     3.6530054   -0.7171503    1.3226038 
H     1.5738651   -4.0824302    0.3218203 
H     1.7924214   -3.7280043    2.0388919 
H     2.9911653   -2.4495601   -0.0014761 
H     3.9124248    1.4183120    2.2753367 
H     3.3006890    1.6538127    0.6088349 
H     3.7650479    3.0598160    1.6029232 
H     2.2656082    1.9026288    4.3457021 
H     0.8932375    2.9991175    4.0011620 
H     2.5607339    3.5462128    3.7305203 
H    -1.2090312    2.7389613    2.5835658 
H    -1.7740305    1.6702936    1.2704269 
H    -2.5994870    1.6550384    2.8593852 
H    -0.2878449    1.5527797    4.8181047 
H     0.1654073   -0.1701661    4.7421778 
H    -1.5485739    0.3017152    4.8097785 
H    -3.4089081   -3.5431678    0.5116281 
H    -2.6880420   -2.9986582    2.0506115 
H    -4.2180827   -2.2937899    1.4845524 
H    -3.4960603   -1.6679018   -1.5513633 
H    -2.8011245   -0.0661176   -1.1807848 
H    -4.3018673   -0.6006116   -0.3723067 
H    -1.3687755   -4.8711388   -0.7473035 
H    -2.7612327   -3.9530029   -1.3954092 
H    -1.6406330   -4.7730010   -2.5030037 
H     1.0300881   -4.1332819   -1.6039521 
H     1.2780941   -2.4493088   -2.1524347 
H     0.5189721   -3.6527138   -3.2356656 
