85
Energy =
C     0.1955690    0.4729042   -2.6153429 
C    -0.2953472    1.6022540   -1.9387385 
C     0.5064015    2.3047744   -0.9846675 
H    -1.3306972    1.9243027   -2.1056517 
Pd    0.0862473    0.2445848   -0.2302408 
P     1.0997582    0.6222537    1.8879937 
P    -0.7940517   -1.9526172   -0.0803870 
H     1.2778245    0.2864569   -2.5461526 
H     1.5934619    2.2737072   -1.1383407 
C    -1.6425433   -1.6466697   -5.8713876 
C    -0.2900523   -1.8447286   -5.5546546 
C     0.2875637   -1.1462649   -4.4889889 
C    -0.4734028   -0.2414796   -3.7092924 
C    -1.8278521   -0.0304251   -4.0636217 
C    -2.4045446   -0.7287714   -5.1277491 
H    -2.0989929   -2.1918338   -6.7037621 
H     0.3174344   -2.5388137   -6.1443385 
H     1.3466969   -1.2927986   -4.2541039 
H    -2.4378253    0.6847253   -3.5045933 
H    -3.4542493   -0.5539576   -5.3848388 
C    -0.9279963    5.9300470    0.8448511 
C    -1.8264197    4.8861992    0.5642379 
C    -1.3666080    3.6971790   -0.0116970 
C     0.0023456    3.5287942   -0.3283910 
C     0.8934332    4.5863696   -0.0401248 
C     0.4331109    5.7746654    0.5421036 
H    -1.2886304    6.8585364    1.2987010 
H    -2.8884371    4.9980776    0.8060029 
H    -2.0709447    2.8777211   -0.1952225 
H     1.9551022    4.4789808   -0.2912234 
H     1.1381408    6.5851369    0.7537966 
N     2.0120918   -2.5747713    1.2083963 
C     1.5645115   -0.8341421    2.9662942 
C    -0.4468529   -3.0391290    1.3927713 
C     2.7271051    1.5284697    1.6078513 
C     0.1980107    1.6142151    3.2291489 
C    -2.6793771   -1.9044381   -0.0129824 
C    -0.4415710   -3.0212415   -1.5868006 
C     2.5145871   -1.8975412    2.4011857 
C     0.9860453   -3.5933059    1.4561979 
C     3.5524274    0.9161832    0.4576870 
C     3.5799895    1.7006160    2.8779978 
C    -1.2756721    1.1786775    3.2805778 
C     0.3164728    3.1423805    3.1394740 
C    -3.2722603   -1.2589226   -1.2729918 
C    -3.1791117   -1.1803180    1.2479944 
C    -1.1152145   -4.4042929   -1.5638079 
C     1.0597580   -3.1211524   -1.9138578 
H     0.6173338   -1.2897219    3.3027376 
H     2.0270447   -0.4019737    3.8721116 
H    -1.1694915   -3.8757948    1.3783936 
H    -0.6840589   -2.4372619    2.2857206 
H     2.3718579    2.5242695    1.2807847 
H     0.6927969    1.2866839    4.1635113 
H    -2.9978754   -2.9632941    0.0374198 
H    -0.9054955   -2.4225542   -2.3924550 
H     2.7285029   -2.6160645    3.2270783 
H     3.4767763   -1.4260833    2.1433182 
H     1.0927397   -4.3800395    0.6919134 
H     1.1298774   -4.0946527    2.4397641 
H     2.7966969   -2.9936950    0.7058636 
H     4.0581046   -0.0126884    0.7693202 
H     2.9257419    0.6712648   -0.4171238 
H     4.3344158    1.6277068    0.1387407 
H     4.0157358    0.7407797    3.2059541 
H     3.0104933    2.1252161    3.7214962 
H     4.4210391    2.3850351    2.6669052 
H    -1.8045750    1.5094561    2.3701906 
H    -1.3899565    0.0848137    3.3670089 
H    -1.7740240    1.6380019    4.1523901 
H    -0.2076760    3.5385031    2.2596045 
H     1.3595626    3.4948883    3.1110333 
H    -0.1557494    3.5831981    4.0355179 
H    -2.9357159   -0.2102603   -1.3593933 
H    -2.9913031   -1.7867849   -2.1983642 
H    -4.3748838   -1.2557919   -1.2096648 
H    -2.8690989   -0.1218736    1.2355526 
H    -2.8099722   -1.6389214    2.1803012 
H    -4.2826464   -1.2111801    1.2796035 
H    -0.7113212   -5.0475660   -0.7619343 
H    -2.2087661   -4.3402389   -1.4365680 
H    -0.9260698   -4.9185557   -2.5230808 
H     1.5751357   -3.8438157   -1.2606503 
H     1.5664442   -2.1472639   -1.8100640 
H     1.1829455   -3.4743378   -2.9522489 
