85
Energy =
C    -0.0236053    2.5586837   -0.9518589 
C    -0.2689766    1.7002022   -2.0684620 
C    -1.4691381    0.9683445   -2.1673672 
H     0.5388516    1.5258931   -2.7906213 
Pd   -0.2661065    0.4460297   -0.2538320 
P    -0.4974485   -1.9263826   -0.4026365 
P     0.3947036    0.7626859    2.0177952 
H    -0.8950061    3.0679101   -0.5168538 
H    -2.3015758    1.2855157   -1.5201569 
C     3.7532032    4.5579154   -0.4080281 
C     3.7235011    3.2199941   -0.8374928 
C     2.4992309    2.5703725   -1.0267109 
C     1.2769717    3.2433537   -0.7862950 
C     1.3225848    4.5902408   -0.3648200 
C     2.5496508    5.2410587   -0.1784556 
H     4.7114162    5.0648714   -0.2557074 
H     4.6589011    2.6801207   -1.0178630 
H     2.4869414    1.5166808   -1.3312873 
H     0.3866764    5.1301883   -0.1861342 
H     2.5657060    6.2868082    0.1456030 
C    -2.6251048   -1.7548293   -5.2829925 
C    -3.4558108   -1.5422229   -4.1707780 
C    -3.0768508   -0.6309696   -3.1792737 
C    -1.8520566    0.0734911   -3.2681520 
C    -1.0451427   -0.1225910   -4.4137271 
C    -1.4273250   -1.0307432   -5.4064225 
H    -2.9189640   -2.4667024   -6.0609446 
H    -4.4031827   -2.0835295   -4.0812265 
H    -3.7286649   -0.4650413   -2.3145022 
H    -0.1125750    0.4365242   -4.5329138 
H    -0.7910822   -1.1713322   -6.2861695 
N     2.6151506   -1.3387985    0.4775139 
C     0.5669825   -2.9108390    0.7620551 
C     1.6761393   -0.4101237    2.6744416 
C    -2.2526217   -2.6146681   -0.1986685 
C    -0.0065491   -2.5237250   -2.1236440 
C     1.1017898    2.4611050    2.4386228 
C    -1.0926156    0.3860364    3.1100221 
C     2.0976284   -2.6979442    0.5688896 
C     2.8791108   -0.6353185    1.7216675 
C    -3.1648525   -1.6170176    0.5330261 
C    -2.3438083   -4.0082713    0.4497092 
C     0.0767962   -4.0525625   -2.2722445 
C     1.2560670   -1.8227379   -2.6577780 
C     2.0327771    2.5306444    3.6635923 
C    -0.0009851    3.5310180    2.5198291 
C    -2.3669004    1.1345449    2.6728459 
C    -0.8430308    0.5170568    4.6229912 
H     0.3428565   -3.9822496    0.6181104 
H     0.2338804   -2.6537663    1.7823647 
H     1.1733406   -1.3676478    2.8872155 
H     2.0291312   -0.0255320    3.6461178 
H    -2.5951120   -2.6865737   -1.2486571 
H    -0.8589931   -2.1719721   -2.7314341 
H     1.7145772    2.6782250    1.5454862 
H    -1.2370254   -0.6880880    2.8736646 
H     2.3941094   -3.2468561   -0.3435297 
H     2.6209026   -3.2021118    1.4019635 
H     3.6449122   -1.2056716    2.2804655 
H     3.3402086    0.3371352    1.4677744 
H     2.0681065   -0.7599800   -0.1711272 
H    -2.8847109   -1.5254640    1.5962434 
H    -3.1182286   -0.6116622    0.0823309 
H    -4.2124172   -1.9651129    0.4946587 
H    -2.0323786   -3.9803905    1.5084115 
H    -1.7343530   -4.7655926   -0.0685847 
H    -3.3934456   -4.3514811    0.4235151 
H     0.8897201   -4.4879365   -1.6656376 
H    -0.8677354   -4.5514328   -2.0003646 
H     0.2858899   -4.3010749   -3.3280466 
H     2.1775412   -2.1735270   -2.1647862 
H     1.1951255   -0.7285014   -2.5250138 
H     1.3569904   -2.0249262   -3.7382251 
H     1.5299132    2.2293341    4.5980346 
H     2.9395292    1.9166151    3.5393618 
H     2.3671919    3.5760930    3.7886759 
H    -0.5632577    3.4586004    3.4663172 
H    -0.7194594    3.4593056    1.6870959 
H     0.4606782    4.5322759    2.4807970 
H    -2.3677683    2.1765224    3.0284851 
H    -2.4751406    1.1467715    1.5741805 
H    -3.2559745    0.6379125    3.0995138 
H    -0.7053252    1.5707493    4.9181029 
H     0.0369195   -0.0559540    4.9590318 
H    -1.7209994    0.1330255    5.1729038 
