85
Energy =
C     0.1589639    2.5375146   -1.0267818 
C    -0.0632805    1.6265252   -2.1079777 
C    -1.3063078    0.9834784   -2.2527135 
H     0.7685697    1.3743199   -2.7780062 
Pd   -0.1992701    0.4885492   -0.2169093 
P    -0.4380338   -1.8857742   -0.1485512 
P     0.3835079    0.9272705    2.0527223 
H    -0.7168517    3.1067164   -0.6854083 
H    -2.1352959    1.3678912   -1.6384631 
C     3.9451246    4.4909686   -0.3807829 
C     3.9114279    3.1388348   -0.7616484 
C     2.6864828    2.5014847   -0.9871444 
C     1.4663148    3.2005248   -0.8290234 
C     1.5167545    4.5635000   -0.4600909 
C     2.7439607    5.2020555   -0.2386084 
H     4.9037994    4.9877932   -0.2004776 
H     4.8438042    2.5764718   -0.8773037 
H     2.6787038    1.4400016   -1.2604764 
H     0.5832525    5.1252534   -0.3488778 
H     2.7624724    6.2596521    0.0443315 
C    -2.6099559   -1.5829449   -5.4398435 
C    -3.4782477   -1.2447205   -4.3894280 
C    -3.0401138   -0.3976906   -3.3667893 
C    -1.7200762    0.1168323   -3.3606152 
C    -0.8694112   -0.2063011   -4.4450985 
C    -1.3103142   -1.0493951   -5.4694341 
H    -2.9502731   -2.2437531   -6.2435476 
H    -4.5007838   -1.6353660   -4.3738018 
H    -3.7237177   -0.1273486   -2.5553220 
H     0.1425604    0.2062013   -4.4924598 
H    -0.6398860   -1.2874847   -6.3015592 
N     2.7216853   -0.9269323    0.4351744 
C     0.9120509   -2.7624557    0.7903651 
C     1.7653964   -0.1395098    2.6836094 
C    -2.0143055   -2.4589257    0.7052413 
C    -0.4032509   -2.6253214   -1.8754326 
C     0.9829640    2.6757310    2.4262690 
C    -1.0472014    0.6992658    3.2731597 
C     2.3823600   -2.3426443    0.4804325 
C     2.9589642   -0.2395816    1.6951630 
C    -2.0768073   -3.9200963    1.1845138 
C    -3.2370489   -2.0497470   -0.1333224 
C    -0.6529433   -4.1399289   -1.9704260 
C     0.8977815   -2.2285121   -2.5998510 
C     1.7205373    2.8248751    3.7692267 
C    -0.1714235    3.6882599    2.3219763 
C    -1.0347032   -0.6449308    4.0209662 
C    -2.3958712    0.9664817    2.5772107 
H     0.8046242   -3.8458314    0.5983037 
H     0.6683959   -2.6120753    1.8564564 
H     1.3572721   -1.1421470    2.8792048 
H     2.1002628    0.2560429    3.6580118 
H    -2.0064654   -1.8191644    1.6062986 
H    -1.2379021   -2.1045820   -2.3777182 
H     1.6989034    2.8822868    1.6114674 
H    -0.8812871    1.4946201    4.0240398 
H     2.6686009   -2.7938015   -0.4846850 
H     3.0301242   -2.8199789    1.2385350 
H     3.7814776   -0.7632153    2.2171498 
H     3.3337830    0.7738320    1.4610087 
H     2.0604902   -0.4024647   -0.1560249 
H    -2.0898813   -4.6389562    0.3508777 
H    -1.2351147   -4.1783220    1.8482448 
H    -3.0071006   -4.0651419    1.7627389 
H    -3.3078787   -2.6293211   -1.0701062 
H    -3.1949275   -0.9784066   -0.3967587 
H    -4.1633321   -2.2242161    0.4414703 
H     0.0764702   -4.7231501   -1.3810984 
H    -1.6669132   -4.4167424   -1.6425920 
H    -0.5509057   -4.4551065   -3.0243378 
H     1.7536381   -2.8321125   -2.2556265 
H     1.1459869   -1.1627128   -2.4508773 
H     0.7821813   -2.4020122   -3.6825656 
H     1.1026410    2.4995959    4.6264463 
H     2.6721676    2.2697948    3.7934576 
H     1.9627106    3.8909784    3.9265710 
H    -0.7588253    3.5606481    1.3986058 
H     0.2392455    4.7123146    2.3220581 
H    -0.8608810    3.6077144    3.1808466 
H    -1.0721249   -1.5088443    3.3344500 
H    -0.1451660   -0.7553421    4.6619375 
H    -1.9244057   -0.7064494    4.6726702 
H    -3.2148623    0.9417485    3.3179222 
H    -2.6062187    0.2028792    1.8080634 
H    -2.4168475    1.9505531    2.0813684 
