85
Energy =
C    -0.5632942    2.5497567   -0.7449375 
C    -0.5835467    1.6872063   -1.8720246 
C    -1.5961388    0.7183664   -2.0479542 
H     0.2490773    1.7259545   -2.5846507 
Pd   -0.3627954    0.3418169   -0.1197471 
P    -0.5673773   -2.0335489   -0.2419801 
P     0.5274207    0.7532858    2.0374684 
H    -1.5252963    2.7270565   -0.2437063 
H    -2.5201110    0.8537979   -1.4663417 
C     2.3026997    5.7273555   -0.2325623 
C     2.6404001    4.6007311   -1.0005858 
C     1.7204889    3.5616165   -1.1717432 
C     0.4380540    3.6213012   -0.5772030 
C     0.1045403    4.7749595    0.1705632 
C     1.0269004    5.8136631    0.3448841 
H     3.0260861    6.5375194   -0.0959274 
H     3.6291194    4.5311344   -1.4658982 
H     2.0111443    2.6850455   -1.7596898 
H    -0.8955489    4.8627928    0.6063449 
H     0.7453209    6.6977573    0.9260713 
C    -2.1023889   -1.8435216   -5.4682559 
C    -3.1281799   -1.6966069   -4.5223041 
C    -2.9505125   -0.8490143   -3.4221022 
C    -1.7407820   -0.1388450   -3.2357663 
C    -0.7278448   -0.2759192   -4.2150644 
C    -0.9069377   -1.1203637   -5.3148804 
H    -2.2376041   -2.5058234   -6.3292276 
H    -4.0719332   -2.2374386   -4.6462808 
H    -3.7614704   -0.7238453   -2.6953862 
H     0.2158966    0.2677296   -4.1116750 
H    -0.1102061   -1.2158172   -6.0597252 
N     2.4399171   -1.9796545    1.3826837 
C     0.1560423   -3.1589874    1.0491265 
C     1.0863220   -0.6556674    3.1263360 
C    -2.3881242   -2.5349550   -0.3101007 
C     0.1751264   -2.6114841   -1.8725418 
C     1.9767328    1.9428365    1.9878300 
C    -0.7285395    1.5274256    3.2156866 
C     1.7061631   -3.2054464    1.1374767 
C     2.3751704   -1.4074648    2.7142868 
C    -3.2379263   -1.6215370    0.5909192 
C    -2.7003974   -4.0137929   -0.0167651 
C     0.2786687   -4.1322779   -2.0813810 
C     1.5139537   -1.8995708   -2.1542995 
C     3.0556033    1.4743577    0.9908828 
C     2.5634025    2.2920351    3.3659819 
C    -1.9926613    0.6551137    3.3091554 
C    -1.0911763    2.9779309    2.8755707 
H    -0.2018701   -4.1774441    0.8138207 
H    -0.3000113   -2.8821182    2.0154619 
H     0.2312628   -1.3476844    3.2025961 
H     1.2311630   -0.2246014    4.1350925 
H    -2.6417339   -2.3221714   -1.3650777 
H    -0.5595419   -2.2228265   -2.5991517 
H     1.5160018    2.8518414    1.5602231 
H    -0.2146618    1.5138170    4.1961097 
H     2.0927817   -3.6568857    0.2070824 
H     1.9660835   -3.9155835    1.9446054 
H     2.5279284   -2.2299422    3.4375626 
H     3.2362729   -0.7294257    2.8490000 
H     2.3169519   -1.2836354    0.6424922 
H    -2.9963958   -1.7738554    1.6574927 
H    -3.0816778   -0.5543926    0.3565397 
H    -4.3100958   -1.8510123    0.4568444 
H    -2.5294721   -4.2593113    1.0457072 
H    -2.1116763   -4.7117138   -0.6321343 
H    -3.7676780   -4.2037816   -0.2290997 
H     0.9606243   -4.6132378   -1.3595784 
H    -0.7012055   -4.6304417   -2.0180860 
H     0.6799585   -4.3275869   -3.0919032 
H     2.3350875   -2.2848989   -1.5256579 
H     1.4343163   -0.8099177   -1.9832027 
H     1.8020529   -2.0595943   -3.2081737 
H     3.6668071    0.6487841    1.3904758 
H     2.6046850    1.1407417    0.0393815 
H     3.7341001    2.3137912    0.7631642 
H     1.8018644    2.6863072    4.0600530 
H     3.3355120    3.0727295    3.2458831 
H     3.0472832    1.4215320    3.8420064 
H    -2.5389123    0.6619063    2.3504779 
H    -1.7702002   -0.3930001    3.5715029 
H    -2.6657295    1.0564560    4.0870405 
H    -1.7504424    3.3834221    3.6633873 
H    -1.6434504    3.0319862    1.9230127 
H    -0.2094396    3.6347839    2.8044893 
