85
Energy =
C     0.9473778    0.1684715   -2.7352510 
C     0.5591327    1.4499209   -2.2891769 
C     1.3468221    2.1159235   -1.3011315 
H    -0.3746054    1.9044871   -2.6417456 
Pd    0.4563645    0.2341219   -0.4734242 
P     0.7545013    0.7007503    1.8268313 
P    -0.7282855   -1.8544031   -0.3632016 
H     1.9778837   -0.1392997   -2.5023408 
H     2.4220901    1.8870151   -1.3027912 
C    -0.8550433   -2.2168854   -5.8249784 
C     0.3323995   -2.6281541   -5.1997130 
C     0.9134555   -1.8284618   -4.2093808 
C     0.3142774   -0.6094773   -3.8088981 
C    -0.8635244   -0.1935205   -4.4735507 
C    -1.4409709   -0.9909270   -5.4665655 
H    -1.3126470   -2.8387293   -6.6009879 
H     0.8096535   -3.5693950   -5.4910380 
H     1.8494505   -2.1451402   -3.7346526 
H    -1.3374467    0.7562706   -4.2095218 
H    -2.3533870   -0.6535685   -5.9690210 
C     0.3557635    6.0067740    0.2594413 
C    -0.6682053    5.0963011   -0.0528903 
C    -0.3551598    3.8337183   -0.5667180 
C     0.9897664    3.4506138   -0.7774811 
C     2.0077516    4.3827004   -0.4749510 
C     1.6940247    5.6474438    0.0398352 
H     0.1097760    6.9929368    0.6661424 
H    -1.7151984    5.3716538    0.1118852 
H    -1.1584361    3.1209078   -0.7848392 
H     3.0540975    4.1110374   -0.6506627 
H     2.4970750    6.3565219    0.2663501 
N     2.3548507   -1.7461432    0.3994320 
C     1.7101591   -0.7153601    2.5871966 
C     0.5780360   -3.1474984   -0.6555673 
C     1.7418875    2.2380927    2.2709231 
C    -0.8521445    0.7739317    2.8007146 
C    -1.5741855   -2.4150188    1.2332854 
C    -1.9216280   -2.1110997   -1.7896454 
C     2.8399626   -1.2892551    1.7067114 
C     1.7027870   -3.0642415    0.3892619 
C     3.1865287    2.1364608    1.7479912 
C     1.7436904    2.6280565    3.7598203 
C    -1.6104085    2.0718317    2.4680682 
C    -0.7945842    0.4706354    4.3091445 
C    -1.6580331   -3.9355918    1.4678655 
C    -2.9562920   -1.7501082    1.3948003 
C    -2.8933122   -0.9259879   -1.9424847 
C    -2.6423375   -3.4686726   -1.8534311 
H     0.9708047   -1.5075040    2.8068494 
H     2.1204406   -0.3972082    3.5626397 
H     0.9748464   -2.9534791   -1.6680443 
H     0.1369315   -4.1594070   -0.6675254 
H     1.2250178    3.0322630    1.7026454 
H    -1.4120399   -0.0475876    2.3284353 
H    -0.9075087   -1.9997449    2.0127970 
H    -1.2209293   -2.0699221   -2.6422078 
H     3.3386195   -2.1025767    2.2789079 
H     3.6039187   -0.5188851    1.5257841 
H     2.4299226   -3.8835392    0.2115363 
H     1.2824695   -3.2463189    1.3942292 
H     3.1136752   -1.7220443   -0.2849521 
H     3.7990671    1.4858367    2.3971442 
H     3.2359884    1.7468202    0.7178301 
H     3.6505430    3.1374899    1.7549363 
H     2.1413587    1.8224320    4.4026173 
H     0.7428390    2.9042380    4.1243586 
H     2.3967140    3.5088432    3.8959723 
H    -1.1089141    2.9669003    2.8737855 
H    -1.7075760    2.2038941    1.3773788 
H    -2.6250178    2.0304692    2.9022657 
H    -0.2961699    1.2632281    4.8868540 
H    -0.2841227   -0.4831605    4.5248406 
H    -1.8279165    0.3828414    4.6913151 
H    -2.2700633   -4.4418488    0.7052163 
H    -0.6670602   -4.4182197    1.4885235 
H    -2.1307769   -4.1209466    2.4494898 
H    -3.7081073   -2.2373551    0.7523459 
H    -2.9413754   -0.6760233    1.1407585 
H    -3.2991954   -1.8493963    2.4398246 
H    -3.6958993   -0.9472927   -1.1873002 
H    -2.3638923    0.0389359   -1.8536486 
H    -3.3682271   -0.9667471   -2.9380059 
H    -3.4090344   -3.5692443   -1.0669006 
H    -1.9458928   -4.3203235   -1.7734379 
H    -3.1571675   -3.5550567   -2.8269173 
