85
Energy =
C     0.3672113    0.4434813   -2.7584334 
C     0.0000989    1.6331236   -2.0948043 
C     0.8829034    2.2893946   -1.1926608 
H    -1.0206262    2.0161770   -2.2160172 
Pd    0.3519111    0.2215328   -0.4293293 
P     0.9390782    0.7492253    1.8089504 
P    -0.5764568   -1.9672571   -0.1785077 
H     1.4414961    0.2105826   -2.8117234 
H     1.9592663    2.1251037   -1.3437723 
C    -1.9853766   -1.6203546   -5.7093414 
C    -2.6184445   -0.7546617   -4.8002137 
C    -1.8688034   -0.0700994   -3.8395927 
C    -0.4654316   -0.2422737   -3.7586809 
C     0.1580623   -1.1020911   -4.6923637 
C    -0.5931614   -1.7837932   -5.6574118 
H    -2.5755550   -2.1563303   -6.4594999 
H    -3.7034494   -0.6141079   -4.8429667 
H    -2.3825181    0.5900478   -3.1343887 
H     1.2449183   -1.2331445   -4.6568251 
H    -0.0900808   -2.4427171   -6.3725215 
C    -0.0490853    5.9550301    0.8761175 
C    -1.0897110    5.1290257    0.4186498 
C    -0.8018850    3.9414172   -0.2616056 
C     0.5354644    3.5470651   -0.5000594 
C     1.5704890    4.4054109   -0.0599768 
C     1.2828138    5.5927758    0.6251219 
H    -0.2767912    6.8816465    1.4125093 
H    -2.1323273    5.4123601    0.5963728 
H    -1.6284182    3.3057731   -0.5943958 
H     2.6129470    4.1424319   -0.2740766 
H     2.1006187    6.2414743    0.9553529 
N     2.4550851   -2.1617817    1.4543702 
C     1.0821164   -0.6388040    3.0352183 
C     0.1402919   -3.1974075    1.0218730 
C     2.5973586    1.6438486    1.8364062 
C    -0.2945638    1.9552838    2.5761000 
C    -2.3018011   -1.6701647    0.5197571 
C    -0.7239466   -2.9214097   -1.7869992 
C     2.2733488   -1.6060274    2.7840734 
C     1.6858537   -3.3319718    1.0824439 
C     3.6426387    0.9740984    0.9209004 
C     3.1823691    1.9460478    3.2275678 
C    -0.2688515    2.0683253    4.1115828 
C    -1.7245502    1.6542784    2.0938664 
C    -3.0685635   -2.8856921    1.0727683 
C    -3.1434907   -0.8521473   -0.4750762 
C    -1.6654082   -4.1373821   -1.7820287 
C     0.6817205   -3.3042497   -2.2872622 
H     0.1098155   -1.1625350    3.0299246 
H     1.1981477   -0.1920735    4.0390908 
H    -0.3043851   -4.1801095    0.7771535 
H    -0.2463067   -2.9260248    2.0194389 
H     2.3151866    2.6056478    1.3718365 
H     0.0209018    2.9200438    2.1359674 
H    -2.0621966   -1.0121917    1.3764660 
H    -1.1385237   -2.1709923   -2.4818890 
H     2.1841381   -2.4506484    3.4917830 
H     3.1993551   -1.0745586    3.0708685 
H     2.0685738   -3.6889873    0.1126943 
H     1.9088160   -4.1323299    1.8135313 
H     2.4602701   -1.4503469    0.7189848 
H     4.0672160    0.0586602    1.3655089 
H     3.2176030    0.7088598   -0.0640924 
H     4.4804574    1.6730294    0.7490753 
H     3.3886489    1.0281670    3.8043347 
H     2.5243628    2.5937986    3.8266651 
H     4.1426834    2.4784862    3.1054892 
H    -0.6479541    1.1477149    4.5884570 
H     0.7317039    2.2798194    4.5178557 
H    -0.9337361    2.8948450    4.4194790 
H    -2.1202265    0.7395468    2.5709722 
H    -1.7682724    1.5210308    0.9998981 
H    -2.3948451    2.4875772    2.3681418 
H    -3.4005791   -3.5698425    0.2772463 
H    -2.4768396   -3.4655326    1.7997239 
H    -3.9717661   -2.5249450    1.5972940 
H    -3.3942033   -1.4390559   -1.3758440 
H    -2.6045420    0.0558371   -0.7989302 
H    -4.0904024   -0.5383955   -0.0016602 
H    -1.3962071   -4.8791480   -1.0091976 
H    -2.7171825   -3.8469391   -1.6354071 
H    -1.5980010   -4.6443714   -2.7611499 
H     1.0964964   -4.1514071   -1.7141454 
H     1.3898600   -2.4589924   -2.2210020 
H     0.6231688   -3.6147296   -3.3440303 
