85
Energy =
C    -0.6013206    2.5149865   -0.6557092 
C    -0.5134929    1.6764810   -1.7893560 
C    -1.4816708    0.6885445   -2.0870148 
H     0.3616094    1.7676308   -2.4435992 
Pd   -0.3859452    0.2484398   -0.0780174 
P    -0.7215342   -2.1061642   -0.1198423 
P     0.6604109    0.6190631    2.0312720 
H    -1.5862233    2.6001176   -0.1739057 
H    -2.4647634    0.7961801   -1.6060689 
C     1.9762991    5.9024568    0.0170936 
C     0.7004511    5.8450103    0.5976495 
C    -0.1238340    4.7358937    0.3742425 
C     0.3084091    3.6535374   -0.4280632 
C     1.5857994    3.7441473   -1.0321094 
C     2.4095777    4.8510416   -0.8080142 
H     2.6241250    6.7671438    0.1928884 
H     0.3419281    6.6709839    1.2203909 
H    -1.1256842    4.7120246    0.8141826 
H     1.9489179    2.9358650   -1.6736949 
H     3.3959556    4.8964303   -1.2811428 
C    -1.5822661   -1.4903232   -5.8048791 
C    -2.7517928   -1.2972442   -5.0545755 
C    -2.7034092   -0.5911409   -3.8468050 
C    -1.4846512   -0.0677482   -3.3543983 
C    -0.3209931   -0.2444900   -4.1409267 
C    -0.3690349   -0.9499366   -5.3469472 
H    -1.6168971   -2.0450202   -6.7479508 
H    -3.7077159   -1.6905111   -5.4153276 
H    -3.6261156   -0.4270601   -3.2816345 
H     0.6377436    0.1589470   -3.8016784 
H     0.5452366   -1.0792566   -5.9353998 
N     2.4567143   -2.1793231    1.1646195 
C     0.0954583   -3.2226603    1.1333051 
C     1.3649097   -0.7848689    3.0404236 
C    -2.5077197   -2.6570864    0.1422010 
C    -0.2223535   -2.8170158   -1.7835322 
C     2.0919780    1.8166866    1.8322870 
C    -0.4447845    1.3808814    3.3583075 
C     1.6366095   -3.3727241    1.0724988 
C     2.5821528   -1.5525240    2.4668612 
C    -3.4438033   -2.2763961   -1.0100439 
C    -3.0527505   -2.1320890    1.4807566 
C    -0.4180229   -4.3365765   -1.9172983 
C     1.1981438   -2.3707693   -2.1827028 
C     3.0374724    1.3757437    0.6975425 
C     2.8479797    2.1402673    3.1316995 
C    -1.6663852    0.4896535    3.6382503 
C    -0.8822981    2.8147637    3.0403362 
H    -0.3626635   -4.2195808    0.9901122 
H    -0.2302337   -2.8731796    2.1264436 
H     0.5303776   -1.4725639    3.2531081 
H     1.6522931   -0.3388168    4.0113781 
H    -2.4403156   -3.7608231    0.1947489 
H    -0.9246187   -2.3126918   -2.4714432 
H     1.5808174    2.7339947    1.4886629 
H     0.1964253    1.3971199    4.2606261 
H     1.9012466   -3.9096403    0.1450339 
H     1.9345877   -4.0437921    1.8996002 
H     2.8412115   -2.3455392    3.1931107 
H     3.4517621   -0.8732305    2.4458857 
H     2.2737744   -1.5080526    0.4137411 
H    -3.5521070   -1.1811318   -1.0787047 
H    -3.0984375   -2.6539569   -1.9855212 
H    -4.4469634   -2.6980499   -0.8213402 
H    -3.1479711   -1.0331428    1.4528702 
H    -2.4159003   -2.4014452    2.3394767 
H    -4.0559233   -2.5549084    1.6651881 
H     0.2670876   -4.9028030   -1.2627067 
H    -1.4514096   -4.6492205   -1.6899905 
H    -0.2042804   -4.6396460   -2.9577273 
H     1.9805390   -2.9205160   -1.6345368 
H     1.3460499   -1.2908124   -2.0006032 
H     1.3525653   -2.5553546   -3.2593304 
H     3.6820588    0.5318357    0.9930590 
H     2.4711513    1.0753848   -0.2028492 
H     3.6955561    2.2162329    0.4188044 
H     2.1780376    2.5075027    3.9276531 
H     3.5885236    2.9353075    2.9324540 
H     3.4002103    1.2665975    3.5191655 
H    -2.3371392    0.4681929    2.7629001 
H    -1.3930530   -0.5486233    3.8892850 
H    -2.2357648    0.8982910    4.4914584 
H    -1.4631718    3.2178752    3.8887772 
H    -1.5349383    2.8350563    2.1515427 
H    -0.0318039    3.4921386    2.8634975 
