85
Energy =
C     0.9271015    0.3242012   -2.6492856 
C     0.2626462    1.4901672   -2.2283255 
C     0.8102834    2.2626396   -1.1474284 
H    -0.7110815    1.7566264   -2.6572816 
Pd    0.2646424    0.2447952   -0.4162853 
P     0.9646853    0.5332048    1.8215152 
P    -0.9517361   -1.7947867   -0.2547531 
H     1.9528680    0.1838655   -2.2761320 
H     1.9046047    2.3168491   -1.0845254 
C    -0.0373891   -2.3626668   -5.8564584 
C     1.0592923   -2.6102964   -5.0147159 
C     1.3627971   -1.7142461   -3.9849895 
C     0.5699068   -0.5612787   -3.7617783 
C    -0.5144535   -0.3131972   -4.6351336 
C    -0.8133478   -1.2065025   -5.6691408 
H    -0.2762421   -3.0584959   -6.6671063 
H     1.6811645   -3.4979779   -5.1689389 
H     2.2239700   -1.9021532   -3.3334574 
H    -1.1235000    0.5874020   -4.5119659 
H    -1.6534267   -0.9976787   -6.3394420 
C    -1.2600331    5.6285104    0.5717216 
C    -1.9915176    4.5722426    0.0028009 
C    -1.3276409    3.4760104   -0.5574689 
C     0.0873032    3.4149483   -0.5729482 
C     0.8084034    4.4911893   -0.0069548 
C     0.1422918    5.5832670    0.5641746 
H    -1.7812810    6.4829863    1.0149753 
H    -3.0861686    4.5998078    0.0071801 
H    -1.9113433    2.6405634   -0.9603847 
H     1.9042706    4.4760124   -0.0331757 
H     0.7201324    6.4075831    0.9949871 
N     2.2492050   -1.9304002    0.1583867 
C     1.6883219   -1.0539793    2.4817037 
C     0.0958797   -3.1924642    0.3898104 
C     2.3390923    1.8106457    1.9511829 
C    -0.3374932    0.9897842    3.1034520 
C    -2.5078460   -1.7565348    0.8232817 
C    -1.6013861   -2.4405106   -1.9021642 
C     2.6788850   -1.7975896    1.5580187 
C     1.5228771   -3.1583726   -0.1856335 
C     3.5185471    1.4646952    1.0171688 
C     2.8471356    2.1167786    3.3710194 
C    -0.7470899    2.4647922    2.9404967 
C    -0.0501856    0.6041373    4.5662703 
C    -3.1312885   -0.3456312    0.8008361 
C    -2.2923683   -2.2674476    2.2585556 
C    -2.6733273   -1.4831324   -2.4535918 
C    -2.1017167   -3.8947124   -1.8865882 
H     0.8192094   -1.6905552    2.7214169 
H     2.1887695   -0.8414731    3.4435052 
H    -0.3767056   -4.1638941    0.1670630 
H     0.1334434   -3.1116595    1.4874958 
H     1.8377698    2.7141922    1.5577499 
H    -1.1909588    0.3757009    2.7657326 
H    -3.2092029   -2.4529867    0.3261761 
H    -0.7202347   -2.3815809   -2.5654111 
H     2.8838535   -2.7917673    2.0135482 
H     3.6361048   -1.2552154    1.5611009 
H     1.4800817   -3.2221379   -1.2876142 
H     2.0571519   -4.0677218    0.1719270 
H     3.0618326   -1.8407553   -0.4539028 
H     4.2180851    0.7653247    1.5064373 
H     3.1852834    1.0061351    0.0701207 
H     4.0883119    2.3794116    0.7769392 
H     3.2520159    1.2170728    3.8678707 
H     2.0649546    2.5477245    4.0144012 
H     3.6680405    2.8541793    3.3109120 
H     0.0405012    3.1540372    3.2890671 
H    -0.9733386    2.7110522    1.8902562 
H    -1.6523497    2.6651087    3.5399420 
H     0.8232084    1.1305593    4.9819208 
H     0.1099176   -0.4799293    4.6904901 
H    -0.9255572    0.8774451    5.1826633 
H    -2.4460139    0.4049368    1.2302979 
H    -3.3721489   -0.0154271   -0.2217956 
H    -4.0667386   -0.3384171    1.3884757 
H    -1.5128511   -1.6969181    2.7933772 
H    -2.0165561   -3.3345136    2.2838358 
H    -3.2292468   -2.1538014    2.8324491 
H    -3.6235363   -1.5766394   -1.8988051 
H    -2.3432257   -0.4307167   -2.4046378 
H    -2.8775432   -1.7245957   -3.5100972 
H    -2.9238360   -4.0454511   -1.1633350 
H    -1.3000654   -4.6155600   -1.6547086 
H    -2.4928704   -4.1548140   -2.8863486 
