85
Energy =
C     0.0109765    2.4400792   -0.9525791 
C    -0.2225159    1.5756445   -2.0688062 
C    -1.4432929    0.8988764   -2.2304273 
H     0.6007080    1.3882709   -2.7699479 
Pd   -0.2692544    0.3658354   -0.2069881 
P    -0.4666891   -2.0143463   -0.2336360 
P     0.4134904    0.7548401    2.0406084 
H    -0.8640645    2.9706723   -0.5515200 
H    -2.2820043    1.2208048   -1.5945299 
C     3.7780196    4.4659606   -0.4310455 
C     3.7566297    3.1166601   -0.8235060 
C     2.5364150    2.4569276   -1.0049192 
C     1.3101608    3.1306668   -0.7916050 
C     1.3471768    4.4896511   -0.4089730 
C     2.5699945    5.1506977   -0.2311910 
H     4.7330638    4.9807716   -0.2853269 
H     4.6952890    2.5755760   -0.9820296 
H     2.5326556    1.3965055   -1.2844879 
H     0.4075395    5.0301156   -0.2527233 
H     2.5793175    6.2053656    0.0628270 
C    -2.6634577   -1.5144902   -5.5709243 
C    -3.5672454   -1.1980097   -4.5448872 
C    -3.1532039   -0.4073959   -3.4677385 
C    -1.8251511    0.0761980   -3.3841374 
C    -0.9384899   -0.2192099   -4.4487424 
C    -1.3521236   -1.0108910   -5.5235063 
H    -2.9837767   -2.1334976   -6.4150838 
H    -4.5985572   -1.5625662   -4.5884218 
H    -3.8652030   -0.1535981   -2.6755049 
H     0.0811228    0.1756046   -4.4424524 
H    -0.6520234   -1.2294026   -6.3363674 
N     2.6804248   -1.2580804    0.4325453 
C     0.7504723   -2.9344659    0.8360406 
C     1.7831896   -0.3376431    2.6584569 
C    -2.0868945   -2.8637026    0.2183381 
C    -0.1323076   -2.6383911   -1.9827228 
C     1.0238862    2.4950400    2.4262399 
C    -1.0127369    0.3080397    3.1810987 
C     2.2527878   -2.6468711    0.5544249 
C     2.9550884   -0.5238558    1.6575255 
C    -3.2402472   -2.3243587   -0.6397777 
C    -2.4301603   -2.7819605    1.7143614 
C    -0.0910842   -4.1697773   -2.1211802 
C     1.1194311   -1.9870036   -2.6001491 
C     1.9426673    2.6492559    3.6528254 
C    -0.1396554    3.5014791    2.4663269 
C    -2.3612471    0.8658754    2.6876586 
C    -0.7753996    0.5908462    4.6748310 
H     0.5539517   -4.0159733    0.7112591 
H     0.4844214   -2.6872637    1.8770188 
H     1.3380959   -1.3130236    2.9140939 
H     2.1593985    0.0862762    3.6050587 
H    -1.9145314   -3.9266736   -0.0357212 
H    -1.0078730   -2.2565125   -2.5400008 
H     1.6327712    2.7224788    1.5339398 
H    -1.0371705   -0.7897142    3.0416654 
H     2.5333394   -3.1835147   -0.3697240 
H     2.8478373   -3.1129403    1.3610671 
H     3.7688344   -1.0484112    2.1926122 
H     3.3575440    0.4660880    1.3734572 
H     2.0635439   -0.7232367   -0.1924372 
H    -3.3873714   -1.2440629   -0.4586473 
H    -3.0671019   -2.4713718   -1.7178571 
H    -4.1788278   -2.8434857   -0.3770056 
H    -2.6632976   -1.7472145    2.0116602 
H    -1.6250349   -3.1662210    2.3624759 
H    -3.3290123   -3.3920429    1.9122898 
H     0.7726935   -4.6063331   -1.5898543 
H    -1.0089388   -4.6574720   -1.7524750 
H     0.0125375   -4.4339431   -3.1886920 
H     2.0530210   -2.3881096   -2.1746466 
H     1.1221197   -0.8934692   -2.4524466 
H     1.1365317   -2.1826073   -3.6857682 
H     1.4541519    2.3515268    4.5951893 
H     2.8809151    2.0803713    3.5485170 
H     2.2222411    3.7140497    3.7451759 
H    -0.8387794    3.3675386    1.6243233 
H     0.2630051    4.5272880    2.4101938 
H    -0.7138261    3.4196549    3.4047775 
H    -2.4419431    1.9523750    2.8505533 
H    -2.5055167    0.6696654    1.6089475 
H    -3.1884051    0.3855892    3.2400448 
H    -1.5929732    0.1395285    5.2652406 
H    -0.7733547    1.6724409    4.8888794 
H     0.1732824    0.1619822    5.0385649 
