85
Energy =
C     0.3497363    0.3933184   -2.7234894 
C     0.1412678    1.6188372   -2.0485951 
C     1.1504347    2.1656175   -1.2140821 
H    -0.8304962    2.1237582   -2.1204612 
Pd    0.4093182    0.1826623   -0.4128945 
P     0.7719502    0.6720710    1.8943634 
P    -0.5020914   -2.0320272   -0.2186107 
H     1.3940976    0.0806732   -2.8705797 
H     2.1818652    1.8430643   -1.4190407 
C    -2.4039255   -1.3554592   -5.5301085 
C    -2.8893924   -0.5192938   -4.5098189 
C    -2.0064512    0.0609853   -3.5942400 
C    -0.6152522   -0.1881615   -3.6718702 
C    -0.1407309   -1.0148650   -4.7164067 
C    -1.0252286   -1.5931132   -5.6351216 
H    -3.0975311   -1.8108401   -6.2441829 
H    -3.9632357   -0.3211664   -4.4286961 
H    -2.4031692    0.6979082   -2.7976064 
H     0.9349330   -1.2010216   -4.8053893 
H    -0.6368859   -2.2284124   -6.4378371 
C     0.8358746    6.0894412    0.5320858 
C    -0.2951169    5.2566118    0.4834229 
C    -0.2042133    3.9767307   -0.0744404 
C     1.0231558    3.4964484   -0.5842023 
C     2.1499508    4.3478597   -0.5368716 
C     2.0559721    5.6337968    0.0112546 
H     0.7630777    7.0902262    0.9695271 
H    -1.2518786    5.6085351    0.8832980 
H    -1.0896184    3.3326318   -0.0995354 
H     3.1060378    3.9999051   -0.9435839 
H     2.9391595    6.2802468    0.0348122 
N     2.4188756   -1.9688153    1.3874053 
C     0.8463328   -0.8290045    3.0002277 
C     0.3752589   -3.2992127    0.8376713 
C     2.3835289    1.5461491    2.4151775 
C    -0.5983398    1.7325393    2.6426132 
C    -2.1979383   -1.9100395    0.5922202 
C    -0.6985350   -2.9339776   -1.8550919 
C     2.1165172   -1.6814080    2.7942435 
C     1.9084229   -3.2379628    0.8724132 
C     2.2497407    3.0377572    2.7709275 
C     3.4942085    1.3228555    1.3717217 
C    -0.6541170    1.7148178    4.1816044 
C    -1.9801781    1.4312539    2.0409859 
C    -2.8324377   -3.1980972    1.1489022 
C    -3.1589850   -1.1319907   -0.3231600 
C    -1.5959671   -4.1826824   -1.8517440 
C     0.6932831   -3.2568215   -2.4301571 
H    -0.0753705   -1.4103310    2.8272926 
H     0.8154311   -0.4913863    4.0511704 
H     0.0593176   -4.2957948    0.4811165 
H    -0.0223538   -3.2100443    1.8625627 
H     2.6655869    1.0096588    3.3411900 
H    -0.3041304    2.7430893    2.3056167 
H    -1.9637286   -1.2598751    1.4559326 
H    -1.1706241   -2.1778888   -2.5042640 
H     2.0214264   -2.6103286    3.4001547 
H     2.9745282   -1.1315657    3.2164123 
H     2.3210738   -3.3748496   -0.1399639 
H     2.2525244   -4.1052676    1.4830586 
H     3.4302294   -1.9418858    1.2433106 
H     1.8551899    3.6322957    1.9338616 
H     1.6126055    3.2088589    3.6519814 
H     3.2536129    3.4320737    3.0103913 
H     3.3508675    1.9928591    0.5094128 
H     3.5088676    0.2882200    0.9942115 
H     4.4781204    1.5560832    1.8156079 
H    -1.0696574    0.7624974    4.5546470 
H     0.3320710    1.8655235    4.6517876 
H    -1.3179065    2.5240969    4.5346252 
H    -2.3807561    0.4699720    2.4074482 
H    -1.9464429    1.3901249    0.9386884 
H    -2.6963998    2.2178925    2.3376643 
H    -3.1607298   -3.8837311    0.3535334 
H    -2.1541841   -3.7510247    1.8194171 
H    -3.7256297   -2.9249729    1.7393483 
H    -3.4319544   -1.7158434   -1.2191055 
H    -2.7049315   -0.1851684   -0.6616201 
H    -4.0893333   -0.8919046    0.2209152 
H    -1.2655521   -4.9429528   -1.1214686 
H    -2.6493206   -3.9374456   -1.6467011 
H    -1.5568735   -4.6507385   -2.8516560 
H     1.1582778   -4.1075410   -1.9013030 
H     1.3791369   -2.3934477   -2.3708401 
H     0.5957276   -3.5415867   -3.4914964 
