85
Energy =
C     0.1792864    0.5570831   -2.6425633 
C    -0.2419058    1.7105648   -1.9521497 
C     0.6204418    2.4059108   -1.0550818 
H    -1.2856314    2.0361714   -2.0424796 
Pd    0.2495401    0.2891326   -0.3268776 
P     1.0847602    0.6334138    1.8621908 
P    -0.6860282   -1.9103217   -0.3050206 
H     1.2640735    0.3809103   -2.7041081 
H     1.6984405    2.3509139   -1.2610794 
C    -2.0588014   -1.6075854   -5.6099362 
C    -2.7315820   -0.7377352   -4.7344583 
C    -2.0214697   -0.0233109   -3.7643309 
C    -0.6188207   -0.1685635   -3.6429592 
C     0.0449791   -1.0381378   -4.5406552 
C    -0.6663514   -1.7500451   -5.5138165 
H    -2.6183849   -2.1640233   -6.3685375 
H    -3.8167194   -0.6146402   -4.8123912 
H    -2.5651167    0.6469751   -3.0904746 
H     1.1324611   -1.1529609   -4.4685020 
H    -0.1327959   -2.4149449   -6.2005843 
C    -0.6736437    5.9237506    1.0758791 
C    -1.5978811    4.9129441    0.7636453 
C    -1.1847861    3.7713150    0.0698879 
C     0.1635723    3.6098592   -0.3288220 
C     1.0758204    4.6464436   -0.0268872 
C     0.6628688    5.7885174    0.6708528 
H    -0.9960635    6.8145704    1.6243106 
H    -2.6443794    5.0126163    1.0698934 
H    -1.9125325    2.9796793   -0.1385421 
H     2.1171921    4.5612060   -0.3533144 
H     1.3864822    6.5797574    0.8924334 
N     1.7965243   -2.7238157    1.8076875 
C     0.9176451   -0.7072411    3.1489641 
C    -0.7015213   -2.9857447    1.2134236 
C     2.9405939    0.9902686    1.8544818 
C     0.2612300    2.0751206    2.7393769 
C    -2.5223505   -1.6806754   -0.6974463 
C     0.0029649   -2.9854063   -1.6846378 
C     1.8509062   -1.9348341    3.0259318 
C     0.6598770   -3.6069913    1.6205437 
C     3.2774319    2.4434344    1.4811352 
C     3.6998345    0.0323582    0.9127074 
C     0.8703888    2.4490133    4.1024679 
C    -1.2521353    1.8108024    2.8458000 
C    -3.0532200   -0.3900608   -0.0443635 
C    -3.4487878   -2.8650911   -0.3679008 
C    -0.4941114   -4.4404353   -1.7410087 
C     1.5421514   -2.9020082   -1.7361680 
H    -0.1432543   -1.0081956    3.1538387 
H     1.1141607   -0.2200174    4.1215226 
H    -1.4114012   -3.8084674    1.0143559 
H    -1.1382643   -2.3815985    2.0278620 
H     3.2618986    0.8060815    2.8985307 
H     0.4117456    2.9167526    2.0409888 
H    -2.5076192   -1.5360037   -1.7938377 
H    -0.3823971   -2.4630885   -2.5783278 
H     1.6270653   -2.6123349    3.8706192 
H     2.8933109   -1.6017218    3.1829669 
H     0.9336102   -4.3636035    0.8637003 
H     0.5091191   -4.1661153    2.5622219 
H     1.9867690   -2.1630688    0.9728368 
H     3.0681752    2.6278910    0.4158972 
H     2.7275305    3.1918271    2.0721433 
H     4.3568678    2.6146912    1.6390566 
H     3.3212980    0.1271156   -0.1223945 
H     3.6313658   -1.0258659    1.2080971 
H     4.7719832    0.2971445    0.9053398 
H     0.6682469    1.6812500    4.8694904 
H     1.9601297    2.6108303    4.0564543 
H     0.4102810    3.3893844    4.4541057 
H    -1.4747151    1.0143154    3.5783660 
H    -1.6790844    1.5161542    1.8729015 
H    -1.7670285    2.7281524    3.1795766 
H    -3.0485006   -0.4648121    1.0577552 
H    -2.4445178    0.4881195   -0.3259957 
H    -4.0951850   -0.2070137   -0.3623587 
H    -3.5620978   -2.9984521    0.7219397 
H    -3.1049432   -3.8180829   -0.7989182 
H    -4.4533742   -2.6591949   -0.7788465 
H    -0.1991107   -5.0215120   -0.8506661 
H    -1.5878612   -4.5041527   -1.8500673 
H    -0.0478606   -4.9387700   -2.6202333 
H     1.9045055   -3.3339535   -2.6859051 
H     2.0215679   -3.4661986   -0.9178756 
H     1.8931378   -1.8556452   -1.6816577 
