85
Energy =
C     0.2562383    0.4676177   -2.7657837 
C     0.0400477    1.6812838   -2.0638395 
C     1.0400339    2.2644755   -1.2555787 
H    -0.9527178    2.1463184   -2.1053231 
Pd    0.3848609    0.1604271   -0.4988638 
P     0.7273812    0.7285147    1.8119400 
P    -0.2690540   -2.1283720   -0.3919687 
H     1.2983157    0.2042011   -2.9986555 
H     2.0765730    1.9407977   -1.4308644 
C    -2.6574945   -1.1956245   -5.4651734 
C    -3.0843985   -0.4939168   -4.3244894 
C    -2.1468989    0.0527488   -3.4430039 
C    -0.7586776   -0.0944162   -3.6775622 
C    -0.3456533   -0.7879659   -4.8371715 
C    -1.2852635   -1.3332543   -5.7215072 
H    -3.3923601   -1.6263416   -6.1527836 
H    -4.1539997   -0.3778833   -4.1208251 
H    -2.4939349    0.5761322   -2.5458757 
H     0.7241823   -0.8949531   -5.0456619 
H    -0.9445052   -1.8649357   -6.6159505 
C     0.7498140    6.1350455    0.6117305 
C    -0.4224675    5.4498288    0.2498245 
C    -0.3476220    4.1907422   -0.3543165 
C     0.9043817    3.5821191   -0.6083025 
C     2.0752643    4.2936590   -0.2530930 
C     1.9999327    5.5542267    0.3517311 
H     0.6872634    7.1201835    1.0848477 
H    -1.4014357    5.9017490    0.4400875 
H    -1.2743506    3.6710913   -0.6167220 
H     3.0556500    3.8517833   -0.4663531 
H     2.9194229    6.0873725    0.6140665 
N     2.1372332   -2.0555739    2.0209740 
C     0.7155944   -0.4644632    3.2479003 
C     0.8910230   -3.3877103    0.3436784 
C     2.3440097    1.6765376    1.9752007 
C    -0.6142122    1.9776548    2.2889313 
C    -1.8423464   -2.2182272    0.6429989 
C    -0.6074225   -2.9326325   -2.0596734 
C     1.9460437   -1.3798186    3.3001725 
C     1.2629484   -3.2090596    1.8164905 
C     3.5117293    0.9654982    1.2627964 
C     2.7279894    2.1490515    3.3880990 
C    -0.8521118    2.2061137    3.7929032 
C    -1.9411170    1.6313987    1.5886021 
C    -2.2630981   -3.5943832    1.1915019 
C    -2.9890024   -1.5164621   -0.1091703 
C    -1.4157746   -4.2418465   -2.0448727 
C     0.7269247   -3.1212226   -2.8080637 
H    -0.2190940   -1.0516824    3.1844216 
H     0.6513720    0.1232985    4.1791025 
H     1.8073583   -3.3664093   -0.2711733 
H     0.4204246   -4.3756671    0.1879660 
H     2.1039063    2.5777663    1.3848528 
H    -0.2302758    2.9150279    1.8460846 
H    -1.5729042   -1.5777746    1.5051946 
H    -1.1993251   -2.1741304   -2.5978869 
H     1.8360443   -2.0813175    4.1585941 
H     2.8429780   -0.7753670    3.5089078 
H     1.7170192   -4.1538850    2.1857114 
H     0.3502349   -3.0643348    2.4201591 
H     3.1160571   -2.3174705    1.8845884 
H     3.9201745    0.1343316    1.8605410 
H     3.2037602    0.5526251    0.2861441 
H     4.3323733    1.6861899    1.0952214 
H     2.8967378    1.3114469    4.0868525 
H     1.9673533    2.8155842    3.8239697 
H     3.6710181    2.7222495    3.3319752 
H    -1.3259325    1.3280692    4.2656887 
H     0.0691233    2.4419317    4.3484148 
H    -1.5427113    3.0587495    3.9216360 
H    -2.3799401    0.7013097    1.9926751 
H    -1.8018025    1.4944664    0.5013933 
H    -2.6756549    2.4411651    1.7463969 
H    -2.5995890   -4.2759826    0.3961012 
H    -1.4567468   -4.0967219    1.7504928 
H    -3.1092956   -3.4564513    1.8885574 
H    -3.3166099   -2.0979026   -0.9878270 
H    -2.6832158   -0.5164072   -0.4586717 
H    -3.8595265   -1.3946124    0.5589472 
H    -0.9397344   -5.0288434   -1.4336921 
H    -2.4455871   -4.0942145   -1.6845181 
H    -1.4833232   -4.6260464   -3.0784137 
H     0.5235523   -3.3223446   -3.8731323 
H     1.2959418   -3.9792884   -2.4098090 
H     1.3689003   -2.2248665   -2.7484938 
