85
Energy =
C    -1.3735180    2.2426333   -0.7909811 
C    -0.6253175    2.5348197    0.3708563 
C     0.7891680    2.6447104    0.3140665 
H    -1.1345920    2.6310121    1.3377866 
Pd    0.0869979    0.5313143   -0.1954247 
P     2.1108053   -0.6329752    0.3399630 
P    -1.2635687   -1.3342840   -0.7745129 
H    -0.8651385    2.4010497   -1.7539213 
H     1.2219340    2.9116185   -0.6607912 
C    -5.6646500    2.3434392   -1.1190061 
C    -5.0705523    2.1741131    0.1433308 
C    -3.6786713    2.1412294    0.2693627 
C    -2.8440415    2.2635161   -0.8666818 
C    -3.4583335    2.4656503   -2.1250283 
C    -4.8518999    2.5020313   -2.2514290 
H    -6.7549115    2.3670866   -1.2148512 
H    -5.6980441    2.0712523    1.0346479 
H    -3.2372607    2.0165051    1.2628268 
H    -2.8293229    2.6026676   -3.0106848 
H    -5.3048254    2.6609633   -3.2354630 
C     3.1786577    3.8183496    3.6984653 
C     2.0276731    3.0364077    3.8945394 
C     1.2439312    2.6492616    2.8023630 
C     1.5955061    3.0332881    1.4872651 
C     2.7475736    3.8327341    1.3072671 
C     3.5315247    4.2201813    2.4012883 
H     3.7927172    4.1172932    4.5539938 
H     1.7440747    2.7232209    4.9048104 
H     0.3635815    2.0182383    2.9644686 
H     3.0237533    4.1556417    0.2977264 
H     4.4183728    4.8421156    2.2413859 
N     1.1289028   -1.1896542   -2.7914826 
C    -0.3842133   -2.7799895   -1.5481413 
C     2.7852173   -1.7497404   -0.9993988 
C    -2.0005053   -2.0614588    0.8080669 
C    -2.7012494   -0.9538763   -1.9221915 
C     3.5696956    0.5197792    0.6709491 
C     2.1187878   -1.7289506    1.8783879 
C     0.3846863   -2.4530844   -2.8462623 
C     2.5461435   -1.3012371   -2.4514133 
C    -2.4140845   -3.5438145    0.7779828 
C    -3.1057322   -1.1433489    1.3549734 
C    -3.6755650   -2.1171106   -2.1756055 
C    -2.2180847   -0.3399063   -3.2499996 
C     3.9525584    1.2843492   -0.6088673 
C     4.8112198   -0.1313603    1.3054505 
C     1.4824213   -3.1185673    1.7244262 
C     1.5097120   -0.9422404    3.0521539 
H    -1.1151844   -3.5836713   -1.7461532 
H     0.2956034   -3.1612819   -0.7684953 
H     2.3535290   -2.7527936   -0.8491832 
H     3.8707052   -1.8590688   -0.8234800 
H    -1.1452669   -1.9679614    1.5019874 
H    -3.2387461   -0.1626059   -1.3684098 
H     3.1584547    1.2450206    1.3926103 
H     3.1916935   -1.8907742    2.0824644 
H    -0.3352772   -2.3942967   -3.6765996 
H     1.0531027   -3.3106841   -3.0810300 
H     3.0767709   -2.0312819   -3.1062828 
H     3.0081086   -0.3177750   -2.6290944 
H     1.0299460   -0.6857678   -3.6741238 
H    -3.2394114   -3.7391352    0.0752705 
H    -1.5743414   -4.2075508    0.5127554 
H    -2.7588132   -3.8392383    1.7853973 
H    -4.0051897   -1.1378979    0.7159888 
H    -2.7435737   -0.1063706    1.4417945 
H    -3.4103201   -1.4852383    2.3598548 
H    -3.1751706   -2.9858150   -2.6392047 
H    -4.1752609   -2.4549046   -1.2545420 
H    -4.4638798   -1.7815374   -2.8732810 
H    -1.8429247   -1.1143708   -3.9396163 
H    -1.4173953    0.4026839   -3.0962093 
H    -3.0647089    0.1595385   -3.7503243 
H     4.5247664    0.6435338   -1.3027935 
H     3.0698393    1.6740468   -1.1443548 
H     4.5967470    2.1410519   -0.3468705 
H     5.2096011   -0.9659084    0.6995536 
H     4.6229078   -0.4989818    2.3271362 
H     5.6105705    0.6275808    1.3784322 
H     0.4053029   -3.0656425    1.5049091 
H     1.9698988   -3.7247075    0.9426134 
H     1.5935587   -3.6686465    2.6756416 
H     0.4463278   -0.7087396    2.8601033 
H     2.0359174    0.0112808    3.2260938 
H     1.5705789   -1.5369635    3.9807745 
