85
Energy =
C    -1.5975468    2.1705736   -0.4026197 
C    -0.7948974    2.4193356    0.7377239 
C     0.6115929    2.5727173    0.6458220 
H    -1.2626582    2.3996958    1.7294998 
Pd   -0.0562987    0.4975753   -0.0703872 
P     2.0220703   -0.5378451    0.4260787 
P    -1.3886857   -1.1940944   -1.0673707 
H    -1.1830899    2.4654648   -1.3780655 
H     1.0176319    2.8813812   -0.3288140 
C    -5.8926912    1.8358659   -0.3981421 
C    -5.1803343    1.6468916    0.7984632 
C    -3.7862276    1.7557485    0.8161339 
C    -3.0674793    2.0533777   -0.3657775 
C    -3.8019040    2.2631272   -1.5569896 
C    -5.1979198    2.1522169   -1.5748854 
H    -6.9837568    1.7481612   -0.4086285 
H    -5.7169294    1.4126716    1.7236877 
H    -3.2531610    1.5918201    1.7577629 
H    -3.2672247    2.5305231   -2.4760031 
H    -5.7449467    2.3216847   -2.5079553 
C     3.2334668    3.4258766    3.9571367 
C     1.9589611    2.8860576    4.2007005 
C     1.0927011    2.6112817    3.1378860 
C     1.4808965    2.8662857    1.8011985 
C     2.7562103    3.4364556    1.5759668 
C     3.6251430    3.7085778    2.6402035 
H     3.9105118    3.6364188    4.7910855 
H     1.6401094    2.6769054    5.2270459 
H     0.1113292    2.1770645    3.3524947 
H     3.0602746    3.6824406    0.5518230 
H     4.6066005    4.1509420    2.4412094 
N     1.5162941   -2.1739709   -2.5021714 
C    -0.7127892   -2.8923296   -1.4059469 
C     2.3902371   -2.2907320   -0.0716560 
C    -2.8832274   -1.5194663    0.0396542 
C    -2.0788307   -0.5671621   -2.7005201 
C     3.4014673    0.5157519   -0.2989892 
C     2.2858851   -0.5452156    2.2946565 
C     0.3263165   -3.0008278   -2.5528802 
C     2.5765745   -2.5533347   -1.5891050 
C    -2.4689897   -1.4387035    1.5202216 
C    -3.6634977   -2.8197042   -0.2268412 
C    -2.9240562   -1.5623943   -3.5144288 
C    -0.9847611    0.0953577   -3.5630310 
C     3.1001155    0.9158857   -1.7583897 
C     4.8337746   -0.0226519   -0.1390084 
C     3.4031755   -1.4603371    2.8280238 
C     0.9563047   -0.8532298    3.0067205 
H    -1.5743863   -3.5350360   -1.6611888 
H    -0.3091526   -3.2692719   -0.4498140 
H     3.3240844   -2.5782587    0.4439919 
H     1.5877451   -2.9171592    0.3561043 
H    -3.5377571   -0.6568732   -0.1842325 
H    -2.7511195    0.2344151   -2.3450068 
H     3.3111432    1.4255852    0.3213822 
H     2.5555632    0.5064344    2.5030112 
H    -0.1927351   -2.8018928   -3.5074696 
H     0.6551693   -4.0552444   -2.6063175 
H     2.7571401   -3.6365449   -1.7193226 
H     3.5072851   -2.0550942   -1.9143222 
H     1.3070585   -1.1730809   -2.4778091 
H    -1.7820647   -2.2601671    1.7916627 
H    -1.9623159   -0.4854228    1.7477149 
H    -3.3616953   -1.5197604    2.1653423 
H    -3.0825135   -3.7087024    0.0741529 
H    -3.9605381   -2.9414059   -1.2799379 
H    -4.5870192   -2.8113766    0.3791306 
H    -2.3454507   -2.4483536   -3.8274885 
H    -3.8114132   -1.9050443   -2.9600900 
H    -3.2831340   -1.0642629   -4.4328467 
H    -0.3197560   -0.6444151   -4.0403256 
H    -0.3582424    0.7844533   -2.9677309 
H    -1.4558171    0.6794604   -4.3736631 
H     3.2619137    0.0832533   -2.4639879 
H     2.0587808    1.2673462   -1.8777729 
H     3.7733756    1.7364509   -2.0641243 
H     4.9782919   -0.9903115   -0.6492553 
H     5.1179707   -0.1411767    0.9179725 
H     5.5421098    0.6948527   -0.5908382 
H     3.1354382   -2.5265871    2.7290369 
H     4.3722952   -1.2997800    2.3310807 
H     3.5451301   -1.2570363    3.9043982 
H     0.6227458   -1.8874037    2.8064274 
H     0.1549988   -0.1691853    2.6809246 
H     1.0811306   -0.7455381    4.0986187 
