85
Energy =
C    -1.5171806    2.2581321   -0.4650709 
C    -0.8415922    2.3400592    0.7659257 
C     0.5838890    2.3868215    0.8342695 
H    -1.4196127    2.3068515    1.6975069 
Pd   -0.0603730    0.4038596   -0.0040499 
P     2.1089498   -0.5227328    0.2754112 
P    -1.3625644   -1.3732311   -0.8802891 
H    -0.9227487    2.4547807   -1.3697218 
H     1.1024364    2.8010728   -0.0422733 
C    -5.7501493    2.5818025   -1.1488784 
C    -5.2652149    2.5158074    0.1687088 
C    -3.8937842    2.4040659    0.4120677 
C    -2.9699979    2.3503785   -0.6594594 
C    -3.4738794    2.4492770   -1.9792850 
C    -4.8475433    2.5563632   -2.2229124 
H    -6.8254336    2.6691607   -1.3345822 
H    -5.9631404    2.5572195    1.0111156 
H    -3.5411076    2.3619196    1.4471170 
H    -2.7725149    2.4487633   -2.8202013 
H    -5.2140549    2.6312885   -3.2517964 
C     2.8088143    2.7444690    4.5089983 
C     1.5242508    2.1750492    4.5233642 
C     0.7861877    2.0670902    3.3404204 
C     1.3157524    2.5232591    2.1103265 
C     2.5968427    3.1234088    2.1188045 
C     3.3380201    3.2276098    3.3027639 
H     3.3871596    2.8220560    5.4351185 
H     1.0986095    1.8078463    5.4629560 
H    -0.2031286    1.5986287    3.3699814 
H     3.0084350    3.5259377    1.1859484 
H     4.3277133    3.6954731    3.2850557 
N     1.3899655   -2.0294122   -2.7229339 
C    -0.5892510   -2.9907708   -1.3875812 
C     2.5652013   -2.1869821   -0.4173194 
C    -2.6291767   -1.9944852    0.3681876 
C    -2.3877441   -0.8295498   -2.3565456 
C     3.3247424    0.6969226   -0.4898998 
C     2.5445158   -0.6828675    2.1026613 
C     0.2876959   -2.9722282   -2.6639754 
C     2.5874410   -2.3319490   -1.9632192 
C    -3.5791918   -0.8747286    0.8119004 
C    -1.9493682   -2.6483518    1.5837075 
C    -3.2837005   -1.9255276   -2.9581363 
C    -1.5302313   -0.1265367   -3.4271487 
C     2.8443611    1.1668971   -1.8800353 
C     4.8017615    0.2665795   -0.5239093 
C     3.8137699   -1.4835881    2.4455457 
C     1.3318451   -1.2483359    2.8633414 
H    -1.4204159   -3.7080728   -1.5274578 
H    -0.0108480   -3.3459264   -0.5186204 
H     1.8876001   -2.9218605    0.0510374 
H     3.5791037   -2.4113810   -0.0388049 
H    -3.2043895   -2.7686035   -0.1754317 
H    -3.0388629   -0.0578248   -1.9061715 
H     3.2350891    1.5499050    0.2063552 
H     2.6913760    0.3675247    2.4117078 
H    -0.3650750   -2.8037272   -3.5387135 
H     0.7093817   -3.9856270   -2.7976408 
H     2.8682358   -3.3776179   -2.1887171 
H     3.4115303   -1.7112803   -2.3574112 
H     1.0898277   -1.0558011   -2.6264598 
H    -3.0184081   -0.0804006    1.3346967 
H    -4.1207903   -0.4118918   -0.0284811 
H    -4.3307809   -1.2773463    1.5137260 
H    -1.3567141   -1.9072326    2.1448119 
H    -1.2864124   -3.4848587    1.3069419 
H    -2.7212193   -3.0498240    2.2637144 
H    -2.6937191   -2.7237625   -3.4411836 
H    -3.9424552   -2.3897919   -2.2049538 
H    -3.9333489   -1.4817770   -3.7336811 
H    -0.8975224   -0.8315069   -3.9910396 
H    -0.8716543    0.6395483   -2.9803389 
H    -2.1884591    0.3747316   -4.1585706 
H     3.0104432    0.4019749   -2.6571845 
H     1.7680257    1.4204072   -1.8781632 
H     3.4072545    2.0676038   -2.1828341 
H     4.9586995   -0.6443895   -1.1264963 
H     5.2096833    0.0915753    0.4832948 
H     5.4012029    1.0713136   -0.9862513 
H     3.6876888   -2.5591118    2.2317425 
H     4.7094013   -1.1276746    1.9139910 
H     4.0107994   -1.3860398    3.5278840 
H     1.1333941   -2.2979265    2.5806667 
H     0.4215365   -0.6589225    2.6620688 
H     1.5251260   -1.2219780    3.9499876 
