85
Energy =
C    -1.6012634    2.1759974   -0.6324684 
C    -0.7318574    2.4824673    0.4364079 
C     0.6693728    2.6013264    0.2433520 
H    -1.1362231    2.5774805    1.4514620 
Pd   -0.0365077    0.4824999   -0.1956836 
P     1.9782266   -0.6817016    0.3382850 
P    -1.3410483   -1.3598396   -0.9493188 
H    -1.2076233    2.3253155   -1.6481048 
H     1.0108171    2.8393424   -0.7749858 
C    -5.9036908    2.2670371   -0.4550992 
C    -5.1592396    2.2743846    0.7367006 
C    -3.7627010    2.2337717    0.6979130 
C    -3.0712814    2.1847390   -0.5357680 
C    -3.8361251    2.2091595   -1.7262856 
C    -5.2352865    2.2417380   -1.6882598 
H    -6.9974601    2.2961240   -0.4208690 
H    -5.6732125    2.3113671    1.7026476 
H    -3.2069043    2.2337053    1.6408475 
H    -3.3204645    2.2169896   -2.6923916 
H    -5.8047464    2.2601698   -2.6232148 
C     3.3739829    3.8694755    3.3451139 
C     2.2376334    3.1125286    3.6785292 
C     1.3490906    2.6992472    2.6810192 
C     1.5795845    3.0277832    1.3240707 
C     2.7166252    3.8046152    1.0068149 
C     3.6050203    4.2205103    2.0067166 
H     4.0706122    4.1890741    4.1267434 
H     2.0475339    2.8403973    4.7220148 
H     0.4813483    2.0895003    2.9525371 
H     2.9006662    4.0850979   -0.0358246 
H     4.4789820    4.8239683    1.7404140 
N     1.1015522   -1.3911229   -2.8188100 
C    -0.4441137   -2.8862145   -1.5333078 
C     2.6795498   -1.8539060   -0.9364898 
C    -2.5456980   -2.1122138    0.2945088 
C    -2.4874783   -0.8947561   -2.3712728 
C     3.4530103    0.4058119    0.7518033 
C     1.6289452   -1.8146416    1.7976824 
C     0.3646667   -2.6605741   -2.8254365 
C     2.5024715   -1.4667521   -2.4126949 
C    -3.5343692   -1.0604708    0.8159049 
C    -1.8433280   -2.8145501    1.4679447 
C    -3.3338417   -2.0573514   -2.9197625 
C    -1.7928532   -0.1256343   -3.5106452 
C     3.9288094    1.1297214   -0.5215417 
C     4.6295443   -0.2771628    1.4693184 
C     1.1931153   -0.9848085    3.0176989 
C     2.6723209   -2.8888134    2.1581706 
H    -1.1838552   -3.6941209   -1.6820143 
H     0.2071052   -3.2077184   -0.7027522 
H     3.7565136   -1.9670665   -0.7174196 
H     2.2314293   -2.8457610   -0.7556610 
H    -3.0977387   -2.8780648   -0.2825753 
H    -3.1667201   -0.1821337   -1.8690239 
H     3.0294443    1.1587246    1.4366268 
H     0.7355106   -2.3434873    1.4200001 
H    -0.3341860   -2.6495302   -3.6775959 
H     1.0371861   -3.5310128   -2.9909229 
H     3.0732521   -2.2123634   -3.0140065 
H     2.9580736   -0.4824781   -2.6064244 
H     1.0393381   -0.9417201   -3.7336589 
H    -2.9980799   -0.2736839    1.3732964 
H    -4.1109880   -0.5723837    0.0135756 
H    -4.2562538   -1.5334165    1.5050820 
H    -1.2965862   -2.0881372    2.0930082 
H    -1.1434855   -3.6025195    1.1417344 
H    -2.6018149   -3.2973112    2.1093543 
H    -2.7121025   -2.8231886   -3.4167941 
H    -3.9350575   -2.5530173   -2.1399012 
H    -4.0384689   -1.6675177   -3.6761131 
H    -1.2564631   -0.8039899   -4.1945954 
H    -1.0719812    0.6171690   -3.1324029 
H    -2.5545123    0.3986676   -4.1145826 
H     4.4889431    0.4479967   -1.1860805 
H     3.0898977    1.5626127   -1.0939173 
H     4.6088689    1.9525237   -0.2431090 
H     5.0207479   -1.1489922    0.9148682 
H     4.3614959   -0.6019180    2.4861917 
H     5.4565267    0.4492119    1.5641297 
H     2.0222074   -0.3716366    3.4124102 
H     0.3614331   -0.3064762    2.7571702 
H     0.8525036   -1.6534245    3.8279244 
H     3.5485448   -2.4674403    2.6726163 
H     3.0284995   -3.4510901    1.2790977 
H     2.2046085   -3.6161380    2.8460783 
