85
Energy =
C     0.4343282    2.3661646    1.2724074 
C    -0.7752468    2.5127124    0.5221625 
C    -1.9354522    1.8065090    0.8917979 
H    -0.7671326    3.1132909   -0.3965584 
Pd   -0.1097886    0.4127030    0.3466538 
P    -1.1743461   -1.2270047   -1.0150948 
P     1.8963559   -0.7688979    0.8388618 
H     0.3208148    2.1704883    2.3477820 
H    -1.9313949    1.3377849    1.8880465 
C     4.0996997    4.3537381    0.1862799 
C     3.2754804    3.8110494   -0.8140813 
C     2.0779904    3.1739035   -0.4709756 
C     1.6800113    3.0612652    0.8821424 
C     2.5145502    3.6201527    1.8764049 
C     3.7119977    4.2606332    1.5314612 
H     5.0380790    4.8488947   -0.0832129 
H     3.5708368    3.8790957   -1.8662585 
H     1.4588997    2.7341743   -1.2616448 
H     2.2165971    3.5513123    2.9283007 
H     4.3437188    4.6903611    2.3157550 
C    -5.8607393    2.0662825   -0.8349691 
C    -5.6205259    1.2535089    0.2844342 
C    -4.3387671    1.1913818    0.8400759 
C    -3.2640019    1.9256145    0.2809241 
C    -3.5312315    2.7651349   -0.8269120 
C    -4.8143273    2.8304477   -1.3784120 
H    -6.8633684    2.1197153   -1.2711525 
H    -6.4364467    0.6748727    0.7292643 
H    -4.1588630    0.5655005    1.7203758 
H    -2.7334884    3.3754016   -1.2602944 
H    -5.0033239    3.4867852   -2.2340500 
N     1.5988677   -0.0205004   -2.4547682 
C     2.8318772   -1.3699007   -0.6497582 
C    -0.0355487   -2.0327517   -2.2496070 
C     3.1686718    0.2085033    1.8204863 
C     1.4721846   -2.3684183    1.7350345 
C    -1.8669512   -2.6837831   -0.0419560 
C    -2.5680379   -0.4729756   -2.0241629 
C     2.8652268   -0.3527475   -1.8217731 
C     0.8601074   -1.0899893   -3.1114074 
C     4.6301167   -0.2699992    1.7442053 
C     2.7123847    0.4072756    3.2770121 
C     0.4325183   -2.1634968    2.8533325 
C     2.6795817   -3.1967845    2.2071776 
C    -2.1908054   -3.9705733   -0.8225032 
C    -3.0368410   -2.2096672    0.8369371 
C    -3.3865314   -1.4485812   -2.8864079 
C    -2.0397439    0.7065100   -2.8639785 
H     2.3635196   -2.3138564   -0.9743458 
H     3.8593941   -1.6250123   -0.3389532 
H    -0.6539151   -2.6502112   -2.9267134 
H     0.5757856   -2.7379481   -1.6587525 
H     3.1218010    1.1911505    1.3186278 
H     0.9775934   -2.9282130    0.9152532 
H    -1.0216779   -2.9143378    0.6315865 
H    -3.2312222   -0.0567801   -1.2445709 
H     3.5380845   -0.7609124   -2.5991356 
H     3.3254231    0.5907811   -1.4751338 
H     0.2242330   -0.6402712   -3.8930079 
H     1.5899418   -1.7240647   -3.6475990 
H     0.9941832    0.5187800   -1.8184364 
H     4.7707050   -1.2858928    2.1479303 
H     5.0266292   -0.2429881    0.7160576 
H     5.2527938    0.4164879    2.3455712 
H     2.8693092   -0.5045253    3.8783074 
H     1.6467074    0.6839757    3.3464325 
H     3.3035389    1.2160463    3.7402537 
H     0.8804206   -1.6984785    3.7457822 
H    -0.4015022   -1.5206067    2.5173559 
H     0.0152148   -3.1390203    3.1599317 
H     3.1963884   -2.7110350    3.0514962 
H     3.4130690   -3.3683992    1.4015704 
H     2.3312062   -4.1846314    2.5584719 
H    -3.0302830   -3.8405025   -1.5226169 
H    -1.3232871   -4.3447994   -1.3906693 
H    -2.4777407   -4.7591282   -0.1037461 
H    -3.9228732   -1.9437075    0.2344888 
H    -2.7512724   -1.3261354    1.4334864 
H    -3.3331031   -3.0122659    1.5346702 
H    -2.7573228   -1.9997939   -3.6073210 
H    -3.9405729   -2.1794252   -2.2772226 
H    -4.1298380   -0.8758264   -3.4692820 
H    -1.4930764    0.3580507   -3.7554714 
H    -1.3672510    1.3602971   -2.2808226 
H    -2.8889972    1.3181034   -3.2108503 
