85
Energy =
C    -1.2432700    2.3969763   -0.4441486 
C    -0.7236099    2.2944832    0.8546740 
C     0.6921817    2.2231747    1.0857191 
H    -1.4086041    2.2160129    1.7082251 
Pd    0.0576165    0.3916772    0.0064807 
P     2.1805129   -0.6415971    0.0921846 
P    -1.4143235   -1.2847040   -0.8202598 
H    -0.5214156    2.5998474   -1.2500451 
H     1.3279327    2.7560374    0.3658085 
C    -5.3135614    3.0104604   -1.6691380 
C    -5.0272628    2.7984636   -0.3091453 
C    -3.7101202    2.5993481    0.1123515 
C    -2.6451168    2.5965245   -0.8214244 
C    -2.9483794    2.8466934   -2.1826093 
C    -4.2671626    3.0450325   -2.6037289 
H    -6.3473090    3.1657428   -1.9941836 
H    -5.8376883    2.7974774    0.4268297 
H    -3.5093042    2.4532901    1.1775241 
H    -2.1335379    2.8861428   -2.9127438 
H    -4.4792722    3.2350743   -3.6607419 
C     2.3150777    1.8876993    5.0663956 
C     1.1024911    1.2552211    4.7460532 
C     0.5688875    1.3676719    3.4581132 
C     1.2348722    2.1145196    2.4576152 
C     2.4441562    2.7608602    2.8011253 
C     2.9796675    2.6459994    4.0903591 
H     2.7349034    1.7958028    6.0731897 
H     0.5753365    0.6649507    5.5027966 
H    -0.3637590    0.8460263    3.2135052 
H     2.9640763    3.3669465    2.0524123 
H     3.9165955    3.1565757    4.3359418 
N     1.1145018   -2.1710469   -2.8326777 
C    -0.8475234   -2.9716725   -1.3787016 
C     2.3893736   -2.3659370   -0.5887448 
C    -2.5741438   -1.7996249    0.5750534 
C    -2.5337482   -0.6617329   -2.1903218 
C     3.4516627    0.3485536   -0.8993470 
C     2.8868638   -0.8389856    1.8218257 
C    -0.0478696   -3.0333679   -2.7029153 
C     2.3253057   -2.5521081   -2.1261296 
C    -3.4893547   -0.6511678    1.0193354 
C    -1.7736780   -2.3469620    1.7704122 
C    -3.5834979   -1.6746285   -2.6762431 
C    -1.7165627   -0.0605597   -3.3502875 
C     4.0582456    1.5338932   -0.1288288 
C     2.8607979    0.8488823   -2.2337781 
C     4.3319951   -1.3677257    1.8786551 
C     1.9391659   -1.7007391    2.6749362 
H    -1.7562953   -3.5960427   -1.4698555 
H    -0.2616325   -3.3926942   -0.5446897 
H     1.6459419   -2.9990989   -0.0764398 
H     3.3840545   -2.7061304   -0.2461813 
H    -3.1919130   -2.6159168    0.1538005 
H    -3.0579777    0.1771556   -1.6960748 
H     4.2562268   -0.3827714   -1.1118797 
H     2.8652717    0.1895771    2.2234743 
H    -0.7354966   -2.8208691   -3.5408875 
H     0.2888696   -4.0760881   -2.8497415 
H     2.5053140   -3.6229539   -2.3348166 
H     3.1790702   -2.0163419   -2.5799950 
H     0.8770457   -1.1840819   -2.6988660 
H    -2.8883151    0.1840649    1.4191054 
H    -4.1179728   -0.2616017    0.2026834 
H    -4.1607982   -0.9987136    1.8243117 
H    -1.1620841   -1.5462600    2.2224930 
H    -1.1005938   -3.1761219    1.4959358 
H    -2.4674064   -2.7224918    2.5430160 
H    -3.1200950   -2.5285989   -3.2002034 
H    -4.1995655   -2.0684141   -1.8499698 
H    -4.2664495   -1.1813973   -3.3909170 
H    -1.2164672   -0.8334847   -3.9567950 
H    -0.9434539    0.6354815   -2.9785996 
H    -2.3870572    0.5025060   -4.0224174 
H     3.3169247    2.3372112    0.0035463 
H     4.4490513    1.2622665    0.8637306 
H     4.8938149    1.9531615   -0.7166018 
H     2.0020174    1.5207911   -2.0490134 
H     2.5231077    0.0383337   -2.8982471 
H     3.6269235    1.4227449   -2.7846785 
H     4.3904759   -2.4324294    1.5929245 
H     5.0265436   -0.8010593    1.2366196 
H     4.7009755   -1.2891365    2.9166508 
H     1.9309157   -2.7534260    2.3399214 
H     0.9081532   -1.3159964    2.6398253 
H     2.2707313   -1.6846752    3.7274535 
