85
Energy =
C     0.0016784    2.0588369    1.9689095 
C    -0.6497348    2.4487325    0.7890920 
C    -1.8702569    1.8335334    0.3580477 
H    -0.1764193    3.1954297    0.1395970 
Pd   -0.2631092    0.3015891    0.3349990 
P    -1.6318955   -1.2930374   -0.7686681 
P     1.9473076   -0.6144323    0.2981375 
H    -0.5549350    1.4109596    2.6629031 
H    -2.5487667    1.4732790    1.1429359 
C     3.5187318    3.8176397    3.7010178 
C     2.8185926    2.8027290    4.3713274 
C     1.6701651    2.2477278    3.7963796 
C     1.2008754    2.6860702    2.5347123 
C     1.9020074    3.7333329    1.8866932 
C     3.0489775    4.2867249    2.4617304 
H     4.4172645    4.2544217    4.1484735 
H     3.1653944    2.4476050    5.3470189 
H     1.1230492    1.4607814    4.3260013 
H     1.5501170    4.1185940    0.9254168 
H     3.5779676    5.0949535    1.9463502 
C    -3.8072064    2.9348830   -3.3365912 
C    -2.4081833    3.0096484   -3.2287982 
C    -1.7744587    2.6654396   -2.0301964 
C    -2.5221862    2.2361087   -0.9082350 
C    -3.9307845    2.1920323   -1.0255746 
C    -4.5660005    2.5325051   -2.2272324 
H    -4.3020793    3.1993097   -4.2764695 
H    -1.8090389    3.3331069   -4.0863739 
H    -0.6811852    2.7105391   -1.9688014 
H    -4.5337109    1.9023149   -0.1572219 
H    -5.6580733    2.4917782   -2.2943575 
N     0.5536456   -1.4330932   -2.7235858 
C     2.5368205   -1.5002763   -1.2401949 
C    -1.8152430   -0.8498124   -2.5703682 
C     3.1594669    0.8258832    0.4311049 
C     2.5196745   -1.7685785    1.6680379 
C    -1.1114258   -3.1038773   -0.6464350 
C    -3.4138209   -1.1623057   -0.1711396 
C     1.9415581   -1.0024445   -2.5735310 
C    -0.4471123   -0.4518561   -3.1378631 
C     2.9581594    1.8261850   -0.7218059 
C     4.6407065    0.4413443    0.5828164 
C     1.7741858   -3.1104566    1.6669869 
C     2.3933752   -1.0787904    3.0360231 
C    -1.5433560   -3.9962467   -1.8233899 
C    -1.5404513   -3.7236781    0.6958137 
C    -3.5757481   -1.1968753    1.3616465 
C    -4.4185042   -2.0932659   -0.8750221 
H     2.3025839   -2.5726279   -1.1245164 
H     3.6392304   -1.4157648   -1.2504415 
H    -2.5317195   -0.0119210   -2.6400022 
H    -2.2512096   -1.7040113   -3.1171207 
H     2.8374569    1.3234829    1.3622821 
H     3.5877245   -1.9592678    1.4505381 
H    -0.0126796   -3.0186275   -0.6671247 
H    -3.6388763   -0.1341450   -0.5047093 
H     2.5841090   -1.3680324   -3.3998488 
H     1.9767423    0.0979926   -2.6236189 
H    -0.1576324    0.5161916   -2.6938927 
H    -0.5133980   -0.2993699   -4.2371646 
H     0.4915378   -2.2893958   -3.2783730 
H     3.3834227    1.4472923   -1.6677803 
H     1.8885173    2.0510113   -0.8881318 
H     3.4738751    2.7729388   -0.4854903 
H     5.0248967   -0.1019471   -0.2991646 
H     4.8302829   -0.1727271    1.4783190 
H     5.2420038    1.3623806    0.6850060 
H     0.7122739   -2.9662664    1.9192879 
H     1.8338746   -3.6359406    0.6989142 
H     2.2141230   -3.7761702    2.4303396 
H     1.3386791   -0.8195086    3.2405117 
H     2.9910964   -0.1556459    3.1047376 
H     2.7349096   -1.7616139    3.8339146 
H    -2.6397290   -4.0626086   -1.9177004 
H    -1.1384801   -3.6484245   -2.7871412 
H    -1.1623738   -5.0202956   -1.6574623 
H    -2.6153503   -3.9681000    0.7030106 
H    -1.3352108   -3.0580800    1.5507351 
H    -0.9864717   -4.6646221    0.8595821 
H    -3.6227907   -2.2263511    1.7500944 
H    -2.7467403   -0.6797664    1.8770864 
H    -4.5189953   -0.6965519    1.6455464 
H    -4.2850288   -3.1465716   -0.5761821 
H    -4.3512869   -2.0315891   -1.9741226 
H    -5.4454015   -1.8003374   -0.5902347 
