85
Energy =
C     0.3751801    2.2789878    1.4572169 
C    -0.8439744    2.4490192    0.7300709 
C    -1.9806538    1.6733625    1.0337215 
H    -0.8504053    3.1083111   -0.1471884 
Pd   -0.1631914    0.3760380    0.4087384 
P    -1.3431024   -1.0883690   -1.0634222 
P     1.8626788   -0.8195945    0.8176683 
H     0.2860901    2.0135568    2.5199996 
H    -1.9830182    1.1500406    2.0025190 
C     3.9827168    4.3635092    0.3636301 
C     3.1582749    3.8172591   -0.6350075 
C     1.9801831    3.1492481   -0.2851035 
C     1.6021557    3.0094476    1.0721387 
C     2.4354846    3.5718678    2.0636901 
C     3.6143378    4.2430851    1.7118958 
H     4.9069953    4.8823797    0.0900141 
H     3.4400045    3.9063682   -1.6893506 
H     1.3601509    2.6983620   -1.0695810 
H     2.1523791    3.4837100    3.1179275 
H     4.2467619    4.6757365    2.4940121 
C    -5.8205979    1.7912309   -0.8897188 
C    -5.5625027    0.8743574    0.1422458 
C    -4.3155707    0.8685559    0.7764246 
C    -3.2940453    1.7656171    0.3814376 
C    -3.5827336    2.7089300   -0.6327683 
C    -4.8312838    2.7164911   -1.2630594 
H    -6.7953871    1.7988459   -1.3877222 
H    -6.3378422    0.1681445    0.4564138 
H    -4.1184136    0.1539545    1.5831017 
H    -2.8292002    3.4426130   -0.9334190 
H    -5.0381845    3.4524312   -2.0467195 
N     1.4900228   -0.3386180   -2.5501752 
C     2.6673230   -1.6069831   -0.6594894 
C    -0.2787161   -2.1906815   -2.1168256 
C     3.2621773    0.1788608    1.5960453 
C     1.4473239   -2.3093746    1.8922599 
C    -2.6290983   -2.2293011   -0.2630630 
C    -2.3697904   -0.0920906   -2.2936210 
C     2.7453683   -0.6870046   -1.9057893 
C     0.6796627   -1.4282605   -3.0788267 
C     4.6913240   -0.3419778    1.3544742 
C     3.0120080    0.4372480    3.0920282 
C     0.6252532   -1.9401174    3.1424807 
C     2.6395381   -3.2186196    2.2398545 
C    -2.3608330   -2.4093760    1.2397645 
C    -2.8155873   -3.5959771   -0.9472786 
C    -3.0128084   -0.9253016   -3.4156105 
C    -1.6144156    1.1313153   -2.8446481 
H     2.1033403   -2.5238349   -0.8966778 
H     3.6789151   -1.9352816   -0.3669472 
H    -0.9376716   -2.8379702   -2.7213520 
H     0.2654614   -2.8545330   -1.4231114 
H     3.1699478    1.1452880    1.0691334 
H     0.7778818   -2.8629320    1.2022938 
H    -3.5606420   -1.6426498   -0.3776585 
H    -3.1816757    0.2872259   -1.6479351 
H     3.3845456   -1.1925236   -2.6540421 
H     3.2615531    0.2545123   -1.6419113 
H     0.0674802   -1.0366331   -3.9116756 
H     1.3645444   -2.1662719   -3.5353577 
H     0.9388561    0.3067185   -1.9715444 
H     4.8497420   -1.3553543    1.7606073 
H     4.9635740   -0.3455757    0.2865256 
H     5.4000942    0.3346577    1.8646067 
H     3.2275229   -0.4596048    3.6971407 
H     1.9750049    0.7491776    3.2978192 
H     3.6810816    1.2432735    3.4383433 
H     1.2643583   -1.5400901    3.9448941 
H    -0.1491079   -1.1875392    2.9127426 
H     0.1223899   -2.8403015    3.5373218 
H     3.3356501   -2.7209780    2.9357261 
H     3.2060713   -3.5349597    1.3484089 
H     2.2693905   -4.1311757    2.7407846 
H    -1.4533397   -3.0121085    1.4135750 
H    -2.2282221   -1.4418762    1.7518624 
H    -3.2067368   -2.9387390    1.7133172 
H    -1.9156047   -4.2259344   -0.8390251 
H    -3.0501894   -3.5125134   -2.0203604 
H    -3.6528583   -4.1308496   -0.4644835 
H    -2.2604893   -1.3697749   -4.0901433 
H    -3.6510885   -1.7335567   -3.0231194 
H    -3.6558203   -0.2687852   -4.0285770 
H    -0.8330419    0.8561689   -3.5719348 
H    -1.1356551    1.7074485   -2.0338018 
H    -2.3273008    1.8006382   -3.3568307 
