85
Energy =
C    -0.9881001    2.3742158   -1.1912741 
C    -0.6456449    2.6294899    0.1514797 
C     0.7266363    2.5673608    0.5579508 
H    -1.4328402    2.7764962    0.9008700 
Pd    0.0519548    0.5770909   -0.1894808 
P     2.0317135   -0.6350329    0.2696194 
P    -1.3841279   -1.2484016   -0.7013231 
H    -0.1633673    2.3885678   -1.9200023 
H     1.4761921    2.8864870   -0.1775045 
C    -4.8515744    2.5153575   -3.0646334 
C    -3.7020416    2.2020566   -3.8076168 
C    -2.4520587    2.1765522   -3.1804881 
C    -2.3231585    2.4486751   -1.7962581 
C    -3.4876286    2.7860407   -1.0678840 
C    -4.7363931    2.8169052   -1.6972257 
H    -5.8315174    2.5405403   -3.5518593 
H    -3.7813924    1.9859978   -4.8779529 
H    -1.5539559    1.9399936   -3.7627838 
H    -3.4187331    3.0279139   -0.0031524 
H    -5.6274273    3.0829096   -1.1192874 
C     1.9569841    2.9884462    4.6674810 
C     0.6792045    2.4871708    4.3673309 
C     0.2726989    2.3422021    3.0368258 
C     1.1301290    2.7093039    1.9714591 
C     2.4076043    3.2239500    2.2909178 
C     2.8191567    3.3560854    3.6235761 
H     2.2757409    3.0953514    5.7092333 
H     0.0010342    2.1970905    5.1766265 
H    -0.7121264    1.9136172    2.8192923 
H     3.0763523    3.5402252    1.4818098 
H     3.8121741    3.7591465    3.8481573 
N     1.0043008   -0.5768279   -2.7745108 
C    -0.8372092   -2.1837090   -2.2180766 
C     2.3293879   -1.9067343   -1.0614673 
C    -1.3403565   -2.5663801    0.6407082 
C    -3.1659540   -0.7562625   -1.0521617 
C     3.5443130    0.4814644    0.2563352 
C     2.1049464   -1.6396302    1.8626159 
C    -0.1841057   -1.2770170   -3.2747025 
C     2.1883779   -1.4098555   -2.5176071 
C    -2.2482460   -3.7873893    0.4141703 
C    -1.5152504   -1.9712004    2.0523945 
C    -3.8396677   -0.2552175    0.2381043 
C    -4.0522300   -1.7586445   -1.8117850 
C     3.6358796    1.2992251   -1.0496447 
C     4.8891005   -0.2009442    0.5619552 
C     2.3058211   -0.7022376    3.0671726 
C     3.0524882   -2.8536125    1.8831471 
H    -1.6926228   -2.7158189   -2.6664466 
H    -0.1286658   -2.9638433   -1.8901972 
H     1.6163174   -2.7232653   -0.8501603 
H     3.3377582   -2.3368080   -0.9250880 
H    -0.2873665   -2.9038822    0.5498426 
H    -3.0226687    0.1189323   -1.7104031 
H     3.3095176    1.1773473    1.0828667 
H     1.0746120   -2.0291608    1.9226024 
H    -0.9102172   -0.5100758   -3.5982019 
H     0.0489380   -1.9028945   -4.1657793 
H     2.2100983   -2.2989942   -3.1857221 
H     3.0778420   -0.8141008   -2.7715219 
H     1.2497944    0.1720415   -3.4244984 
H    -3.3100004   -3.5280711    0.5607402 
H    -2.1323708   -4.2192824   -0.5942161 
H    -1.9978532   -4.5750932    1.1474619 
H    -2.5709433   -1.7423485    2.2669520 
H    -0.9340339   -1.0394710    2.1768530 
H    -1.1748571   -2.6992643    2.8101539 
H    -4.1271539   -1.0933960    0.8955017 
H    -3.1779012    0.4223544    0.8067272 
H    -4.7566495    0.3022218   -0.0166625 
H    -4.2321669   -2.6841303   -1.2420914 
H    -3.6321054   -2.0317429   -2.7943249 
H    -5.0330494   -1.2874319   -2.0027172 
H     4.1478132    0.7258021   -1.8414652 
H     2.6438539    1.5960678   -1.4305483 
H     4.2286626    2.2147654   -0.8775598 
H     5.1246474   -0.9953253   -0.1686416 
H     4.9207142   -0.6366230    1.5721397 
H     5.6978986    0.5496391    0.5010594 
H     3.3327796   -0.3018984    3.1135143 
H     1.6101344    0.1522145    3.0394794 
H     2.1244192   -1.2588303    4.0032464 
H     4.1110500   -2.5698877    1.7748077 
H     2.8103121   -3.5878450    1.0968045 
H     2.9463792   -3.3687339    2.8549416 
