85
Energy =
C     0.3626482    2.2047139    1.3669996 
C    -0.8597309    2.3780784    0.6433712 
C    -2.0231799    1.6687504    0.9863834 
H    -0.8593960    3.0274427   -0.2413016 
Pd   -0.1619284    0.2873177    0.3733626 
P    -1.2583319   -1.2445363   -1.0949717 
P     1.8954230   -0.8401737    0.7832109 
H     0.2706697    1.9671551    2.4361725 
H    -2.0227950    1.1450454    1.9544806 
C     3.9457850    4.3272079    0.2615765 
C     3.1348319    3.7552310   -0.7335777 
C     1.9645665    3.0747052   -0.3809025 
C     1.5824891    2.9459507    0.9757676 
C     2.4008968    3.5362028    1.9639269 
C     3.5712962    4.2205959    1.6093824 
H     4.8636376    4.8561454   -0.0143559 
H     3.4201375    3.8344936   -1.7877404 
H     1.3546074    2.6083583   -1.1638787 
H     2.1132296    3.4577505    3.0177251 
H     4.1923957    4.6740003    2.3888078 
C    -5.9494763    2.1329997   -0.6988773 
C    -5.7390571    1.3070583    0.4161300 
C    -4.4545159    1.1711008    0.9529503 
C    -3.3489584    1.8474756    0.3831316 
C    -3.5868102    2.7075672   -0.7170645 
C    -4.8699305    2.8412018   -1.2543434 
H    -6.9532915    2.2416336   -1.1218567 
H    -6.5792799    0.7735764    0.8719844 
H    -4.2975430    0.5346398    1.8299930 
H    -2.7661129    3.2822804   -1.1548102 
H    -5.0339040    3.5101389   -2.1053791 
N     1.5178359   -0.2202043   -2.5704339 
C     2.7450050   -1.5191732   -0.7229657 
C    -0.1439337   -2.1799386   -2.2591953 
C     3.2374227    0.1747316    1.6311818 
C     1.5355468   -2.3908665    1.7836262 
C    -2.3501012   -2.6273710   -0.4267173 
C    -2.4284698   -0.2831036   -2.2205652 
C     2.7828476   -0.5444609   -1.9306827 
C     0.7638129   -1.3113603   -3.1760784 
C     4.6897269   -0.2997782    1.4353845 
C     2.9161633    0.3981371    3.1195964 
C     0.5673887   -2.1290462    2.9529216 
C     2.7722273   -3.1964129    2.2185138 
C    -3.4483472   -2.0612137    0.4847941 
C    -1.5663016   -3.7414501    0.2851345 
C    -3.1108530   -1.1278401   -3.3100346 
C    -1.7578698    0.9674068   -2.8196736 
H     2.2295831   -2.4532961   -0.9996539 
H     3.7713886   -1.8065975   -0.4380650 
H    -0.7849576   -2.8284421   -2.8854105 
H     0.4560652   -2.8532288   -1.6250322 
H     3.1418745    1.1477069    1.1184595 
H     0.9890984   -2.9869388    1.0279434 
H    -2.8185574   -3.0615222   -1.3300425 
H    -3.2004363    0.0686990   -1.5112818 
H     3.4462415   -0.9892869   -2.6960042 
H     3.2576183    0.4055255   -1.6226567 
H     0.1332497   -0.8974684   -3.9835036 
H     1.4856880   -1.9820659   -3.6772152 
H     0.9273036    0.3573316   -1.9582894 
H     4.8675315   -1.3129375    1.8320876 
H     4.9994983   -0.2772994    0.3778847 
H     5.3573009    0.3920096    1.9796873 
H     3.1220829   -0.5051514    3.7185458 
H     1.8640188    0.6846106    3.2830663 
H     3.5515227    1.2104732    3.5120046 
H     1.0571553   -1.5917473    3.7804033 
H    -0.3044510   -1.5325036    2.6258581 
H     0.1980018   -3.0896568    3.3538514 
H     3.3468714   -2.6708453    2.9991240 
H     3.4492050   -3.4156541    1.3758760 
H     2.4463020   -4.1627014    2.6437139 
H    -3.0036219   -1.5576276    1.3621006 
H    -4.0958111   -1.3371132   -0.0352562 
H    -4.0902871   -2.8807954    0.8530939 
H    -1.1205982   -3.3750096    1.2235448 
H    -0.7699820   -4.1756476   -0.3419142 
H    -2.2596500   -4.5598253    0.5472918 
H    -2.3851844   -1.5040261   -4.0524231 
H    -3.6658653   -1.9876785   -2.8991538 
H    -3.8387835   -0.4987733   -3.8526993 
H    -1.0422390    0.7163956   -3.6188136 
H    -1.2178511    1.5460871   -2.0506961 
H    -2.5297989    1.6228375   -3.2575284 
