85
Energy =
C     0.1540243    1.9523820    1.8814810 
C    -0.9274079    2.2006207    0.9963644 
C    -2.0840014    1.3899778    0.9904241 
H    -0.8288422    2.9969918    0.2489105 
Pd   -0.1802399    0.1838564    0.4433691 
P    -1.3284768   -1.2918585   -1.0415099 
P     1.9580894   -0.7978379    0.7248868 
H    -0.0805392    1.3999559    2.8022787 
H    -2.2587942    0.7665122    1.8798726 
C     3.6068444    4.5127929    2.1919450 
C     3.1812548    3.7483751    3.2888264 
C     2.0578582    2.9206302    3.1754215 
C     1.3382316    2.8302035    1.9608002 
C     1.7678632    3.6253154    0.8722114 
C     2.8877932    4.4547245    0.9866470 
H     4.4859929    5.1593355    2.2779562 
H     3.7209367    3.8037953    4.2398080 
H     1.7212595    2.3459801    4.0439278 
H     1.2329342    3.5823415   -0.0821141 
H     3.2051979    5.0578399    0.1296568 
C    -5.6319841    2.0312754   -1.3586568 
C    -5.6333469    1.1249408   -0.2875450 
C    -4.4733566    0.9388566    0.4741521 
C    -3.2833969    1.6442457    0.1759148 
C    -3.3083768    2.5766611   -0.8888989 
C    -4.4677920    2.7639381   -1.6474564 
H    -6.5367905    2.1786526   -1.9568339 
H    -6.5425769    0.5676570   -0.0400248 
H    -4.4843885    0.2428002    1.3207708 
H    -2.4115861    3.1507815   -1.1402430 
H    -4.4661278    3.4870130   -2.4695709 
N     1.7084605   -1.4380494   -2.6040028 
C     2.4732642   -2.2751196   -0.2927843 
C    -0.4626155   -2.6799647   -1.9246899 
C     3.3411627    0.4516915    0.5142957 
C     2.2048713   -1.5470925    2.4402111 
C    -2.7570597   -2.1462933   -0.1470838 
C    -2.1284484   -0.2650514   -2.4017464 
C     2.7523975   -2.0418456   -1.7974182 
C     0.5882350   -2.2714959   -2.9932026 
C     3.2176799    1.2083189   -0.8233969 
C     4.7528766   -0.1156389    0.7393820 
C     1.0974519   -2.5695286    2.7495979 
C     2.3181573   -0.5092465    3.5632059 
C    -2.3665848   -2.4833041    1.3028284 
C    -3.3534630   -3.3847900   -0.8405868 
C    -2.7934562   -1.0425913   -3.5510078 
C    -1.1579977    0.8142954   -2.9231571 
H     1.6921049   -3.0398987   -0.1485142 
H     3.3902320   -2.6705930    0.1836232 
H    -1.2490025   -3.2698852   -2.4289440 
H    -0.0256965   -3.3360473   -1.1520313 
H     3.1211310    1.1786579    1.3172552 
H     3.1698780   -2.0831330    2.3579501 
H    -3.5219426   -1.3481973   -0.1286822 
H    -2.9264093    0.2559914   -1.8443908 
H     2.9957907   -3.0219584   -2.2480766 
H     3.6691151   -1.4340593   -1.8948794 
H     0.0608330   -1.7716620   -3.8244726 
H     1.0006744   -3.2050998   -3.4193676 
H     1.4229389   -0.5164090   -2.2627847 
H     3.5514920    0.6019623   -1.6811397 
H     2.1764491    1.5260482   -1.0097913 
H     3.8437547    2.1160334   -0.7908750 
H     5.0342522   -0.8452976   -0.0397682 
H     4.8587165   -0.6030944    1.7234126 
H     5.4873042    0.7083697    0.6989355 
H     0.1225760   -2.0636168    2.8549172 
H     1.0013078   -3.3444439    1.9704024 
H     1.3191052   -3.0822118    3.7020771 
H     1.3624176    0.0212188    3.7062127 
H     3.1065596    0.2379007    3.3783270 
H     2.5565755   -1.0225738    4.5115345 
H    -1.5773788   -3.2547453    1.3361366 
H    -1.9966090   -1.5958665    1.8446650 
H    -3.2422675   -2.8800024    1.8468669 
H    -2.6504399   -4.2355000   -0.8222119 
H    -3.6435599   -3.1986275   -1.8862778 
H    -4.2615366   -3.6985492   -0.2953814 
H    -2.0696848   -1.6362379   -4.1350963 
H    -3.5880801   -1.7164758   -3.1948567 
H    -3.2625310   -0.3223469   -4.2449642 
H    -0.3656991    0.3922695   -3.5652193 
H    -0.6717611    1.3544490   -2.0896447 
H    -1.7157972    1.5505816   -3.5281621 
