85
Energy =
C    -1.4390861    2.3317646   -0.6499982 
C    -0.6450308    2.5345946    0.5082196 
C     0.7601593    2.6504238    0.4391965 
H    -1.1346546    2.5414748    1.4900410 
Pd   -0.0095233    0.5782869   -0.2987596 
P     1.9290377   -0.5906134    0.5102757 
P    -1.2654470   -1.1471254   -1.3580200 
H    -1.0174968    2.6653931   -1.6094070 
H     1.1937626    2.8990171   -0.5406489 
C    -5.7422850    2.2474411   -0.5122170 
C    -4.9997106    1.7432243    0.5694817 
C    -3.6022164    1.7689374    0.5361387 
C    -2.9128124    2.2939022   -0.5831457 
C    -3.6733217    2.8119576   -1.6552510 
C    -5.0735474    2.7887204   -1.6201517 
H    -6.8364374    2.2234318   -0.4868117 
H    -5.5149100    1.3237667    1.4398887 
H    -3.0362979    1.3506463    1.3751463 
H    -3.1575258    3.2403495   -2.5212043 
H    -5.6446999    3.1980228   -2.4598504 
C     3.3126504    3.6829319    3.7512023 
C     2.0443190    3.1308465    3.9988711 
C     1.2033372    2.7863548    2.9358323 
C     1.6126297    2.9817690    1.5954011 
C     2.8863722    3.5541519    1.3643176 
C     3.7279228    3.8991975    2.4288545 
H     3.9683678    3.9508758    4.5857665 
H     1.7095931    2.9687378    5.0286746 
H     0.2246167    2.3472030    3.1529365 
H     3.2116337    3.7377106    0.3335875 
H     4.7073587    4.3440929    2.2256895 
N     1.8986775   -2.0355626   -2.2629404 
C    -0.5229081   -2.0824463   -2.7887276 
C     2.3787744   -2.3621675    0.1292818 
C    -1.6599737   -2.4457356   -0.0495916 
C    -2.8811434   -0.5816340   -2.1405666 
C     3.4673826    0.4068391    0.0897801 
C     1.8468020   -0.5719570    2.4027419 
C     0.7410326   -2.8952011   -2.5028678 
C     2.8613910   -2.5800017   -1.3109558 
C    -2.1201176   -3.8339851   -0.5318726 
C    -2.6205110   -1.8442109    0.9936308 
C    -3.9134053   -1.6759098   -2.4641613 
C    -2.5669174    0.2620730   -3.3916957 
C     3.4961613    0.8398907   -1.3893953 
C     4.8149155   -0.1757180    0.5498308 
C     2.7463185   -1.5736398    3.1499200 
C     0.3885213   -0.7125122    2.8770188 
H    -0.3098807   -1.3366484   -3.5739581 
H    -1.3190715   -2.7431435   -3.1780793 
H     3.1673198   -2.6736639    0.8350296 
H     1.4940122   -2.9857325    0.3547427 
H    -0.6745599   -2.5669827    0.4408027 
H    -3.3191131    0.0835355   -1.3781920 
H     3.2833320    1.3143604    0.6904087 
H     2.1853532    0.4530039    2.6421271 
H     0.9070083   -3.6019036   -3.3444709 
H     0.5878861   -3.5282261   -1.6115758 
H     3.0664645   -3.6646460   -1.4610914 
H     3.8224161   -2.0615826   -1.4570209 
H     2.3517750   -1.7876377   -3.1452322 
H    -3.1230607   -3.8079831   -0.9834868 
H    -1.4294557   -4.2830750   -1.2642284 
H    -2.1664013   -4.5155763    0.3366014 
H    -3.6310384   -1.6919071    0.5776204 
H    -2.2534631   -0.8707335    1.3587346 
H    -2.7105579   -2.5231839    1.8596466 
H    -3.5149480   -2.4490198   -3.1446952 
H    -4.2968314   -2.1712403   -1.5586337 
H    -4.7763201   -1.2074602   -2.9703280 
H    -2.2735750   -0.3741498   -4.2448615 
H    -1.7574166    0.9907941   -3.2107903 
H    -3.4680039    0.8236684   -3.6899865 
H     3.8226765    0.0246604   -2.0555153 
H     2.5029878    1.1749592   -1.7363249 
H     4.2103315    1.6738879   -1.5137962 
H     5.0479491   -1.1421388    0.0702295 
H     4.8569133   -0.3125291    1.6417667 
H     5.6226601    0.5272999    0.2772822 
H     2.3919734   -2.6111003    3.0192215 
H     3.8016706   -1.5276807    2.8382624 
H     2.7115421   -1.3503399    4.2313031 
H    -0.0079946   -1.7224660    2.6685225 
H    -0.2720444    0.0192342    2.3785005 
H     0.3277068   -0.5502620    3.9679792 
