85
Energy =
C    -1.7677218    1.9183807   -0.1806082 
C    -0.9663456    2.1196597    0.9671351 
C     0.4121026    2.4249447    0.8771454 
H    -1.4136859    1.9759580    1.9575620 
Pd   -0.0637119    0.3606689   -0.0403816 
P     2.1537585   -0.4766975    0.1841427 
P    -1.1526864   -1.2539455   -1.4118570 
H    -1.3922373    2.3317940   -1.1275943 
H     0.7682750    2.8370220   -0.0778961 
C    -6.0569553    1.5652614   -0.0781744 
C    -5.3085440    1.2663930    1.0732185 
C    -3.9132816    1.3549355    1.0512799 
C    -3.2314723    1.7525327   -0.1235107 
C    -4.0002321    2.0650437   -1.2690123 
C    -5.3971111    1.9671377   -1.2490949 
H    -7.1488203    1.4905401   -0.0589967 
H    -5.8175386    0.9559997    1.9914190 
H    -3.3497314    1.1003988    1.9545981 
H    -3.4929659    2.4054304   -2.1791902 
H    -5.9727265    2.2149131   -2.1467640 
C     2.8194414    3.6326787    4.2359366 
C     1.6518437    2.8814050    4.4535769 
C     0.8698247    2.4625423    3.3727405 
C     1.2337017    2.7917638    2.0452330 
C     2.4031903    3.5615903    1.8443194 
C     3.1908728    3.9730941    2.9267001 
H     3.4318863    3.9551391    5.0838871 
H     1.3542659    2.6156017    5.4730464 
H    -0.0259118    1.8631987    3.5648443 
H     2.6850853    3.8536516    0.8260334 
H     4.0914407    4.5695267    2.7484469 
N     0.8303929   -3.5026146   -0.0133549 
C    -0.2146340   -2.6866136   -2.1595825 
C     2.7141556   -1.9946573   -0.7504980 
C    -2.6095877   -2.1569971   -0.6062497 
C    -1.7988085   -0.3920418   -2.9575921 
C     3.3574049    0.8193954   -0.4651550 
C     2.6856096   -0.9196268    1.9468970 
C     0.1000026   -3.8660437   -1.2275297 
C     2.2755641   -3.3535424   -0.1845845 
C    -4.0078182   -1.6091080   -0.9331982 
C    -2.3602872   -2.2259693    0.9129251 
C    -2.3808145   -1.3167836   -4.0437840 
C    -0.7123357    0.5257785   -3.5504628 
C     2.8703577    1.3716907   -1.8186763 
C     4.8296941    0.3744736   -0.5579923 
C     1.4359538   -1.3477758    2.7403939 
C     3.5006399    0.1472703    2.6950697 
H     0.6957513   -2.2807351   -2.6301361 
H    -0.8435964   -3.0713171   -2.9812695 
H     3.8178144   -1.9721467   -0.7417650 
H     2.4100957   -1.8704952   -1.8027630 
H    -2.5502481   -3.1813543   -1.0199756 
H    -2.6122708    0.2377482   -2.5537555 
H     3.2750471    1.6189714    0.2934849 
H     3.3387656   -1.8026914    1.8142417 
H     0.6453085   -4.6313434   -1.8274525 
H    -0.8479023   -4.3371716   -0.9165192 
H     2.7436618   -3.4952919    0.8042627 
H     2.6996139   -4.1447458   -0.8456475 
H     0.6592733   -4.2196149    0.6955350 
H    -4.1362495   -0.5741352   -0.5910794 
H    -4.2395560   -1.6497541   -2.0084731 
H    -4.7585344   -2.2276131   -0.4096440 
H    -2.4327739   -1.2186473    1.3599388 
H    -1.3566703   -2.6231312    1.1393085 
H    -3.1172095   -2.8710175    1.3936515 
H    -1.5817886   -1.8319193   -4.6046507 
H    -3.0653420   -2.0814107   -3.6407457 
H    -2.9499054   -0.7110787   -4.7712617 
H     0.1444210   -0.0581253   -3.9326900 
H    -0.3242111    1.2396322   -2.8040318 
H    -1.1249015    1.1019264   -4.3977633 
H     2.8931387    0.5941024   -2.6034399 
H     1.8381244    1.7567650   -1.7594042 
H     3.5278401    2.1953255   -2.1494718 
H     4.9971152   -0.2853089   -1.4269421 
H     5.1813050   -0.1512862    0.3451176 
H     5.4708040    1.2631425   -0.6964395 
H     0.7720380   -0.4810153    2.9077859 
H     0.8574209   -2.1147437    2.1991055 
H     1.7305650   -1.7504503    3.7258905 
H     2.9341620    1.0769325    2.8342992 
H     4.4478778    0.3909094    2.1900406 
H     3.7515177   -0.2423088    3.6978481 
