85
Energy =
C     0.4979579    2.3170520    1.3212708 
C    -0.7267915    2.4561746    0.5947301 
C    -1.8836543    1.7517266    0.9727548 
H    -0.7336879    3.0667664   -0.3172660 
Pd   -0.0314021    0.3640400    0.3979253 
P    -1.1367836   -1.2612759   -0.9703822 
P     1.9369537   -0.8870200    0.8836902 
H     0.4086782    2.1132696    2.3974991 
H    -1.8730453    1.2704952    1.9625992 
C     4.0097380    4.5130115    0.1319898 
C     3.2184376    3.8765960   -0.8396547 
C     2.0766175    3.1634097   -0.4592202 
C     1.7056279    3.0644918    0.9022260 
C     2.5045927    3.7168636    1.8666363 
C     3.6449959    4.4358461    1.4843201 
H     4.9052131    5.0677751   -0.1657903 
H     3.4975054    3.9306555   -1.8970339 
H     1.4826885    2.6503493   -1.2248927 
H     2.2248785    3.6650596    2.9246717 
H     4.2512434    4.9372191    2.2457323 
C    -5.8149212    2.0734645   -0.7314727 
C    -5.5853348    1.2704826    0.3968928 
C    -4.3013504    1.1858834    0.9445421 
C    -3.2138465    1.8878003    0.3692090 
C    -3.4716170    2.7228271   -0.7453289 
C    -4.7557413    2.8088501   -1.2903332 
H    -6.8189428    2.1432852   -1.1621174 
H    -6.4111115    0.7171504    0.8554789 
H    -4.1314678    0.5705346    1.8339765 
H    -2.6652612    3.3133639   -1.1892157 
H    -4.9361266    3.4600044   -2.1517510 
N     1.6369750   -0.1751109   -2.4416392 
C     2.8823236   -1.4829610   -0.6083505 
C    -0.0176211   -2.1509425   -2.1640561 
C     3.3340230   -0.2645363    1.9896026 
C     1.3799802   -2.5064119    1.6799275 
C    -1.9510496   -2.6734854   -0.0226483 
C    -2.4494333   -0.4254841   -2.0254368 
C     2.9036093   -0.4863330   -1.8005650 
C     0.8940969   -1.2627032   -3.0609901 
C     2.8209261    0.3209420    3.3138895 
C     4.3040057    0.6872051    1.2649300 
C     0.3469046   -2.2924989    2.8017843 
C     2.5242196   -3.4358439    2.1189265 
C    -2.3351396   -3.9355924   -0.8161024 
C    -3.1123584   -2.1332079    0.8265854 
C    -3.2414231   -1.3426094   -2.9722932 
C    -1.8490397    0.7742099   -2.7848239 
H     2.4391912   -2.4423177   -0.9246888 
H     3.9152802   -1.7100565   -0.2871324 
H     0.5784659   -2.8420077   -1.5414026 
H    -0.6489584   -2.7833403   -2.8141282 
H     3.8899645   -1.1945225    2.2162939 
H     0.8602925   -2.9869770    0.8272489 
H    -1.1423369   -2.9610809    0.6725032 
H    -3.1443506   -0.0230290   -1.2658685 
H     3.5810467   -0.9056789   -2.5682575 
H     3.3530675    0.4677971   -1.4748221 
H     0.2677885   -0.8434660   -3.8681829 
H     1.6218651   -1.9262665   -3.5632421 
H     1.0376237    0.3942094   -1.8281055 
H     2.2329357    1.2350479    3.1451921 
H     2.1960760   -0.3928255    3.8742719 
H     3.6790789    0.5890161    3.9551063 
H     5.0748160    1.0232434    1.9806421 
H     3.7996548    1.5829422    0.8751254 
H     4.8288018    0.1904700    0.4325668 
H     0.8206388   -1.9118536    3.7216643 
H    -0.4363807   -1.5729012    2.5009923 
H    -0.1404189   -3.2509349    3.0543334 
H     3.0483487   -3.0420870    3.0068653 
H     3.2668136   -3.5979477    1.3189973 
H     2.1102037   -4.4221162    2.3948527 
H    -3.1453412   -3.7507494   -1.5383562 
H    -1.4789276   -4.3665423   -1.3602254 
H    -2.6932720   -4.7034070   -0.1069501 
H    -3.9622020   -1.8062275    0.2024682 
H    -2.7876155   -1.2753954    1.4393308 
H    -3.4786032   -2.9208695    1.5079869 
H    -2.5864230   -1.8701606   -3.6878810 
H    -3.8368928   -2.0911436   -2.4273993 
H    -3.9450858   -0.7285107   -3.5622537 
H    -1.2398440    0.4526151   -3.6448920 
H    -1.2153723    1.3991384   -2.1312473 
H    -2.6649698    1.4071468   -3.1718322 
