85
Energy =
C    -1.4485288    2.3323045   -0.7374463 
C    -0.6414775    2.6042917    0.3975028 
C     0.7666353    2.6966648    0.2678734 
H    -1.1022123    2.6687571    1.3913859 
Pd    0.0026778    0.6194399   -0.2680830 
P     1.8837673   -0.5729419    0.5665581 
P    -1.2520305   -1.2350896   -1.0989072 
H    -1.0274095    2.5986851   -1.7180813 
H     1.1490524    2.9338470   -0.7361676 
C    -5.7474454    2.1166136   -0.6713825 
C    -5.0155627    1.7826134    0.4811372 
C    -3.6193806    1.8577505    0.4753079 
C    -2.9198926    2.2624455   -0.6862112 
C    -3.6711283    2.6146165   -1.8307345 
C    -5.0697154    2.5412886   -1.8240739 
H    -6.8403314    2.0537227   -0.6662575 
H    -5.5381651    1.4590532    1.3873628 
H    -3.0626992    1.5778509    1.3755032 
H    -3.1480985    2.9502983   -2.7326300 
H    -5.6329166    2.8201663   -2.7206689 
C     3.5326873    3.6899258    3.4145466 
C     2.3230664    3.0480951    3.7310167 
C     1.4084949    2.7279476    2.7221704 
C     1.6862695    3.0354363    1.3703285 
C     2.8991171    3.6974961    1.0697328 
C     3.8128356    4.0214616    2.0804561 
H     4.2477606    3.9368048    4.2057946 
H     2.0932043    2.7959493    4.7715414 
H     0.4779050    2.2160882    2.9856469 
H     3.1238185    3.9574228    0.0295697 
H     4.7453516    4.5357238    1.8261845 
N     1.8068236   -1.1978137   -2.4271554 
C    -0.3794450   -2.3885677   -2.2817324 
C     2.2170382   -2.2460095   -0.1779371 
C    -1.7466842   -2.3596639    0.3298219 
C    -2.8063130   -0.7692763   -2.0454024 
C     3.5138768    0.3609592    0.4243605 
C     1.7623046   -0.8711777    2.4405861 
C     0.6934249   -1.7630416   -3.1853971 
C     2.6178451   -2.1560089   -1.6661005 
C    -2.1778160   -3.7997560   -0.0045224 
C    -2.7626159   -1.6368288    1.2316672 
C    -3.8078634   -1.9028926   -2.3226847 
C    -2.4083694   -0.0558490   -3.3510845 
C     3.7472707    0.9984047   -0.9570650 
C     4.7514999   -0.4173521    0.9038165 
C     2.3956268   -2.1797232    2.9491067 
C     0.3180198   -0.7469371    2.9589196 
H    -1.1528302   -2.8696191   -2.9067897 
H     0.0692592   -3.2007909   -1.6855722 
H     3.0184074   -2.7493350    0.3893100 
H     1.3039498   -2.8492857   -0.0317523 
H    -0.7915510   -2.4223655    0.8867000 
H    -3.2943697   -0.0319464   -1.3853133 
H     3.3390839    1.1866634    1.1369106 
H     2.3370012   -0.0142175    2.8413306 
H     0.2592607   -0.9535420   -3.7946300 
H     1.0274919   -2.5583776   -3.8917605 
H     2.5853321   -3.1742437   -2.1121956 
H     3.6708643   -1.8346690   -1.7196393 
H     2.3993492   -0.6475835   -3.0507017 
H    -3.1465280   -3.8390877   -0.5247801 
H    -1.4356671   -4.3323957   -0.6219593 
H    -2.2850660   -4.3653611    0.9385920 
H    -3.7409647   -1.5217955    0.7347157 
H    -2.4036143   -0.6321038    1.5088400 
H    -2.9217010   -2.2137941    2.1596603 
H    -3.3542645   -2.7417328   -2.8804900 
H    -4.2552588   -2.3004596   -1.3987550 
H    -4.6320180   -1.5058920   -2.9420318 
H    -2.0312781   -0.7729811   -4.1017711 
H    -1.6340872    0.7134770   -3.1854372 
H    -3.2935396    0.4406692   -3.7834876 
H     4.1332049    0.2671999   -1.6872169 
H     2.8256892    1.4407359   -1.3694453 
H     4.5059700    1.7953160   -0.8651572 
H     4.9551932   -1.3059187    0.2801700 
H     4.6636662   -0.7408990    1.9532405 
H     5.6378667    0.2388857    0.8377058 
H     1.8350486   -3.0608493    2.5903004 
H     3.4489923   -2.2974524    2.6493834 
H     2.3609555   -2.1953800    4.0532120 
H    -0.2692879   -1.6512246    2.7269251 
H    -0.2071452    0.1173409    2.5165740 
H     0.3223123   -0.6301800    4.0571428 
