85
Energy =
C    -1.3799551    2.2848353   -0.7516104 
C    -0.5959092    2.5134581    0.4033664 
C     0.8181605    2.5915544    0.3145129 
H    -1.0777626    2.5709332    1.3877489 
Pd    0.0718131    0.5378972   -0.2758242 
P     1.9925722   -0.6705173    0.4624554 
P    -1.2679210   -1.2862144   -1.0815676 
H    -0.9179393    2.5272225   -1.7199950 
H     1.2317165    2.8637754   -0.6678035 
C    -5.6827169    2.2882766   -0.8239110 
C    -5.0080325    1.9352147    0.3575442 
C    -3.6105907    1.9348180    0.3978731 
C    -2.8527174    2.2798266   -0.7466546 
C    -3.5464340    2.6520030   -1.9213094 
C    -4.9461468    2.6556666   -1.9600266 
H    -6.7770171    2.2851387   -0.8538915 
H    -5.5769270    1.6576337    1.2510115 
H    -3.1015118    1.6435052    1.3218038 
H    -2.9766424    2.9428919   -2.8102734 
H    -5.4639320    2.9496201   -2.8788654 
C     3.2909997    3.7307044    3.6510583 
C     2.1925389    2.8788118    3.8579228 
C     1.3855962    2.4952864    2.7811732 
C     1.6673638    2.9447033    1.4713328 
C     2.7695008    3.8080118    1.2794343 
C     3.5704920    4.2013099    2.3595535 
H     3.9217210    4.0290583    4.4945086 
H     1.9658934    2.5122651    4.8645968 
H     0.5369511    1.8245100    2.9523887 
H     2.9930446    4.1814578    0.2738520 
H     4.4172168    4.8744912    2.1912078 
N     1.7075246   -1.4452976   -2.5796024 
C    -0.5081248   -2.5485583   -2.2308149 
C     2.1657557   -2.3746743   -0.2774115 
C    -1.8062520   -2.3292271    0.3918351 
C    -2.8075642   -0.7579650   -2.0199791 
C     3.7271899    0.0277008    0.0942863 
C     1.9952363   -0.9705644    2.3259236 
C     0.5415535   -2.0412966   -3.2290903 
C     2.5293874   -2.3589388   -1.7775473 
C    -2.3646005   -3.7383646    0.1195477 
C    -2.7239673   -1.5024844    1.3089510 
C    -3.8822493   -1.8342854   -2.2459604 
C    -2.3940582   -0.1040207   -3.3516844 
C     4.4556493    0.6716852    1.2877226 
C     3.6930444    0.9819080   -1.1143304 
C     2.9446823   -2.0892749    2.7940600 
C     0.5834051   -1.1753333    2.8980111 
H    -1.3365746   -3.0247755   -2.7850528 
H    -0.0706916   -3.3455473   -1.6064709 
H     2.9571659   -2.9152710    0.2710809 
H     1.2226432   -2.9136878   -0.0849270 
H    -0.8402466   -2.4545024    0.9160267 
H    -3.2401209    0.0239880   -1.3738801 
H     4.2992007   -0.8751201   -0.1934671 
H     2.3681049   -0.0016020    2.7046804 
H     0.1040819   -1.2770250   -3.8913525 
H     0.8196884   -2.9079179   -3.8733970 
H     2.4915367   -3.4028577   -2.1620225 
H     3.5804814   -2.0388289   -1.8758155 
H     2.2880630   -1.0027720   -3.2947818 
H    -3.3603623   -3.7138981   -0.3477642 
H    -1.7005606   -4.3425491   -0.5202992 
H    -2.4644920   -4.2709085    1.0825967 
H    -3.7104530   -1.3247878    0.8471045 
H    -2.2756204   -0.5207024    1.5377512 
H    -2.8872861   -2.0359845    2.2617653 
H    -3.4920556   -2.7211161   -2.7768589 
H    -4.3426801   -2.1673248   -1.3031792 
H    -4.6867537   -1.4067923   -2.8708206 
H    -2.0819388   -0.8625928   -4.0911397 
H    -1.5677540    0.6170658   -3.2231708 
H    -3.2552837    0.4375339   -3.7785014 
H     3.8907288    1.5122356    1.7167250 
H     4.6746352   -0.0486955    2.0906186 
H     5.4225488    1.0717055    0.9332805 
H     3.3036957    1.9673513   -0.8142255 
H     3.0541324    0.6015398   -1.9268409 
H     4.7158244    1.1312688   -1.5030837 
H     2.5396468   -3.0859986    2.5462014 
H     3.9538568   -2.0113714    2.3560238 
H     3.0542363   -2.0425734    3.8922387 
H     0.1791622   -2.1682961    2.6341437 
H    -0.1218874   -0.4099822    2.5307922 
H     0.6152913   -1.1183656    4.0004927 
