85
Energy =
C    -1.4474318    2.3227437   -0.7419411 
C    -0.6569084    2.5893298    0.4047029 
C     0.7538989    2.6816305    0.3007726 
H    -1.1337642    2.6497034    1.3911615 
Pd    0.0020046    0.6071417   -0.2617704 
P     1.9083950   -0.5657255    0.5373484 
P    -1.2552409   -1.2508517   -1.0770373 
H    -1.0089293    2.5829551   -1.7167039 
H     1.1556495    2.9276819   -0.6933354 
C    -5.7480458    2.1346143   -0.7493886 
C    -5.0389532    1.8047026    0.4184989 
C    -3.6424188    1.8700827    0.4369847 
C    -2.9196904    2.2611123   -0.7151297 
C    -3.6481966    2.6090172   -1.8755146 
C    -5.0471368    2.5452875   -1.8931884 
H    -6.8412729    2.0793692   -0.7630662 
H    -5.5797961    1.4920161    1.3178181 
H    -3.1043299    1.5929901    1.3491425 
H    -3.1069427    2.9338033   -2.7706381 
H    -5.5923709    2.8208285   -2.8018409 
C     3.4393008    3.6858954    3.5147899 
C     2.2222071    3.0447486    3.8019265 
C     1.3354477    2.7176781    2.7705690 
C     1.6484969    3.0181744    1.4249968 
C     2.8698972    3.6777242    1.1536496 
C     3.7559476    4.0082021    2.1865847 
H     4.1319497    3.9391660    4.3237619 
H     1.9640896    2.7988213    4.8373063 
H     0.3979228    2.2078829    3.0126005 
H     3.1223683    3.9322270    0.1182946 
H     4.6948520    4.5212645    1.9543511 
N     1.7860960   -1.2394215   -2.4477578 
C    -0.3959450   -2.4305060   -2.2430100 
C     2.2417119   -2.2465228   -0.1885971 
C    -1.7448989   -2.3503962    0.3724201 
C    -2.8118429   -0.7904076   -2.0221856 
C     3.5175671    0.3918262    0.3334658 
C     1.8362631   -0.8384241    2.4163128 
C     0.6643217   -1.8264960   -3.1759397 
C     2.6179135   -2.1770191   -1.6840521 
C    -2.1998922   -3.7889413    0.0637997 
C    -2.7373258   -1.6032123    1.2804569 
C    -3.8229515   -1.9211382   -2.2750509 
C    -2.4173624   -0.0990959   -3.3407536 
C     3.6968940    1.0158430   -1.0626175 
C     4.7852782   -0.3538966    0.7852752 
C     2.5383008   -2.1073249    2.9352822 
C     0.3964157   -0.7738075    2.9570889 
H    -1.1768886   -2.9270594   -2.8462488 
H     0.0613579   -3.2273627   -1.6326015 
H     3.0570806   -2.7336086    0.3730773 
H     1.3362884   -2.8547891   -0.0170164 
H    -0.7819405   -2.4183667    0.9148908 
H    -3.2909694   -0.0397832   -1.3707381 
H     3.3477891    1.2239211    1.0396958 
H     2.3758334    0.0518476    2.7926053 
H     0.2205624   -1.0340487   -3.8002742 
H     0.9910703   -2.6390501   -3.8659796 
H     2.5888701   -3.2028081   -2.1129269 
H     3.6666492   -1.8458665   -1.7591568 
H     2.3633528   -0.6970131   -3.0920563 
H    -3.1810231   -3.8222032   -0.4330267 
H    -1.4788228   -4.3369045   -0.5650541 
H    -2.2916629   -4.3430790    1.0153349 
H    -3.7207263   -1.4792049    0.7955452 
H    -2.3595221   -0.6008491    1.5416720 
H    -2.8916121   -2.1674801    2.2169845 
H    -3.3782441   -2.7736074   -2.8191300 
H    -4.2693626   -2.2980541   -1.3420244 
H    -4.6467443   -1.5291033   -2.8980522 
H    -2.0504330   -0.8298596   -4.0832588 
H    -1.6366991    0.6671722   -3.1911235 
H    -3.3018119    0.3974766   -3.7745371 
H     4.0845603    0.2852740   -1.7925000 
H     2.7528603    1.4260361   -1.4573524 
H     4.4353542    1.8346189   -1.0017411 
H     4.9818708   -1.2543095    0.1765028 
H     4.7413715   -0.6521981    1.8446566 
H     5.6570461    0.3151239    0.6704008 
H     2.0066633   -3.0189830    2.6104152 
H     3.5876357   -2.1877185    2.6107399 
H     2.5321971   -2.0996967    4.0399825 
H    -0.1545958   -1.7047572    2.7403158 
H    -0.1719158    0.0641774    2.5178450 
H     0.4130184   -0.6491599    4.0542912 
