85
Energy =
C    -1.3703196    2.2772769   -0.5070980 
C    -0.7442831    2.3824542    0.7505469 
C     0.6729657    2.4606907    0.8813518 
H    -1.3567455    2.3193106    1.6586142 
Pd    0.0657703    0.4929728   -0.0716035 
P     2.1621337   -0.5717992    0.2115784 
P    -1.3977978   -1.2078009   -0.8957286 
H    -0.7716808    2.5557948   -1.3877255 
H     1.2240524    2.9158497    0.0466094 
C    -5.6051205    2.3011137   -1.2601137 
C    -5.1339295    2.0127804    0.0323849 
C    -3.7609063    2.0016705    0.2976522 
C    -2.8247867    2.2730449   -0.7286556 
C    -3.3160345    2.5738711   -2.0212303 
C    -4.6908647    2.5881331   -2.2848657 
H    -6.6807643    2.3100643   -1.4629731 
H    -5.8435475    1.7986787    0.8381855 
H    -3.4147965    1.7715458    1.3105875 
H    -2.6053613    2.7981787   -2.8247497 
H    -5.0497409    2.8268853   -3.2911408 
C     2.5856850    2.7530050    4.7347242 
C     1.3812007    2.0425286    4.6012366 
C     0.7547290    1.9470281    3.3547698 
C     1.3167910    2.5583533    2.2086763 
C     2.5169385    3.2885262    2.3647420 
C     3.1462785    3.3814956    3.6125445 
H     3.0789159    2.8227428    5.7094859 
H     0.9328044    1.5540764    5.4726027 
H    -0.1677230    1.3635714    3.2633097 
H     2.9544541    3.7991141    1.5009586 
H     4.0743187    3.9541352    3.7104015 
N     1.2682857   -2.4166281   -2.5417416 
C    -0.8491082   -2.9643649   -1.1711383 
C     2.3584251   -2.3792777   -0.2075455 
C    -2.7620241   -1.3736051    0.4045889 
C    -2.2623684   -0.6880438   -2.4818948 
C     3.5108273    0.2541602   -0.8232544 
C     2.7579069   -0.5506181    1.9920025 
C     0.0584323   -3.2069723   -2.4050103 
C     2.4041426   -2.7632202   -1.7054107 
C    -2.1803902   -1.1877730    1.8191962 
C    -3.6174888   -2.6519304    0.3434287 
C    -3.1981456   -1.7233266   -3.1296787 
C    -1.2569169   -0.1076300   -3.4971484 
C     4.0664811    1.5380553   -0.1851524 
C     3.0192558    0.5663882   -2.2521831 
C     4.1827250   -1.0883456    2.2136498 
C     1.7317897   -1.2751177    2.8829115 
H    -1.7652254   -3.5697996   -1.2909679 
H    -0.3692571   -3.2990649   -0.2347732 
H     1.5514516   -2.9146777    0.3198609 
H     3.3085272   -2.6970452    0.2595853 
H    -3.4060907   -0.5041309    0.1756801 
H    -2.8850168    0.1507258   -2.1232152 
H     4.3213662   -0.4993434   -0.8730534 
H     2.7386381    0.5217604    2.2531696 
H    -0.5513806   -3.0626081   -3.3147500 
H     0.3505742   -4.2732262   -2.4064926 
H     2.5395421   -3.8589111   -1.7666640 
H     3.3162747   -2.3275449   -2.1529363 
H     1.0721199   -1.4121034   -2.5343042 
H    -1.4933803   -2.0113674    2.0837022 
H    -1.6203105   -0.2392285    1.9070399 
H    -2.9954845   -1.1801527    2.5647364 
H    -3.0375497   -3.5411503    0.6456667 
H    -4.0455724   -2.8405655   -0.6533053 
H    -4.4593562   -2.5536217    1.0519657 
H    -2.6600135   -2.6259450   -3.4660827 
H    -4.0085518   -2.0348265   -2.4525508 
H    -3.6709940   -1.2724949   -4.0204920 
H    -0.6394616   -0.8895956   -3.9715763 
H    -0.5777895    0.6235425   -3.0223639 
H    -1.8039189    0.4102386   -4.3049442 
H     3.3159622    2.3429970   -0.2187773 
H     4.3851660    1.4114326    0.8608467 
H     4.9414262    1.8791640   -0.7661765 
H     2.1430394    1.2409933   -2.2205968 
H     2.7439957   -0.3283879   -2.8314101 
H     3.8201857    1.0803405   -2.8125425 
H     4.2406211   -2.1797646    2.0583904 
H     4.9300239   -0.6079656    1.5605390 
H     4.4808927   -0.8921445    3.2588175 
H     1.7417842   -2.3660086    2.7088896 
H     0.7089571   -0.9049805    2.7029117 
H     1.9743406   -1.1015826    3.9454761 
