85
Energy =
C    -1.3468462    2.3594385   -0.7387953 
C    -0.7005703    2.5097641    0.5059046 
C     0.7176363    2.5550732    0.6125685 
H    -1.3047134    2.5105520    1.4216254 
Pd    0.0444956    0.5527231   -0.2071946 
P     2.0796899   -0.5190705    0.3763573 
P    -1.2708198   -1.2884582   -0.9750671 
H    -0.7591364    2.5913398   -1.6399411 
H     1.2709064    2.9066746   -0.2698159 
C    -5.5969442    2.4413607   -1.3954676 
C    -5.0993862    2.1331174   -0.1171294 
C    -3.7216270    2.1085414    0.1162595 
C    -2.8054054    2.3834062   -0.9281241 
C    -3.3226794    2.7095775   -2.2032747 
C    -4.7031827    2.7384824   -2.4349218 
H    -6.6766379    2.4582956   -1.5752411 
H    -5.7922445    1.9114991    0.7011632 
H    -3.3553422    1.8557956    1.1157054 
H    -2.6294615    2.9433405   -3.0184507 
H    -5.0824327    2.9961508   -3.4290899 
C     2.8511668    3.0500238    4.3261364 
C     1.5463989    2.5286035    4.3359560 
C     0.8393645    2.3715727    3.1395095 
C     1.4202415    2.7297460    1.9003602 
C     2.7226923    3.2820984    1.9114743 
C     3.4328564    3.4353894    3.1090360 
H     3.4044262    3.1673957    5.2633379 
H     1.0790687    2.2399471    5.2831454 
H    -0.1692251    1.9472958    3.1698598 
H     3.1746802    3.6097493    0.9680237 
H     4.4394038    3.8658038    3.0926465 
N     1.6884788   -1.6198419   -2.7160840 
C    -0.5163977   -2.6935137   -1.9363908 
C     2.4178987   -2.2143292   -0.3038020 
C    -1.8532398   -2.1397428    0.6027678 
C    -2.7679716   -0.7820379   -1.9859253 
C     3.5314307    0.5581094   -0.1557039 
C     2.2449733   -0.7043394    2.2479060 
C     0.4825771   -2.3400573   -3.0712988 
C     2.6504691   -2.2658040   -1.8403432 
C    -2.4898250   -3.5354639    0.4686910 
C    -2.7208228   -1.1797599    1.4353176 
C    -3.8680253   -1.8412832   -2.1667353 
C    -2.3053770   -0.2191119   -3.3432306 
C     3.3552010    1.1176612   -1.5825035 
C     4.9332488   -0.0466353    0.0389979 
C     3.3069793   -1.7040988    2.7418196 
C     0.8815794   -1.0264172    2.8847493 
H    -1.3545657   -3.2805702   -2.3559136 
H    -0.0217771   -3.3490347   -1.1987253 
H     1.5736661   -2.8521415    0.0127209 
H     3.3194510   -2.6058937    0.2009804 
H    -0.8897485   -2.2650261    1.1319064 
H    -3.1897484    0.0520865   -1.3992149 
H     3.4253253    1.4020922    0.5490832 
H     2.5367708    0.3169031    2.5572014 
H    -0.0326763   -1.7627620   -3.8557724 
H     0.7833811   -3.2955923   -3.5416134 
H     2.7178004   -3.3275851   -2.1407275 
H     3.6494633   -1.8365514   -2.0406423 
H     1.4998618   -0.6477269   -2.4585372 
H    -3.4846157   -3.4998218   -0.0006908 
H    -1.8624471   -4.2341765   -0.1083666 
H    -2.6159601   -3.9646652    1.4790754 
H    -3.6910977   -0.9803966    0.9480020 
H    -2.2097853   -0.2122554    1.5863870 
H    -2.9247937   -1.6183551    2.4279098 
H    -3.4896511   -2.7712185   -2.6270027 
H    -4.3573860   -2.0976293   -1.2144720 
H    -4.6463281   -1.4358134   -2.8376241 
H    -2.0016745   -1.0263920   -4.0319132 
H    -1.4591446    0.4827158   -3.2346809 
H    -3.1386402    0.3259804   -3.8177553 
H     3.5609671    0.3624790   -2.3594266 
H     2.3347670    1.5083048   -1.7489194 
H     4.0641019    1.9498863   -1.7398093 
H     5.0779781   -0.9677000   -0.5512538 
H     5.1492690   -0.2712845    1.0945614 
H     5.6898140    0.6826895   -0.3020273 
H     3.0151973   -2.7446209    2.5164494 
H     4.3059824   -1.5266733    2.3161027 
H     3.3937822   -1.6183746    3.8396283 
H     0.5792162   -2.0676154    2.6707144 
H     0.0890978   -0.3526952    2.5179676 
H     0.9465974   -0.9191293    3.9816100 
