85
Energy =
C    -1.3863920    2.2016968   -0.5550365 
C    -0.8188995    2.2809047    0.7280056 
C     0.5986743    2.3101302    0.9138928 
H    -1.4724196    2.2704916    1.6090322 
Pd    0.0006186    0.3399784    0.0403967 
P     2.1811968   -0.5960920    0.2068604 
P    -1.3374923   -1.4306853   -0.7950993 
H    -0.7125328    2.3823507   -1.4058938 
H     1.1921744    2.7440195    0.0978478 
C    -5.5326312    2.5899170   -1.6193657 
C    -4.5275184    2.6688057   -2.5952308 
C    -3.1843671    2.5362495   -2.2272216 
C    -2.8139634    2.3122838   -0.8788446 
C    -3.8394698    2.2668243    0.0962556 
C    -5.1810241    2.3990314   -0.2717790 
H    -6.5850286    2.6926155   -1.9027599 
H    -4.7905925    2.8423482   -3.6436551 
H    -2.4022903    2.6136717   -2.9892735 
H    -3.5894582    2.1277462    1.1518332 
H    -5.9599181    2.3591200    0.4965434 
C     2.2945250    2.8714748    4.8326349 
C     1.1094667    2.1305021    4.6840104 
C     0.5620363    1.9249649    3.4132029 
C     1.1830887    2.4648790    2.2619070 
C     2.3735135    3.2073582    2.4270745 
C     2.9248812    3.4070704    3.6994397 
H     2.7235718    3.0284575    5.8273249 
H     0.6171070    1.7031369    5.5636643 
H    -0.3440547    1.3174956    3.3073190 
H     2.8605725    3.6454664    1.5481538 
H     3.8457236    3.9893641    3.8076823 
N     1.0953808   -1.8316174   -2.7595089 
C    -0.5839779   -3.0443049   -1.3433475 
C     2.6116715   -2.1282984   -0.7760908 
C    -2.5129405   -2.0582443    0.5409063 
C    -2.4946591   -0.9198580   -2.1863300 
C     3.4211835    0.6938063   -0.3811015 
C     2.8441497   -1.2061263    1.8752561 
C     0.1812442   -2.9757223   -2.6751146 
C     2.4578986   -2.0921258   -2.3018360 
C    -3.4643454   -0.9529057    1.0195036 
C    -1.7434823   -2.6574645    1.7297074 
C    -3.4604718   -2.0222413   -2.6543859 
C    -1.7590788   -0.2636824   -3.3692596 
C     2.9793714    1.3833714   -1.6882321 
C     4.8686047    0.1790694   -0.4816320 
C     1.7411639   -1.9897743    2.6057056 
C     3.4599619   -0.1398535    2.7923764 
H    -1.3956861   -3.7912137   -1.4184982 
H     0.0708878   -3.3773300   -0.5210692 
H     2.0268417   -2.9560482   -0.3394721 
H     3.6679457   -2.3502673   -0.5392175 
H    -3.1018297   -2.8620090    0.0589415 
H    -3.0868010   -0.1246181   -1.6967974 
H     3.3658681    1.4400297    0.4342194 
H     3.6447475   -1.9141585    1.5875739 
H    -0.5489154   -2.8919292   -3.4962179 
H     0.7124379   -3.9419511   -2.8294675 
H     2.8484246   -3.0611389   -2.6923615 
H     3.1103509   -1.3057651   -2.7147677 
H     1.1256149   -1.4876111   -3.7210049 
H    -2.8906066   -0.1248756    1.4728529 
H    -4.0826529   -0.5373536    0.2078137 
H    -4.1466495   -1.3528845    1.7903711 
H    -1.1364224   -1.8831398    2.2283444 
H    -1.0766835   -3.4849975    1.4356348 
H    -2.4589118   -3.0576011    2.4698044 
H    -2.9277092   -2.8613739   -3.1358856 
H    -4.0704024   -2.4283948   -1.8302125 
H    -4.1572163   -1.6037319   -3.4026496 
H    -1.2781080   -1.0117707   -4.0200908 
H    -0.9812677    0.4395241   -3.0278930 
H    -2.4868643    0.2881277   -3.9889306 
H     3.1570511    0.7414279   -2.5667456 
H     1.9054061    1.6384817   -1.6803277 
H     3.5578512    2.3125114   -1.8348969 
H     4.9918662   -0.5209483   -1.3263730 
H     5.2067602   -0.3285378    0.4370443 
H     5.5501022    1.0297122   -0.6614188 
H     0.9342414   -1.3077392    2.9248598 
H     1.2962216   -2.7791785    1.9762831 
H     2.1567576   -2.4740625    3.5068937 
H     2.7017822    0.5626875    3.1630643 
H     4.2615656    0.4381374    2.3063457 
H     3.9032302   -0.6456155    3.6687127 
