85
Energy =
C     0.3987365    2.2516573    1.3884309 
C    -0.8234495    2.4286442    0.6690199 
C    -1.9700686    1.6646615    0.9468072 
H    -0.8385191    3.1328381   -0.1721181 
Pd   -0.0716841    0.3694903    0.2862055 
P    -1.1978020   -1.3192312   -0.9798577 
P     1.9264068   -0.8130152    0.7704438 
H     0.3185371    1.8847802    2.4227301 
H    -1.9841157    1.1119948    1.8975610 
C     3.7686038    4.8339073    0.6554199 
C     3.4978530    4.3658607    1.9495983 
C     2.4086525    3.5137071    2.1766470 
C     1.5679553    3.1141629    1.1145191 
C     1.8561537    3.5917210   -0.1860103 
C     2.9423942    4.4428537   -0.4120045 
H     4.6189787    5.4997719    0.4771945 
H     4.1329728    4.6706911    2.7878080 
H     2.1933463    3.1659608    3.1936703 
H     1.2390509    3.2694706   -1.0329207 
H     3.1522401    4.7985091   -1.4260189 
C    -5.8625758    2.0784459   -0.8355920 
C    -5.6737473    1.2789795    0.3022712 
C    -4.4011950    1.1630051    0.8718363 
C    -3.2848898    1.8317216    0.3130149 
C    -3.5026384    2.6662171   -0.8099348 
C    -4.7740036    2.7815751   -1.3791467 
H    -6.8563042    2.1709083   -1.2853609 
H    -6.5219025    0.7528711    0.7521117 
H    -4.2644903    0.5583366    1.7741801 
H    -2.6742306    3.2316837   -1.2457338 
H    -4.9208098    3.4303485   -2.2487643 
N     1.5966378   -0.5793215   -2.6251906 
C     2.7963844   -1.6887907   -0.6213867 
C    -0.1501932   -2.3983779   -2.0749315 
C     3.2947903    0.1394834    1.6398645 
C     1.3346316   -2.2011337    1.9039757 
C    -2.0405310   -2.6247628    0.0915508 
C    -2.4429996   -0.5054741   -2.1356129 
C     2.8486793   -0.9298348   -1.9816745 
C     0.7424141   -1.6525567   -3.1041296 
C     4.0825112    0.9790863    0.6162494 
C     4.2592817   -0.6980030    2.4974029 
C     0.7724733   -1.6171246    3.2137190 
C     2.2875507   -3.3871990    2.1429094 
C    -2.9395401   -3.6456868   -0.6280902 
C    -2.7674945   -1.9953357    1.2879674 
C    -3.0669037   -1.4089304   -3.2147839 
C    -1.8068913    0.7414626   -2.7860043 
H     2.2948549   -2.6620441   -0.7534289 
H     3.8246746   -1.9149632   -0.2818823 
H    -0.8232908   -3.0905987   -2.6129858 
H     0.4543529   -3.0188836   -1.3907784 
H     2.7443071    0.8310839    2.3026405 
H     0.4775908   -2.5848804    1.3186373 
H    -1.1553029   -3.1697763    0.4771563 
H    -3.2368457   -0.1624446   -1.4449480 
H     3.4220847   -1.5666801   -2.6814249 
H     3.4325431   -0.0033512   -1.8603553 
H     0.0879128   -1.2517405   -3.8993638 
H     1.3881962   -2.4012393   -3.5989822 
H     1.0772152    0.1324205   -2.0978821 
H     4.7675936    0.3446444    0.0272118 
H     3.4251917    1.5293891   -0.0747823 
H     4.6944350    1.7247844    1.1510945 
H     4.7669404   -1.4795104    1.9049801 
H     3.7606707   -1.1767570    3.3541448 
H     5.0430739   -0.0317196    2.9008005 
H     1.5718409   -1.2048575    3.8534168 
H     0.0447529   -0.8101545    3.0131865 
H     0.2583180   -2.4064336    3.7896195 
H     3.1288484   -3.1262083    2.8017636 
H     2.6994209   -3.7921052    1.2036908 
H     1.7234105   -4.2007077    2.6338714 
H    -3.8943679   -3.1884854   -0.9373110 
H    -2.4609856   -4.0942006   -1.5140703 
H    -3.1803699   -4.4666697    0.0704632 
H    -3.6542305   -1.4322344    0.9537048 
H    -2.1092784   -1.3104226    1.8486474 
H    -3.1117964   -2.7852694    1.9784664 
H    -2.3084645   -1.7702890   -3.9309616 
H    -3.5930372   -2.2800753   -2.7999997 
H    -3.8023547   -0.8190755   -3.7906105 
H    -1.0707471    0.4675038   -3.5602178 
H    -1.2952760    1.3758639   -2.0411007 
H    -2.5921380    1.3460581   -3.2702524 
