85
Energy =
C    -1.3611004    2.1856214   -0.6152805 
C    -0.7643322    2.3465188    0.6506524 
C     0.6504021    2.4031496    0.7980440 
H    -1.3995836    2.3804858    1.5439735 
Pd    0.0033878    0.3676097    0.0011252 
P     2.1530817   -0.6640618    0.1966027 
P    -1.3628309   -1.4053315   -0.7648687 
H    -0.7110346    2.3418808   -1.4896437 
H     1.2205594    2.7513690   -0.0734436 
C    -5.5342865    2.5753106   -1.5820862 
C    -4.5544104    2.6195592   -2.5852584 
C    -3.2028187    2.4862914   -2.2489541 
C    -2.7981273    2.2951461   -0.9057930 
C    -3.7978530    2.2866941    0.0961126 
C    -5.1479998    2.4196729   -0.2396587 
H    -6.5930399    2.6783120   -1.8405552 
H    -4.8433548    2.7672765   -3.6308644 
H    -2.4410790    2.5390191   -3.0332736 
H    -3.5215326    2.1752506    1.1484617 
H    -5.9061371    2.4075950    0.5501025 
C     2.5726128    3.1893867    4.5729598 
C     1.3117380    2.5698631    4.5477335 
C     0.6822956    2.2998501    3.3289744 
C     1.2946464    2.6491913    2.1026830 
C     2.5549747    3.2901116    2.1460498 
C     3.1903065    3.5518597    3.3667148 
H     3.0659335    3.3947249    5.5283160 
H     0.8220229    2.2879438    5.4855718 
H    -0.2859743    1.7870424    3.3286279 
H     3.0302090    3.6059121    1.2099464 
H     4.1647524    4.0510226    3.3764397 
N     0.9784373   -1.7354129   -2.7933821 
C    -0.5660968   -3.0090869   -1.2767525 
C     2.6502132   -2.0463113   -0.9599487 
C    -2.5046093   -2.0100704    0.6109468 
C    -2.5654416   -0.9639519   -2.1421479 
C     3.4459503    0.6716747   -0.1219742 
C     2.7202331   -1.4316620    1.8236462 
C     0.1611742   -2.9445945   -2.6325149 
C     2.3935651   -1.8833578   -2.4631602 
C    -3.4681253   -0.9070234    1.0700585 
C    -1.7097042   -2.5581642    1.8063104 
C    -3.5250293   -2.1008906   -2.5360494 
C    -1.8845460   -0.3442242   -3.3758171 
C     3.2198048    1.3787285   -1.4750722 
C     4.9116649    0.2357623    0.0399106 
C     1.9759224   -2.7319084    2.1687466 
C     2.6286351   -0.4330413    2.9853550 
H    -1.3445499   -3.7936322   -1.3048653 
H     0.1243250   -3.2787853   -0.4597918 
H     2.1543857   -2.9611528   -0.5965992 
H     3.7309913   -2.2065063   -0.7929711 
H    -3.0855907   -2.8397508    0.1650030 
H    -3.1555403   -0.1596840   -1.6653275 
H     3.2164593    1.3904706    0.6834551 
H     3.7826302   -1.6821943    1.6400520 
H    -0.5946248   -2.9590776   -3.4346419 
H     0.7643103   -3.8707329   -2.7612721 
H     2.8488513   -2.7688993   -2.9660482 
H     2.9231516   -0.9975161   -2.8463158 
H     0.8926402   -1.3837775   -3.7484582 
H    -2.9020609   -0.0603898    1.4971557 
H    -4.1008980   -0.5200678    0.2555115 
H    -4.1364629   -1.2981771    1.8575097 
H    -1.0889270   -1.7624496    2.2564663 
H    -1.0550931   -3.4010604    1.5305800 
H    -2.4076282   -2.9216569    2.5811974 
H    -2.9893342   -2.9555987   -2.9861783 
H    -4.1143769   -2.4739446   -1.6820624 
H    -4.2409165   -1.7283783   -3.2904471 
H    -1.4346305   -1.1138594   -4.0243516 
H    -1.0947599    0.3708388   -3.0928137 
H    -2.6416072    0.1858747   -3.9789883 
H     3.6900924    0.8206742   -2.3024206 
H     2.1475781    1.4945202   -1.7149167 
H     3.6810202    2.3820393   -1.4571057 
H     5.2023700   -0.5299841   -0.7011493 
H     5.1301471   -0.1517944    1.0485871 
H     5.5676267    1.1099220   -0.1229704 
H     0.9072334   -2.5397247    2.3458364 
H     2.0687305   -3.5062616    1.3888787 
H     2.3983825   -3.1545310    3.0973648 
H     1.5767941   -0.1815042    3.1969670 
H     3.1660579    0.5097731    2.7910285 
H     3.0597476   -0.8837646    3.8965354 
