85
Energy =
C    -1.4575578    2.3187547   -0.6514070 
C    -0.6561848    2.5351383    0.4997540 
C     0.7472935    2.6607029    0.4186957 
H    -1.1382056    2.5444278    1.4853428 
Pd   -0.0152472    0.5783961   -0.3016753 
P     1.9286907   -0.5785323    0.5113533 
P    -1.2621844   -1.1571342   -1.3538105 
H    -1.0469044    2.6527847   -1.6153944 
H     1.1711899    2.9049610   -0.5664868 
C    -5.7586096    2.1988893   -0.4751595 
C    -5.1044668    2.7451034   -1.5893884 
C    -3.7048451    2.7800653   -1.6371938 
C    -2.9304404    2.2689893   -0.5717248 
C    -3.6052182    1.7386713    0.5538420 
C    -5.0021131    1.7012556    0.5999035 
H    -6.8522561    2.1660737   -0.4397150 
H    -5.6866204    3.1490793   -2.4240984 
H    -3.2004836    3.2121678   -2.5080216 
H    -3.0279532    1.3256195    1.3877254 
H    -5.5058791    1.2779342    1.4751191 
C     3.3220414    3.7314079    3.7008230 
C     2.0611875    3.1692285    3.9634600 
C     1.2130023    2.8121862    2.9103027 
C     1.6076911    3.0047333    1.5651211 
C     2.8742432    3.5866476    1.3188383 
C     3.7227698    3.9446066    2.3734802 
H     3.9833420    4.0092860    4.5277031 
H     1.7379326    3.0091963    4.9972471 
H     0.2401757    2.3657406    3.1388445 
H     3.1883779    3.7665814    0.2840436 
H     4.6963371    4.3968799    2.1587270 
N     1.9081301   -2.0253641   -2.2598387 
C    -0.5137841   -2.0848169   -2.7865540 
C     2.3857263   -2.3489052    0.1334225 
C    -1.6446997   -2.4598742   -0.0458490 
C    -2.8839577   -0.6044084   -2.1331077 
C     3.4647958    0.4233141    0.0931529 
C     1.8437855   -0.5559194    2.4040150 
C     0.7552562   -2.8905775   -2.5028753 
C     2.8714129   -2.5656941   -1.3059499 
C    -2.0941515   -3.8514831   -0.5286302 
C    -2.6090418   -1.8671804    0.9989054 
C    -3.9076193   -1.7070968   -2.4554931 
C    -2.5793901    0.2423334   -3.3845672 
C     3.4973910    0.8533224   -1.3867865 
C     4.8125154   -0.1538067    0.5594423 
C     2.7410750   -1.5575259    3.1539773 
C     0.3849637   -0.6935104    2.8774501 
H    -0.3057164   -1.3359403   -3.5702047 
H    -1.3057563   -2.7497898   -3.1772186 
H     3.1741610   -2.6571502    0.8407006 
H     1.5028471   -2.9755531    0.3576755 
H    -0.6578365   -2.5734925    0.4434189 
H    -3.3259454    0.0566882   -1.3694586 
H     3.2758189    1.3318136    0.6907577 
H     2.1836234    0.4691518    2.6414758 
H     0.9255482   -3.5934132   -3.3468074 
H     0.6056170   -3.5275585   -1.6138123 
H     3.0807176   -3.6496234   -1.4553105 
H     3.8307617   -2.0438602   -1.4507123 
H     2.3620135   -1.7744759   -3.1408585 
H    -3.0981662   -3.8334512   -0.9782047 
H    -1.4012894   -4.2941436   -1.2627912 
H    -2.1330199   -4.5342365    0.3392972 
H    -3.6211744   -1.7226329    0.5840639 
H    -2.2496719   -0.8912211    1.3647892 
H    -2.6928006   -2.5478985    1.8641952 
H    -4.2853559   -2.2061125   -1.5496225 
H    -4.7752799   -1.2456033   -2.9599394 
H    -3.5038979   -2.4764699   -3.1371640 
H    -2.2830829   -0.3912517   -4.2386718 
H    -1.7752168    0.9773315   -3.2054945 
H    -3.4856342    0.7968846   -3.6804448 
H     3.8297829    0.0381179   -2.0500248 
H     2.5043258    1.1839196   -1.7381361 
H     4.2088542    1.6897801   -1.5101429 
H     5.0507858   -1.1203129    0.0825482 
H     4.8506412   -0.2884355    1.6518091 
H     5.6189084    0.5515049    0.2888337 
H     2.3857827   -2.5947350    3.0238206 
H     3.7969957   -1.5131002    2.8440087 
H     2.7047300   -1.3330004    4.2350625 
H    -0.0123027   -1.7036390    2.6715327 
H    -0.2746279    0.0373124    2.3761683 
H     0.3233475   -0.5280521    3.9678962 
