85
Energy =
C    -0.9459125    2.3248228   -1.0718043 
C    -0.6415341    2.5457684    0.2857049 
C     0.7225430    2.4822873    0.7194428 
H    -1.4468018    2.6757401    1.0191245 
Pd    0.0749068    0.4983297   -0.0737907 
P     2.1482601   -0.6047440    0.2665647 
P    -1.3323661   -1.3137819   -0.6919515 
H    -0.0972014    2.3442186   -1.7724251 
H     1.4797920    2.8202340    0.0007680 
C    -4.7291115    2.5780355   -3.0862752 
C    -3.5588952    2.2506640   -3.7902552 
C    -2.3357538    2.1840671   -3.1156939 
C    -2.2558348    2.4289879   -1.7222786 
C    -3.4401667    2.7777826   -1.0323851 
C    -4.6618561    2.8501595   -1.7095440 
H    -5.6882200    2.6358705   -3.6107789 
H    -3.6015105    2.0552357   -4.8665860 
H    -1.4211679    1.9325712   -3.6652885 
H    -3.4072066    2.9991031    0.0385542 
H    -5.5689729    3.1256785   -1.1619413 
C     1.8853187    2.8846484    4.8470471 
C     0.6401407    2.3196905    4.5230206 
C     0.2544527    2.1823720    3.1859518 
C     1.1033363    2.6137093    2.1393803 
C     2.3478011    3.1906134    2.4815141 
C     2.7365865    3.3216791    3.8210287 
H     2.1869309    2.9874434    5.8943225 
H    -0.0285474    1.9765360    5.3193853 
H    -0.7042985    1.7079743    2.9468048 
H     3.0075974    3.5566378    1.6860581 
H     3.7030570    3.7747221    4.0651235 
N     1.1257765   -0.7166067   -2.7586440 
C    -0.7178389   -2.2981775   -2.1487152 
C     2.4456575   -1.9548781   -0.9859740 
C    -1.4044962   -2.6042345    0.6729008 
C    -3.0806703   -0.8015993   -1.1673558 
C     3.5411349    0.6470945    0.0015069 
C     2.6853645   -1.4547489    1.8620525 
C    -0.0612025   -1.4318970   -3.2362759 
C     2.3060521   -1.5438373   -2.4668858 
C    -2.3521504   -3.7906531    0.4258554 
C    -1.6151962   -1.9735542    2.0633405 
C    -3.8501177   -0.3216751    0.0764657 
C    -3.9072240   -1.7863577   -2.0129757 
C     3.4038045    1.4253740   -1.3242015 
C     4.9659271    0.0860057    0.1554167 
C     1.9702837   -2.7848977    2.1478263 
C     2.5628215   -0.4977386    3.0581621 
H    -1.5484347   -2.8755495   -2.5877015 
H     0.0017995   -3.0410760   -1.7639235 
H     1.7270858   -2.7527973   -0.7325729 
H     3.4523409   -2.3792821   -0.8146884 
H    -0.3644682   -2.9835209    0.6379504 
H    -2.8887390    0.0857260   -1.7955552 
H     3.3547154    1.3536770    0.8309348 
H     3.7532900   -1.6829529    1.6870782 
H    -0.7849028   -0.6771035   -3.5933513 
H     0.1726672   -2.0926755   -4.1020688 
H     2.3160422   -2.4685346   -3.0852446 
H     3.2011414   -0.9732586   -2.7583191 
H     1.3747211    0.0090290   -3.4330458 
H    -3.4090168   -3.4868172    0.5095888 
H    -2.2010476   -4.2529973   -0.5642418 
H    -2.1726652   -4.5693052    1.1889960 
H    -2.6537290   -1.6369291    2.2073858 
H    -0.9488490   -1.1052243    2.2160683 
H    -1.4000756   -2.7205676    2.8482863 
H    -4.1794977   -1.1688595    0.7018844 
H    -3.2365100    0.3534449    0.6992931 
H    -4.7491123    0.2343951   -0.2379357 
H    -4.1080716   -2.7348412   -1.4896436 
H    -3.4249371   -2.0169857   -2.9777242 
H    -4.8815335   -1.3201410   -2.2453165 
H     3.8691559    0.8760734   -2.1599818 
H     2.3505499    1.6168134   -1.5905648 
H     3.9256344    2.3950764   -1.2440630 
H     5.1749983   -0.7124831   -0.5793035 
H     5.1627925   -0.3086630    1.1652568 
H     5.6959199    0.8953805   -0.0258192 
H     0.9042340   -2.6270429    2.3700022 
H     2.0596668   -3.5101763    1.3218968 
H     2.4257715   -3.2494558    3.0401730 
H     1.5074438   -0.2442299    3.2511651 
H     3.1088852    0.4484098    2.9100019 
H     2.9694431   -0.9812311    3.9638067 
