90
Energy =
C     2.1399438    1.3455640    1.3118477 
C     2.5291625   -0.0072869    1.1380809 
C     2.7312210   -0.5504738   -0.1612780 
H     2.5263626   -0.6880728    1.9990478 
Pd    0.6342384    0.2229543    0.0298135 
P    -0.3706354   -1.1099049   -1.6019434 
P    -1.2392745    1.5415018    0.4665433 
H     2.3613943    2.0387029    0.4857387 
H     3.0440706    0.1483858   -0.9523073 
C     1.2214205    3.3444394    5.0085997 
C     1.2370148    4.0462735    3.7943743 
C     1.5565979    3.3840271    2.6037502 
C     1.8502588    2.0008464    2.5986449 
C     1.8498697    1.3109493    3.8337417 
C     1.5402214    1.9762577    5.0234066 
H     0.9746407    3.8612521    5.9416044 
H     1.0044088    5.1159698    3.7727578 
H     1.5761779    3.9399283    1.6606625 
H     2.0938320    0.2439691    3.8699146 
H     1.5481154    1.4261534    5.9701111 
C     3.7376123   -4.6582996   -0.9573608 
C     2.8602020   -4.3489935    0.0956303 
C     2.5267711   -3.0180766    0.3645607 
C     3.0564418   -1.9675902   -0.4189209 
C     3.9274072   -2.2934823   -1.4803032 
C     4.2710470   -3.6255321   -1.7415188 
H     3.9995668   -5.7007014   -1.1660594 
H     2.4310245   -5.1500118    0.7065303 
H     1.8304531   -2.7913189    1.1783569 
H     4.3361422   -1.4930242   -2.1056697 
H     4.9510788   -3.8570717   -2.5675738 
C    -2.2350280    1.0581732   -2.1381130 
C    -1.8363464   -0.3676030   -2.5827528 
C    -2.7105008    1.2416707   -0.6728176 
C    -1.6501880   -0.4229799   -4.1090536 
C    -3.6085348    0.0952275   -0.1750434 
C     0.8259320   -1.6670423   -2.8777441 
C    -1.1138016   -2.6153482   -0.8601533 
C    -1.9364568    1.4312755    2.1553724 
C    -0.7853062    3.3012750    0.1629317 
C     1.5608100   -0.6624565   -3.5456875 
C    -1.8344217   -3.5450519   -1.6420844 
C    -3.1187029    2.1095665    2.5302045 
C     0.1045928    3.5700804   -0.9016158 
C     1.0553452   -3.0171999   -3.1988683 
C    -1.0155885   -2.8161938    0.5309578 
C    -1.2923296    0.6035105    3.0934191 
C    -1.2249663    4.3697329    0.9693996 
C     2.4713923   -1.0016597   -4.5532020 
C    -2.4232602   -4.6644903   -1.0395438 
C    -3.6240378    1.9762176    3.8293609 
C     0.5264583    4.8792384   -1.1674743 
C     1.9759485   -3.3519945   -4.2036064 
C    -1.6106941   -3.9341637    1.1316032 
C    -1.7993030    0.4741350    4.3937791 
C    -0.7964014    5.6786519    0.7037473 
C     2.6740569   -2.3498360   -4.8903963 
C    -2.3098608   -4.8619010    0.3461280 
C    -2.9619324    1.1632233    4.7640470 
C     0.0755151    5.9379581   -0.3635834 
H    -3.0772451    1.3587371   -2.7901934 
H    -1.4175333    1.7667574   -2.3698128 
H    -2.6621209   -1.0515173   -2.3216563 
H    -3.2818599    2.1877290   -0.6350899 
H    -1.3900515   -1.4355326   -4.4581046 
H    -0.8582494    0.2627698   -4.4537573 
H    -2.5942698   -0.1215911   -4.5969698 
H    -4.4004931   -0.1075192   -0.9183196 
H    -3.0419699   -0.8395318   -0.0183413 
H    -4.0972226    0.3493008    0.7778779 
H     1.4187347    0.3910207   -3.2734150 
H    -1.9372047   -3.3993827   -2.7233176 
H    -3.6560447    2.7333710    1.8073424 
H     0.4918058    2.7424060   -1.5092615 
H     0.5371215   -3.8121470   -2.6557117 
H    -0.4845794   -2.0757248    1.1410866 
H    -0.3862292    0.0644106    2.7976395 
H    -1.8735740    4.1848614    1.8294309 
H     3.0270369   -0.2142965   -5.0731121 
H    -2.9760380   -5.3831751   -1.6532626 
H    -4.5400216    2.5049340    4.1124634 
H     1.2167614    5.0713701   -1.9953394 
H     2.1531356   -4.4060853   -4.4397676 
H    -1.5331776   -4.0764930    2.2144116 
H    -1.2815846   -0.1631465    5.1176974 
H    -1.1388931    6.4979165    1.3443966 
H     3.3876622   -2.6169669   -5.6764803 
H    -2.7751572   -5.7358753    0.8133969 
H    -3.3593920    1.0634681    5.7793283 
H     0.4114756    6.9605827   -0.5631518 
