90
Energy =
C     2.1321790    1.2512735    1.6213735 
C     2.6450133   -0.0390484    1.2997002 
C     2.9296502   -0.3932885   -0.0448217 
H     2.6518472   -0.8187816    2.0711399 
Pd    0.7790461    0.2333085    0.1705411 
P    -0.2287614   -1.1602537   -1.4045293 
P    -1.1308863    1.5496183    0.4034119 
H     2.4139155    2.0851953    0.9606824 
H     3.1455517    0.4344741   -0.7385253 
C     0.7322747    2.5050956    5.4956203 
C     0.8068108    1.1342281    5.1937630 
C     1.2633807    0.7122412    3.9421171 
C     1.6581661    1.6518350    2.9601204 
C     1.5749139    3.0255684    3.2771600 
C     1.1192530    3.4471996    4.5325903 
H     0.3747513    2.8330959    6.4770486 
H     0.5046302    0.3920655    5.9401693 
H     1.3036189   -0.3604615    3.7221502 
H     1.8654861    3.7684347    2.5262851 
H     1.0639718    4.5176809    4.7554901 
C     4.3626423   -4.1796300   -1.4920847 
C     4.3278938   -3.0560762   -2.3307650 
C     3.8394702   -1.8363519   -1.8476040 
C     3.3789724   -1.7135039   -0.5160836 
C     3.3911210   -2.8632948    0.3072611 
C     3.8848565   -4.0785732   -0.1748310 
H     4.7538246   -5.1325165   -1.8630411 
H     4.6910800   -3.1265003   -3.3613091 
H     3.8224364   -0.9587961   -2.5039358 
H     3.0173375   -2.8101384    1.3344007 
H     3.8937203   -4.9557894    0.4796716 
C    -2.6900326    0.2958251   -1.6457114 
C    -2.1005831   -1.0689692   -1.2147463 
C    -1.9552820    1.6125986   -1.2931068 
C    -2.8897180   -2.2168998   -1.8649963 
C    -2.8598130    2.8262071   -1.5637052 
C     0.1676809   -0.8196617   -3.1585754 
C     0.1523294   -2.9167434   -1.0561618 
C    -2.3566697    0.9608183    1.6270196 
C    -0.7545123    3.2967938    0.8007981 
C    -0.3358189   -1.5974305   -4.2252019 
C    -0.2059448   -3.4097941    0.2195320 
C    -3.6649490    1.4836297    1.7220380 
C     0.1735939    3.9666234   -0.0278602 
C     0.9858411    0.2932729   -3.4470789 
C     0.8059153   -3.7666067   -1.9670874 
C    -1.9621563   -0.0745334    2.5004319 
C    -1.3055974    3.9687003    1.9070613 
C    -0.0242171   -1.2607583   -5.5495238 
C     0.0483484   -4.7440204    0.5575373 
C    -4.5601398    0.9674770    2.6691558 
C     0.5224909    5.2966631    0.2336973 
C     1.2942322    0.6273359   -4.7729075 
C     1.0623568   -5.1009282   -1.6190646 
C    -2.8583290   -0.5831296    3.4498044 
C    -0.9498808    5.3015720    2.1660759 
C     0.7883944   -0.1498655   -5.8253425 
C     0.6771437   -5.5949980   -0.3656884 
C    -4.1593391   -0.0648665    3.5319836 
C    -0.0417915    5.9678033    1.3323943 
H    -3.7095865    0.3431154   -1.2175651 
H    -2.8177254    0.2892241   -2.7450943 
H    -2.2025296   -1.1590821   -0.1155959 
H    -1.0668223    1.6981566   -1.9495265 
H    -2.4942300   -3.2037308   -1.5743569 
H    -2.8780200   -2.1400990   -2.9653612 
H    -3.9449585   -2.1634159   -1.5423501 
H    -3.1582140    2.8279306   -2.6273771 
H    -3.7842494    2.7887666   -0.9631499 
H    -2.3453121    3.7771200   -1.3516226 
H    -0.9575620   -2.4748099   -4.0249785 
H    -0.6890415   -2.7481230    0.9487932 
H    -3.9842732    2.2998889    1.0677656 
H     0.6267718    3.4427390   -0.8789409 
H     1.3814584    0.8955740   -2.6196453 
H     1.1298454   -3.3907908   -2.9414029 
H    -0.9428546   -0.4717888    2.4298796 
H    -1.9995502    3.4521533    2.5767060 
H    -0.4166170   -1.8706165   -6.3698017 
H    -0.2432391   -5.1206433    1.5434865 
H    -5.5737065    1.3760485    2.7359784 
H     1.2372716    5.8110823   -0.4169272 
H     1.9312307    1.4924685   -4.9840091 
H     1.5751849   -5.7528981   -2.3332156 
H    -2.5398427   -1.3822269    4.1270477 
H    -1.3809860    5.8156509    3.0312152 
H     1.0289437    0.1077952   -6.8618897 
H     0.8760519   -6.6387696   -0.1019751 
H    -4.8621825   -0.4624164    4.2714033 
H     0.2330241    7.0072715    1.5385729 
