90
Energy =
C     2.8082349   -1.0047119    0.2851198 
C     2.8364439    0.2729124    0.9357941 
C     2.0391446    0.5060036    2.0773279 
H     3.3708870    1.1065891    0.4626916 
Pd    0.7885654   -0.1187831    0.2375603 
P    -1.0962734    1.2767781    0.3169285 
P    -0.2476347   -1.5370543   -1.2787250 
H     2.6506953   -1.8879607    0.9215754 
H     1.6765628   -0.3875979    2.6103123 
C     4.7236180   -1.8188209   -3.4859225 
C     4.2050681   -0.5387182   -3.2271743 
C     3.5880546   -0.2645449   -2.0024639 
C     3.4776143   -1.2634259   -1.0062755 
C     4.0021913   -2.5443936   -1.2820803 
C     4.6191970   -2.8189126   -2.5088124 
H     5.2039946   -2.0337897   -4.4459550 
H     4.2793986    0.2469504   -3.9866223 
H     3.1627878    0.7297744   -1.8223544 
H     3.9256302   -3.3303909   -0.5241830 
H     5.0162602   -3.8203665   -2.7023342 
C     1.6572840    4.0815373    4.4259738 
C     1.1718942    2.8536881    4.9002949 
C     1.3085434    1.7011150    4.1192197 
C     1.9264019    1.7502975    2.8460236 
C     2.4168065    2.9944420    2.3873315 
C     2.2844005    4.1439460    3.1707598 
H     1.5546809    4.9860052    5.0341122 
H     0.6955361    2.7929503    5.8842341 
H     0.9491493    0.7386260    4.5018481 
H     2.9021681    3.0660266    1.4098736 
H     2.6676684    5.0987688    2.7981563 
C    -2.1791080    0.3101521   -2.2273945 
C    -1.8958806    1.5661783   -1.3702369 
C    -0.9622494   -0.5357719   -2.6884812 
C    -3.1122461    2.5113696   -1.3087213 
C     0.1374440    0.3254241   -3.3419568 
C    -2.3661525    0.7421745    1.5212374 
C    -0.6472524    3.0121537    0.7317097 
C     0.6606598   -2.9560020   -2.0144352 
C    -1.6581748   -2.3923277   -0.4657696 
C    -2.0021844    0.7493754    2.8865817 
C     0.3628613    3.6032439   -0.0589481 
C     1.0051189   -4.0058670   -1.1343624 
C    -2.6612171   -3.0362284   -1.2213381 
C    -3.6176458    0.2130270    1.1495801 
C    -1.2947284    3.7848487    1.7135539 
C     1.0074157   -3.0607252   -3.3746248 
C    -1.6950122   -2.4675223    0.9404479 
C    -2.8860815    0.2663923    3.8588086 
C     0.6900164    4.9547964    0.1011929 
C     1.6686843   -5.1421984   -1.6100697 
C    -3.6958325   -3.7215682   -0.5722603 
C    -4.4985742   -0.2712021    2.1267998 
C    -0.9415942    5.1311395    1.8903101 
C     1.6825417   -4.1974153   -3.8442931 
C    -2.7209399   -3.1715616    1.5862089 
C    -4.1393605   -0.2425728    3.4811946 
C     0.0378322    5.7213666    1.0790591 
C     2.0109060   -5.2399891   -2.9678845 
C    -3.7251318   -3.7921045    0.8308504 
H    -2.6683798    0.6762893   -3.1506343 
H    -2.9216461   -0.3409921   -1.7342175 
H    -1.0823241    2.1283692   -1.8649021 
H    -1.3387911   -1.2657061   -3.4295067 
H    -2.8875809    3.4140346   -0.7171195 
H    -4.0000192    2.0278603   -0.8718563 
H    -3.3737116    2.8328907   -2.3325503 
H    -0.2932604    0.9294030   -4.1604350 
H     0.5945381    1.0108054   -2.6066455 
H     0.9575465   -0.2813552   -3.7558100 
H    -1.0247732    1.1422284    3.1861893 
H     0.8961172    2.9987278   -0.8042106 
H     0.7355536   -3.9396630   -0.0738030 
H    -2.6308729   -3.0146748   -2.3164031 
H    -3.9092316    0.1517577    0.0990359 
H    -2.0841585    3.3457775    2.3308603 
H     0.7527553   -2.2696560   -4.0844179 
H    -0.9214498   -1.9600598    1.5296626 
H    -2.5956395    0.2885055    4.9144837 
H     1.4647295    5.4061991   -0.5273380 
H     1.9187122   -5.9536827   -0.9188168 
H    -4.4751501   -4.2142101   -1.1629297 
H    -5.4666666   -0.6812303    1.8223141 
H    -1.4476779    5.7238343    2.6592229 
H     1.9475894   -4.2651763   -4.9043050 
H    -2.7416398   -3.2187772    2.6792947 
H    -4.8308903   -0.6201740    4.2413902 
H     0.2977040    6.7764741    1.2124846 
H     2.5317234   -6.1277053   -3.3410202 
H    -4.5321933   -4.3356190    1.3329902 
