90
Energy =
C     2.1157009    1.0384343    1.5000818 
C     2.2704326   -0.3697201    1.4621950 
C     2.6024235   -1.0257894    0.2403141 
H     1.9863370   -0.9677140    2.3363626 
Pd    0.6648178    0.0766277    0.0290183 
P    -0.2148067   -1.2029887   -1.6923474 
P    -1.1477675    1.5290157    0.3166487 
H     2.6137084    1.6064096    0.6991379 
H     3.1825327   -0.4373419   -0.4854468 
C     1.1911693    3.4743762    4.9180251 
C     1.5740056    4.0588514    3.7020560 
C     1.8520152    3.2505311    2.5937187 
C     1.7534024    1.8420336    2.6772528 
C     1.3405934    1.2695597    3.9028019 
C     1.0707668    2.0776331    5.0104037 
H     0.9830360    4.1025289    5.7902517 
H     1.6661992    5.1466636    3.6183749 
H     2.1602301    3.7118777    1.6492682 
H     1.2345464    0.1845826    3.9965963 
H     0.7602782    1.6160647    5.9529515 
C     2.9612164   -5.2760068   -0.3334618 
C     3.5116719   -4.3786523   -1.2599069 
C     3.3786114   -2.9985250   -1.0647184 
C     2.6932790   -2.4865732    0.0605841 
C     2.1215541   -3.4048391    0.9720249 
C     2.2624189   -4.7820657    0.7805155 
H     3.0689316   -6.3555984   -0.4801313 
H     4.0546587   -4.7532505   -2.1338166 
H     3.8195350   -2.3035959   -1.7873012 
H     1.5551040   -3.0416514    1.8355228 
H     1.8156265   -5.4763964    1.4989408 
C    -2.8704599   -0.2524010   -1.2177577 
C    -1.8602331   -0.5633848   -2.3509357 
C    -2.7998604    1.1421447   -0.5547812 
C    -1.6286510    0.6314641   -3.2941447 
C    -4.0264689    1.3545191    0.3518034 
C     0.7944598   -1.3292802   -3.2188746 
C    -0.5408891   -2.9124495   -1.0979364 
C    -1.5806799    1.5827435    2.1001326 
C    -0.7989407    3.2467288   -0.2275737 
C     0.3480699   -2.0722607   -4.3350738 
C    -1.1997733   -3.0586279    0.1443978 
C    -1.6962041    2.7704481    2.8447565 
C    -1.7681776    4.2721032   -0.1563465 
C     1.9899003   -0.5926344   -3.3215120 
C    -0.1223437   -4.0697878   -1.7832261 
C    -1.8221262    0.3436128    2.7337592 
C     0.4626821    3.5358611   -0.7856393 
C     1.1077662   -2.1033398   -5.5115875 
C    -1.4940015   -4.3285764    0.6543461 
C    -2.0842030    2.7174244    4.1915143 
C    -1.4653953    5.5621900   -0.6114235 
C     2.7464148   -0.6216058   -4.5018042 
C    -0.4061833   -5.3399699   -1.2619310 
C    -2.2194450    0.2970172    4.0753216 
C     0.7621036    4.8267831   -1.2432820 
C     2.3107166   -1.3839569   -5.5947077 
C    -1.1050431   -5.4749286   -0.0546477 
C    -2.3592024    1.4876807    4.8051620 
C    -0.1999502    5.8427318   -1.1508706 
H    -2.8424936   -1.0404286   -0.4439195 
H    -3.8804751   -0.3240406   -1.6653246 
H    -2.2735674   -1.4085616   -2.9319895 
H    -2.8244699    1.9071578   -1.3505109 
H    -1.0869355    0.3295169   -4.2039589 
H    -1.0430377    1.4322874   -2.8050187 
H    -2.5988341    1.0605403   -3.6023488 
H    -4.9448898    1.2882711   -0.2582897 
H    -4.0835422    0.5867037    1.1413860 
H    -4.0166559    2.3369395    0.8507543 
H    -0.5977960   -2.6233129   -4.2934995 
H    -1.4634044   -2.1698527    0.7275255 
H    -1.4703362    3.7365538    2.3854110 
H    -2.7618127    4.0698513    0.2560587 
H     2.3195405    0.0163514   -2.4735941 
H     0.4509201   -3.9897254   -2.7098633 
H    -1.6981103   -0.5887046    2.1701046 
H     1.2065700    2.7351727   -0.8696452 
H     0.7561510   -2.6867782   -6.3687175 
H    -2.0147363   -4.4222424    1.6129520 
H    -2.1631729    3.6468843    4.7643334 
H    -2.2218867    6.3510087   -0.5465869 
H     3.6743652   -0.0443198   -4.5682001 
H    -0.0661959   -6.2290513   -1.8025098 
H    -2.4154334   -0.6687476    4.5525726 
H     1.7453135    5.0369848   -1.6766987 
H     2.9012247   -1.4097198   -6.5162718 
H    -1.3271680   -6.4699719    0.3442173 
H    -2.6668925    1.4546311    5.8553013 
H     0.0316509    6.8518726   -1.5067237 
