90
Energy =
C     2.2692981    1.5789413    0.8209691 
C     2.6509175    0.2144512    0.9037709 
C     2.8827233   -0.5880801   -0.2425867 
H     2.6145634   -0.2648115    1.8900263 
Pd    0.7681492    0.2902250   -0.2425596 
P    -0.3489494   -1.2119397   -1.6418580 
P    -1.1222912    1.5926277    0.2213944 
H     2.5730836    2.1437487   -0.0741562 
H     3.1730541   -0.0813714   -1.1744293 
C     1.5638292    3.9668179    4.3278252 
C     1.1341299    2.6292653    4.2989460 
C     1.3377806    1.8499302    3.1556736 
C     1.9772012    2.3938180    2.0174242 
C     2.3752166    3.7470659    2.0479046 
C     2.1792323    4.5232389    3.1970934 
H     1.4087448    4.5746846    5.2251862 
H     0.6331899    2.1939964    5.1699915 
H     0.9752492    0.8160007    3.1347909 
H     2.8509286    4.1889516    1.1659355 
H     2.5024579    5.5691047    3.2060355 
C     3.8041809   -4.7995059   -0.1422546 
C     3.4226719   -4.1417810    1.0393346 
C     3.1264449   -2.7751355    1.0230820 
C     3.2072769   -2.0268777   -0.1779470 
C     3.6170462   -2.7000326   -1.3509920 
C     3.9047546   -4.0698661   -1.3353802 
H     4.0312455   -5.8703492   -0.1277654 
H     3.3582131   -4.6981404    1.9804121 
H     2.8235978   -2.2909640    1.9571260 
H     3.7029791   -2.1419208   -2.2876946 
H     4.2108339   -4.5665315   -2.2616290 
C    -2.7850565    0.2617220   -1.6676665 
C    -1.7766334   -0.4598668   -2.5980370 
C    -2.3999211    1.6702986   -1.1615583 
C    -1.2947222    0.4301778   -3.7573899 
C    -3.6548788    2.4812202   -0.7950065 
C     0.7070962   -1.9687202   -2.9392976 
C    -1.0710434   -2.6244238   -0.7169779 
C    -2.0013468    0.8679052    1.6619437 
C    -0.8001450    3.3689270    0.5448013 
C     0.6582609   -3.3431705   -3.2403345 
C    -2.3964835   -3.0800823   -0.8636518 
C    -3.0851971    1.4992136    2.3142306 
C    -0.2646256    4.1222063   -0.5239800 
C     1.5903841   -1.1319395   -3.6555401 
C    -0.2214643   -3.2695835    0.2072329 
C    -1.6049315   -0.4179558    2.0888717 
C    -1.0234762    3.9973601    1.7839274 
C     1.4780797   -3.8691130   -4.2500623 
C    -2.8638223   -4.1492487   -0.0840895 
C    -3.7469676    0.8527338    3.3670453 
C    -0.0012929    5.4882947   -0.3667976 
C     2.3917369   -1.6580131   -4.6764177 
C    -0.6872290   -4.3445048    0.9725697 
C    -2.2764807   -1.0655702    3.1340498 
C    -0.7572654    5.3662245    1.9353518 
C     2.3391843   -3.0302599   -4.9721915 
C    -2.0146068   -4.7812787    0.8354150 
C    -3.3481219   -0.4294398    3.7765786 
C    -0.2578611    6.1161751    0.8624550 
H    -3.0505277   -0.3761051   -0.8029641 
H    -3.7181033    0.3748727   -2.2523142 
H    -2.2975157   -1.3289918   -3.0411388 
H    -1.8632513    2.2152110   -1.9591177 
H    -0.7909679   -0.1620868   -4.5369889 
H    -0.5909067    1.2119757   -3.4188906 
H    -2.1623297    0.9331498   -4.2206785 
H    -4.2441986    2.6711115   -1.7097657 
H    -4.2991030    1.9260689   -0.0926909 
H    -3.3982661    3.4569001   -0.3488299 
H    -0.0097984   -4.0051117   -2.6800318 
H    -3.0778933   -2.6151530   -1.5818573 
H    -3.4131780    2.4966948    2.0108498 
H    -0.0466485    3.6392938   -1.4845558 
H     1.6559969   -0.0664960   -3.4057727 
H     0.8147919   -2.9356403    0.3178954 
H    -0.7650166   -0.9152022    1.5896380 
H    -1.3796784    3.4218765    2.6417793 
H     1.4414746   -4.9406589   -4.4719382 
H    -3.8971185   -4.4911989   -0.2025168 
H    -4.5818387    1.3537961    3.8678025 
H     0.4056415    6.0634115   -1.2049833 
H     3.0675528   -1.0004239   -5.2329460 
H    -0.0090837   -4.8399359    1.6753314 
H    -1.9598930   -2.0676994    3.4404852 
H    -0.9306058    5.8415177    2.9059226 
H     2.9738062   -3.4445363   -5.7623530 
H    -2.3850387   -5.6163176    1.4390027 
H    -3.8734352   -0.9298498    4.5966685 
H    -0.0537892    7.1846786    0.9858152 
