90
Energy =
C     2.0746332   -1.4898221    1.0451374 
C     2.4214328   -0.1352056    1.2746258 
C     1.6239360    0.6855854    2.1243221 
H     3.2339262    0.3263768    0.6994204 
Pd    0.4135459   -0.0755611    0.3808711 
P    -1.3337946    1.4753405    0.4645700 
P    -0.3913262   -1.4071986   -1.3541800 
H     1.4428454   -1.9627222    1.8120942 
H     1.0504848    0.1757103    2.9137432 
C     4.1708752   -4.3629330   -1.3678236 
C     3.1642852   -4.7690274   -0.4799482 
C     2.4823200   -3.8175964    0.2870193 
C     2.7922727   -2.4413641    0.1837630 
C     3.7966533   -2.0464230   -0.7301336 
C     4.4805675   -2.9981746   -1.4910261 
H     4.7110812   -5.1044703   -1.9652730 
H     2.9145309   -5.8301529   -0.3779804 
H     1.7039918   -4.1420359    0.9857509 
H     4.0478057   -0.9879933   -0.8481144 
H     5.2576520   -2.6741514   -2.1902112 
C     2.7050272    4.7450798    3.0319662 
C     2.1138444    3.9296057    4.0076939 
C     1.7239253    2.6227453    3.6883834 
C     1.9390961    2.1006280    2.3932995 
C     2.5069906    2.9451077    1.4112580 
C     2.8885173    4.2512381    1.7292634 
H     3.0098723    5.7670268    3.2795424 
H     1.9588753    4.3105814    5.0225364 
H     1.2724231    1.9847058    4.4565850 
H     2.6312236    2.5774532    0.3864900 
H     3.3217887    4.8938324    0.9562875 
C    -2.8343818    0.0130768   -1.4663498 
C    -2.4985408    1.4542795   -1.0139103 
C    -1.7950163   -0.6773251   -2.3855109 
C    -3.7684064    2.2916356   -0.7873382 
C    -1.3293655    0.2001368   -3.5575941 
C    -2.4086650    1.1024054    1.9080987 
C    -0.8424209    3.2361307    0.5879071 
C     0.9406268   -1.7788149   -2.5631320 
C    -1.1089986   -3.0092728   -0.8050978 
C    -3.3357046    2.0275340    2.4379665 
C    -0.4328046    3.9168331   -0.5804182 
C     1.7318559   -0.6874426   -2.9888514 
C    -1.0589500   -3.3599071    0.5583454 
C    -2.3465362   -0.1940647    2.4602267 
C    -0.7830754    3.9085855    1.8263993 
C     1.2089561   -3.0622666   -3.0743620 
C    -1.7353176   -3.8936567   -1.7117160 
C    -4.1718006    1.6568964    3.4995822 
C    -0.0240615    5.2546503   -0.5169496 
C     2.7280335   -0.8668503   -3.9554839 
C    -1.6110822   -4.5662529    1.0105130 
C    -3.1909309   -0.5647039    3.5154892 
C    -0.3758368    5.2479329    1.8829710 
C     2.2200900   -3.2389863   -4.0299535 
C    -2.2815128   -5.1025510   -1.2605729 
C    -4.1036170    0.3624269    4.0385227 
C    -0.0048107    5.9268313    0.7142210 
C     2.9680923   -2.1441371   -4.4847502 
C    -2.2205275   -5.4413207    0.1002366 
H    -3.7785158    0.0656531   -2.0405932 
H    -3.0581636   -0.6264676   -0.5890370 
H    -1.9094347    1.9448571   -1.8077843 
H    -2.2931573   -1.5646972   -2.8142647 
H    -3.5261004    3.3099248   -0.4385001 
H    -4.4389701    1.8163499   -0.0517303 
H    -4.3198907    2.3829301   -1.7401539 
H    -2.2110261    0.6349950   -4.0622748 
H    -0.6807948    1.0336467   -3.2363959 
H    -0.7666166   -0.3887692   -4.2986003 
H    -3.4025527    3.0395906    2.0287539 
H    -0.4312502    3.4065260   -1.5499633 
H     1.5663739    0.3060093   -2.5546426 
H    -0.5806445   -2.6779650    1.2684216 
H    -1.6286714   -0.9138517    2.0509413 
H    -1.0536280    3.3899660    2.7499295 
H     0.6462852   -3.9296352   -2.7187778 
H    -1.7953599   -3.6479035   -2.7777945 
H    -4.8827272    2.3836511    3.9060258 
H     0.2785080    5.7729498   -1.4327144 
H     3.3252784   -0.0112360   -4.2872699 
H    -1.5660315   -4.8210126    2.0744734 
H    -3.1328579   -1.5765400    3.9297541 
H    -0.3391192    5.7573733    2.8505479 
H     2.4258426   -4.2428387   -4.4150738 
H    -2.7588328   -5.7812589   -1.9748357 
H    -4.7610817    0.0788745    4.8668037 
H     0.3102611    6.9740631    0.7633471 
H     3.7505915   -2.2884714   -5.2367878 
H    -2.6523072   -6.3847006    0.4497751 
