90
Energy =
C     2.2681167    1.4059978    1.1266145 
C     2.6273056    0.0390811    0.9961034 
C     2.8604083   -0.5550332   -0.2733352 
H     2.5721367   -0.6154572    1.8749723 
Pd    0.7769874    0.2872628   -0.1734192 
P    -0.2600599   -1.1760315   -1.6479819 
P    -1.1461713    1.5542426    0.2367334 
H     2.5632819    2.0854716    0.3129817 
H     3.2126976    0.1036456   -1.0821053 
C     1.3619374    3.4247542    4.8227838 
C     1.5060156    4.1446999    3.6261767 
C     1.8078258    3.4754563    2.4344267 
C     1.9523627    2.0683391    2.4052968 
C     1.7969654    1.3567295    3.6189584 
C     1.5175506    2.0287815    4.8132146 
H     1.1372873    3.9478685    5.7579475 
H     1.3915634    5.2334227    3.6204721 
H     1.9273465    4.0473845    1.5089657 
H     1.8922297    0.2666762    3.6362245 
H     1.4114417    1.4585687    5.7417900 
C     3.7060628   -4.7278215   -0.9070241 
C     2.8741491   -4.3405207    0.1567093 
C     2.5934265   -2.9882610    0.3734872 
C     3.1360384   -1.9920671   -0.4703129 
C     3.9645240   -2.3967720   -1.5391354 
C     4.2502802   -3.7506617   -1.7526260 
H     3.9241585   -5.7872094   -1.0768184 
H     2.4382553   -5.0974910    0.8170256 
H     1.9291000   -2.7040528    1.1957306 
H     4.3898464   -1.6397701   -2.2059172 
H     4.8957700   -4.0425299   -2.5870574 
C    -2.7622019    0.1567392   -1.7622931 
C    -1.6288684   -0.3843974   -2.6691616 
C    -2.5283385    1.5098870   -1.0517229 
C    -1.0942317    0.6654464   -3.6570158 
C    -3.8447040    2.0954402   -0.5083641 
C     0.8264453   -1.9906675   -2.8838956 
C    -1.1425148   -2.5052316   -0.7396145 
C    -1.8613620    1.0445469    1.8427805 
C    -0.8062511    3.3581135    0.2919506 
C     1.6700752   -1.1669795   -3.6622985 
C    -2.0221197   -3.3983844   -1.3916624 
C    -1.4407473    1.6451597    3.0489620 
C     0.1493422    3.8489816   -0.6237215 
C     0.8726728   -3.3863042   -3.0647979 
C    -0.9730030   -2.6058664    0.6556145 
C    -2.7400369   -0.0608931    1.8979227 
C    -1.4862927    4.2647647    1.1292829 
C     2.4921170   -1.7246004   -4.6490518 
C    -2.7047779   -4.3769994   -0.6575908 
C    -1.9180796    1.1675262    4.2775483 
C     0.4296170    5.2196038   -0.6937753 
C     1.7120921   -3.9406118   -4.0422197 
C    -1.6573353   -3.5862600    1.3876878 
C    -3.2115738   -0.5324642    3.1287697 
C    -1.1902074    5.6343960    1.0684470 
C     2.5081460   -3.1140181   -4.8466539 
C    -2.5214309   -4.4741511    0.7316809 
C    -2.8056853    0.0835007    4.3229620 
C    -0.2336477    6.1138279    0.1614582 
H    -3.0680785   -0.6206385   -1.0394396 
H    -3.6406100    0.3061050   -2.4196461 
H    -2.0567401   -1.2202184   -3.2531994 
H    -2.1279794    2.2211464   -1.7977375 
H    -0.4957073    0.1992654   -4.4550571 
H    -0.4649094    1.4230531   -3.1541575 
H    -1.9396500    1.1911787   -4.1361804 
H    -4.5586294    2.2261575   -1.3410222 
H    -4.3101121    1.4327571    0.2395001 
H    -3.6872402    3.0824862   -0.0436750 
H     1.6935428   -0.0856293   -3.4861384 
H    -2.1755471   -3.3370787   -2.4745664 
H    -0.7401800    2.4842536    3.0366470 
H     0.6835802    3.1471960   -1.2768675 
H     0.2707744   -4.0467820   -2.4345875 
H    -0.3183347   -1.8922163    1.1695908 
H    -3.0525516   -0.5683217    0.9816728 
H    -2.2403059    3.9067634    1.8367442 
H     3.1315011   -1.0743270   -5.2551140 
H    -3.3831271   -5.0658078   -1.1715176 
H    -1.5836512    1.6489101    5.2020144 
H     1.1724650    5.5889747   -1.4082413 
H     1.7455976   -5.0275890   -4.1679886 
H    -1.5214159   -3.6465340    2.4722699 
H    -3.8964526   -1.3864122    3.1517789 
H    -1.7145731    6.3297471    1.7319912 
H     3.1556218   -3.5517935   -5.6132897 
H    -3.0580447   -5.2400206    1.3012294 
H    -3.1778665   -0.2835517    5.2849550 
H    -0.0073137    7.1841179    0.1179228 
