90
Energy =
C     2.2928472    1.4380664    0.9176726 
C     2.6149053    0.0560244    0.9568934 
C     2.8144240   -0.7034878   -0.2248294 
H     2.5573120   -0.4593977    1.9238684 
Pd    0.7384230    0.2427448   -0.1805353 
P    -0.4277540   -1.2312676   -1.5751472 
P    -1.0702423    1.6472226    0.2651162 
H     2.6270006    2.0152455    0.0414460 
H     3.1296522   -0.1604749   -1.1276764 
C     1.6386233    3.7690585    4.4729688 
C     2.3086910    4.3198705    3.3709220 
C     2.4910294    3.5627191    2.2068069 
C     2.0257772    2.2327649    2.1334582 
C     1.3377675    1.6934307    3.2449516 
C     1.1453549    2.4550669    4.4020534 
H     1.4920172    4.3628116    5.3811428 
H     2.6840615    5.3473464    3.4132221 
H     3.0054304    4.0021624    1.3455076 
H     0.9283472    0.6785858    3.1913857 
H     0.6041878    2.0244842    5.2510740 
C     3.6125772   -4.9350544   -0.3574829 
C     3.2232984   -4.3380590    0.8531551 
C     2.9523685   -2.9672215    0.9104313 
C     3.0854144   -2.1525709   -0.2399307 
C     3.4978723   -2.7655336   -1.4464397 
C     3.7475557   -4.1415260   -1.5075448 
H     3.8160976   -6.0098890   -0.4014772 
H     3.1208756   -4.9473609    1.7570648 
H     2.6262562   -2.5324355    1.8602202 
H     3.6132698   -2.1551943   -2.3470416 
H     4.0556149   -4.5934456   -2.4558522 
C    -2.8604792    0.3364608   -1.4878304 
C    -1.9905237   -0.5618067   -2.4019544 
C    -2.3234451    1.7442316   -1.1370777 
C    -1.6698327    0.1315962   -3.7399657 
C    -3.4823256    2.7192583   -0.8652571 
C     0.5767966   -1.8116005   -2.9984822 
C    -0.9554266   -2.7420820   -0.6752351 
C    -2.0071895    1.0065391    1.7076583 
C    -0.6445400    3.4046593    0.5621641 
C     0.4102324   -3.0838285   -3.5806168 
C    -2.2521365   -2.8787111   -0.1340959 
C    -1.6924149   -0.2906751    2.1677431 
C    -0.8260498    4.0585773    1.7949236 
C     1.4952315   -0.9050690   -3.5680036 
C    -0.0029993   -3.7563933   -0.4303383 
C    -3.0610704    1.7154960    2.3280745 
C    -0.0656040    4.1110393   -0.5160418 
C     1.1727828   -3.4478634   -4.6997726 
C    -2.5862988   -4.0034649    0.6326689 
C    -2.4134266   -0.8709215    3.2200739 
C    -0.4735670    5.4094173    1.9315704 
C     2.2411048   -1.2651965   -4.6976440 
C    -0.3447999   -4.8788849    0.3343889 
C    -3.7731274    1.1349098    3.3863890 
C     0.2851785    5.4588216   -0.3727666 
C     2.0872869   -2.5424719   -5.2593151 
C    -1.6342813   -5.0053666    0.8716637 
C    -3.4533386   -0.1572265    3.8327523 
C     0.0717920    6.1142838    0.8506444 
H    -3.1285011   -0.1838177   -0.5498628 
H    -3.8163987    0.4785745   -2.0271542 
H    -2.5796606   -1.4724853   -2.6202632 
H    -1.7276297    2.1385012   -1.9808328 
H    -1.2774909   -0.5804270   -4.4820799 
H    -0.9242119    0.9387097   -3.6261482 
H    -2.5931031    0.5802885   -4.1481891 
H    -4.0474826    2.8822091   -1.8002207 
H    -4.1838555    2.3065894   -0.1208987 
H    -3.1224628    3.6990991   -0.5092449 
H    -0.3064613   -3.7948121   -3.1573713 
H    -3.0137894   -2.1127814   -0.2988383 
H    -0.8774727   -0.8491049    1.6897737 
H    -1.2150979    3.5152221    2.6596540 
H     1.6254385    0.0872883   -3.1194721 
H     1.0023200   -3.6800436   -0.8518300 
H    -3.3248573    2.7229887    1.9952307 
H     0.1153306    3.6059262   -1.4727863 
H     1.0471691   -4.4428824   -5.1390632 
H    -3.5979512   -4.0947465    1.0413229 
H    -2.1603138   -1.8815277    3.5564130 
H    -0.6151523    5.9048794    2.8971710 
H     2.9491003   -0.5531283   -5.1340878 
H     0.4073647   -5.6553942    0.5063396 
H    -4.5841127    1.6951194    3.8631080 
H     0.7256116    5.9987829   -1.2173858 
H     2.6782727   -2.8309421   -6.1346489 
H    -1.8987231   -5.8839271    1.4691025 
H    -4.0159117   -0.6055048    4.6582678 
H     0.3434476    7.1689327    0.9622733 
