90
Energy =
C     1.4923523    2.3422501   -0.6720586 
C     1.7731533    2.0345232    0.6851403 
C     2.5540496    0.9087367    1.0539999 
H     1.2440967    2.6001607    1.4623779 
Pd    0.7248321    0.2929970   -0.1624475 
P     0.4457033   -1.9079958    0.5832937 
P    -1.0843932    0.2886740   -1.6338617 
H     2.2135909    2.0024514   -1.4316512 
H     3.2733012    0.5285440    0.3141045 
C    -0.8979708    5.7227948   -1.8374503 
C     0.2264096    5.3501309   -2.5882543 
C     0.9811775    4.2300121   -2.2178962 
C     0.6370008    3.4763460   -1.0759540 
C    -0.5079132    3.8520218   -0.3360887 
C    -1.2679300    4.9633560   -0.7144362 
H    -1.4906626    6.5956992   -2.1299666 
H     0.5134463    5.9287220   -3.4721363 
H     1.8519583    3.9375705   -2.8143306 
H    -0.8188903    3.2528548    0.5268872 
H    -2.1555598    5.2364899   -0.1342534 
C     3.3831681   -0.3267054    5.0969561 
C     2.4220416    0.6693927    4.8570020 
C     2.1346603    1.0741391    3.5495889 
C     2.8193070    0.5073289    2.4474809 
C     3.7976397   -0.4809557    2.7073813 
C     4.0685995   -0.9010340    4.0149009 
H     3.6005882   -0.6472950    6.1209384 
H     1.8855984    1.1271653    5.6945371 
H     1.3632942    1.8337250    3.3892902 
H     4.3432888   -0.9295680    1.8719414 
H     4.8235712   -1.6745314    4.1887281 
C    -1.7255712   -2.4389807   -1.2594161 
C    -1.4546536   -1.4020759   -2.3753289 
C    -0.5032474   -3.0806315   -0.5571855 
C    -2.5999787   -1.3929482   -3.4028176 
C     0.4350246   -3.7669921   -1.5684195 
C    -2.6113699    0.7714597   -0.7368285 
C    -0.8991684    1.3595255   -3.1092948 
C     2.0387646   -2.7839098    0.8410930 
C    -0.4350115   -1.9678037    2.1931628 
C    -2.5485306    0.8437651    0.6717354 
C    -1.6922372    2.4954584   -3.3570685 
C     2.2056590   -3.7907480    1.8125521 
C    -1.8288358   -2.1769440    2.2752786 
C    -3.8478445    1.0081074   -1.3796950 
C     0.1327082    1.0261941   -4.0152764 
C     3.1051382   -2.4801597   -0.0306465 
C     0.2856871   -1.6959533    3.3774359 
C    -3.6926380    1.1415093    1.4243410 
C    -1.4825912    3.2591347   -4.5148971 
C     3.4319404   -4.4618066    1.9231279 
C    -2.4838545   -2.1169706    3.5129338 
C    -4.9873874    1.3141323   -0.6235549 
C     0.3374466    1.7931827   -5.1685592 
C     4.3224142   -3.1659323    0.0702754 
C    -0.3750881   -1.6408607    4.6112033 
C    -4.9134008    1.3796421    0.7769687 
C    -0.4779844    2.9072266   -5.4257792 
C     4.4901454   -4.1520874    1.0550814 
C    -1.7605403   -1.8469915    4.6840007 
H    -2.2807200   -3.2770967   -1.7223921 
H    -2.4241422   -1.9957560   -0.5262435 
H    -0.5165518   -1.6562537   -2.9020519 
H    -0.8917903   -3.8549498    0.1309256 
H    -2.4817664   -0.5866674   -4.1459568 
H    -3.5789034   -1.2789893   -2.9076331 
H    -2.6112687   -2.3562959   -3.9431285 
H    -0.1657856   -4.3761279   -2.2673169 
H     1.0128257   -3.0392439   -2.1658993 
H     1.1559620   -4.4309756   -1.0674039 
H    -1.5929239    0.6586496    1.1785305 
H    -2.4556537    2.8066571   -2.6396590 
H     1.3839404   -4.0464833    2.4890417 
H    -2.4197327   -2.3837538    1.3798145 
H    -3.9250962    0.9636218   -2.4694343 
H     0.7823477    0.1644774   -3.8187858 
H     2.9775387   -1.7001174   -0.7910240 
H     1.3672232   -1.5440050    3.3405535 
H    -3.6258556    1.1844550    2.5162535 
H    -2.1028970    4.1430690   -4.6931860 
H     3.5583730   -5.2342642    2.6887635 
H    -3.5648325   -2.2851306    3.5583279 
H    -5.9389196    1.5004014   -1.1321522 
H     1.1346919    1.5210766   -5.8680605 
H     5.1429701   -2.9250833   -0.6134439 
H     0.2042610   -1.4349994    5.5168436 
H    -5.8083870    1.6170272    1.3614093 
H    -0.3196065    3.5059025   -6.3285626 
H     5.4444605   -4.6813254    1.1438301 
H    -2.2742646   -1.8033619    5.6498553 
