90
Energy =
C     1.5013220    2.3137253   -0.8478826 
C     1.8175162    2.0816899    0.5162029 
C     2.6182689    0.9918935    0.9436983 
H     1.2941673    2.6843859    1.2688996 
Pd    0.7802820    0.2816901   -0.2228111 
P     0.5615308   -1.9107712    0.5603526 
P    -1.1082842    0.1983965   -1.6051330 
H     2.2064453    1.9444125   -1.6087209 
H     3.3319159    0.5651238    0.2239262 
C    -0.9445671    5.6277363   -2.0855884 
C    -1.2705633    4.9211897   -0.9155941 
C    -0.4959689    3.8275238   -0.5160829 
C     0.6226030    3.4195702   -1.2792610 
C     0.9202937    4.1176651   -2.4685634 
C     0.1490774    5.2183995   -2.8622534 
H    -1.5487036    6.4867932   -2.3951426 
H    -2.1358894    5.2213420   -0.3154066 
H    -0.7751779    3.2670319    0.3832821 
H     1.7694673    3.7990661   -3.0823391 
H     0.3999470    5.7539422   -3.7834692 
C     3.4517567    0.0328110    5.0643658 
C     2.5082793    1.0279249    4.7578991 
C     2.2318239    1.3531028    3.4261397 
C     2.8957179    0.6923736    2.3624068 
C     3.8591922   -0.2880009    2.6905236 
C     4.1287204   -0.6189526    4.0236759 
H     3.6632906   -0.2227875    6.1076189 
H     1.9864850    1.5558087    5.5631327 
H     1.4858519    2.1267310    3.2172422 
H     4.3972500   -0.8013631    1.8886051 
H     4.8739042   -1.3890245    4.2473708 
C    -1.5462782   -2.5878897   -1.2320994 
C    -1.4904980   -1.4991223   -2.3277346 
C    -0.1956354   -3.1040943   -0.6735333 
C    -2.7622062   -1.5292139   -3.1930546 
C     0.7940754   -3.4989886   -1.7841711 
C    -2.5878543    0.6568446   -0.6185317 
C    -1.0395332    1.2496096   -3.1062862 
C     2.1458411   -2.7082580    1.0344281 
C    -0.5017651   -2.0132263    2.0542064 
C    -3.8676124    0.8645217   -1.1821990 
C    -0.0485694    0.9309609   -4.0617003 
C     3.2537707   -2.5588495    0.1721411 
C    -0.2168447   -1.0982401    3.0905761 
C    -2.4393956    0.7382381    0.7828680 
C    -1.8840342    2.3521619   -3.3336310 
C     2.2836981   -3.4632107    2.2147265 
C    -1.5708872   -2.9174903    2.2127981 
C    -4.9638687    1.1462934   -0.3558029 
C     0.0632935    1.6752864   -5.2422837 
C     4.4730039   -3.1786576    0.4729098 
C    -0.9866076   -1.0835245    4.2590310 
C    -3.5400267    1.0088073    1.6063448 
C    -1.7667364    3.0942066   -4.5181361 
C     3.5129480   -4.0657240    2.5216710 
C    -2.3491384   -2.8898731    3.3801827 
C    -4.8046620    1.2150957    1.0372821 
C    -0.8043708    2.7536508   -5.4777286 
C     4.6049237   -3.9306302    1.6520631 
C    -2.0624020   -1.9743666    4.4027599 
H    -2.0518124   -3.4660530   -1.6774635 
H    -2.2078982   -2.2465407   -0.4131273 
H    -0.6241425   -1.6839604   -2.9883534 
H    -0.4078753   -4.0127036   -0.0798192 
H    -2.7837168   -0.7012930   -3.9216101 
H    -3.6710674   -1.4800409   -2.5702384 
H    -2.7950476   -2.4784403   -3.7570524 
H     0.2728286   -4.1143941   -2.5391625 
H     1.2176191   -2.6179943   -2.2993279 
H     1.6320759   -4.0910492   -1.3848192 
H    -4.0142921    0.8151620   -2.2642063 
H     0.6442094    0.0995677   -3.8821011 
H     3.1616231   -1.9480594   -0.7335836 
H     0.6206908   -0.4017484    2.9858478 
H    -1.4505078    0.5806351    1.2291722 
H    -2.6175162    2.6534848   -2.5818547 
H     1.4367046   -3.5718298    2.8996995 
H    -1.8101407   -3.6516165    1.4382535 
H    -5.9492719    1.3098209   -0.8041977 
H     0.8298713    1.4138487   -5.9791423 
H     5.3247040   -3.0648870   -0.2056797 
H    -0.7421740   -0.3740445    5.0565659 
H    -3.4042443    1.0544339    2.6916438 
H    -2.4265998    3.9522409   -4.6803250 
H     3.6151575   -4.6441305    3.4456571 
H    -3.1808238   -3.5934125    3.4900032 
H    -5.6671777    1.4305830    1.6764497 
H    -0.7185758    3.3352513   -6.4012525 
H     5.5608764   -4.4064838    1.8937149 
H    -2.6720588   -1.9600931    5.3121185 
