90
Energy =
C     1.5130424    2.4456823   -0.7746147 
C     1.8025580    2.1796239    0.5940004 
C     2.5876634    1.0642873    0.9809044 
H     1.2729906    2.7588324    1.3610497 
Pd    0.7637924    0.4185394   -0.2073035 
P     0.3842080   -1.7034895    0.7139785 
P    -0.9381970    0.2032578   -1.7951896 
H     2.2523427    2.1210051   -1.5229291 
H     3.2833461    0.6585334    0.2310298 
C    -1.0060832    5.7096068   -2.0071635 
C    -1.3325037    4.9742755   -0.8553737 
C    -0.5314428    3.8991653   -0.4573665 
C     0.6158975    3.5388807   -1.2019522 
C     0.9148824    4.2668398   -2.3729988 
C     0.1159636    5.3477069   -2.7664853 
H    -1.6310195    6.5539281   -2.3159302 
H    -2.2184686    5.2377426   -0.2681411 
H    -0.8095677    3.3166971    0.4283496 
H     1.7878132    3.9877867   -2.9724784 
H     0.3685986    5.9055993   -3.6738425 
C     3.5387917   -0.1296894    5.0063468 
C     4.1651424   -0.7392478    3.9074241 
C     3.8477838   -0.3357848    2.6051960 
C     2.8848474    0.6741712    2.3701602 
C     2.2551735    1.2714235    3.4878183 
C     2.5870637    0.8804533    4.7890402 
H     3.7939086   -0.4357225    6.0261069 
H     4.9095831   -1.5264646    4.0643132 
H     4.3452334   -0.8123151    1.7546088 
H     1.4976558    2.0482305    3.3444803 
H     2.0942367    1.3616687    5.6400132 
C    -0.2609553   -2.6043898   -1.8279354 
C    -0.9311990   -1.4883000   -2.6613722 
C    -0.7511424   -2.7447297   -0.3634073 
C    -2.2984704   -1.9145995   -3.2172025 
C    -0.8539623   -4.2051711    0.1005142 
C    -2.5523366    0.4551068   -0.9461840 
C    -0.9259890    1.3610138   -3.2215848 
C     1.9261696   -2.6917921    0.8361081 
C    -0.3760900   -1.7091938    2.3800605 
C    -3.7963895    0.4454716   -1.6181568 
C    -1.8690239    2.3960480   -3.3721966 
C     2.9628182   -2.4262554   -0.0837958 
C    -1.7780825   -1.7897534    2.5349434 
C    -2.5337666    0.7074318    0.4422416 
C     0.1185099    1.2413090   -4.1656314 
C     2.0911488   -3.7282783    1.7783681 
C     0.4316599   -1.5372070    3.5254203 
C    -4.9849540    0.6607152   -0.9084967 
C    -1.7992870    3.2563682   -4.4774440 
C     4.1430434   -3.1815953   -0.0641640 
C    -2.3555880   -1.7058580    3.8085088 
C    -3.7246506    0.9211127    1.1498831 
C     0.1816709    2.1020671   -5.2681069 
C     3.2797734   -4.4704287    1.8060387 
C    -0.1534961   -1.4563452    4.7957946 
C    -4.9532667    0.8939399    0.4757769 
C    -0.7862170    3.1049513   -5.4332268 
C     4.3053122   -4.2006444    0.8865895 
C    -1.5457568   -1.5383264    4.9422813 
H     0.8369729   -2.4724692   -1.8438225 
H    -0.4466323   -3.5594013   -2.3531968 
H    -0.2689137   -1.2869158   -3.5223227 
H    -1.7441167   -2.2629255   -0.2713573 
H    -2.7202764   -1.1475776   -3.8879083 
H    -3.0271025   -2.1168289   -2.4130739 
H    -2.1768242   -2.8408970   -3.8061308 
H    -1.6140208   -4.7328753   -0.5027871 
H     0.1082769   -4.7295774   -0.0277134 
H    -1.1486706   -4.2772899    1.1613382 
H    -3.8426726    0.2908364   -2.6987333 
H    -2.6528955    2.5446467   -2.6250215 
H     2.8469865   -1.6110802   -0.8087316 
H    -2.4306461   -1.9161979    1.6664983 
H    -1.5718017    0.7344968    0.9698009 
H     0.8933897    0.4749674   -4.0415246 
H     1.2960996   -3.9503494    2.4970652 
H     1.5191866   -1.4781875    3.4293193 
H    -5.9410811    0.6505519   -1.4418047 
H    -2.5393661    4.0560261   -4.5813982 
H     4.9399001   -2.9672071   -0.7837654 
H    -3.4433391   -1.7768494    3.9129117 
H    -3.6864593    1.1062649    2.2282084 
H     0.9898251    1.9900412   -5.9983413 
H     3.4032347   -5.2661975    2.5478866 
H     0.4897535   -1.3259631    5.6718353 
H    -5.8859371    1.0618409    1.0242896 
H    -0.7393013    3.7763568   -6.2966670 
H     5.2311013   -4.7846265    0.9116532 
H    -1.9993894   -1.4765040    5.9368187 
