90
Energy =
C     1.4477844    2.4779559   -0.7986429 
C     1.7503667    2.2309737    0.5709292 
C     2.5644236    1.1390498    0.9642668 
H     1.2092546    2.8031099    1.3352350 
Pd    0.7536148    0.4379772   -0.2135976 
P     0.4301567   -1.6885377    0.7231498 
P    -0.9464386    0.1659291   -1.7947545 
H     2.1923184    2.1676088   -1.5478566 
H     3.2674039    0.7438717    0.2155690 
C    -1.1632820    5.6653621   -2.0408923 
C    -1.4656651    4.9279093   -0.8838964 
C    -0.6342435    3.8772472   -0.4828197 
C     0.5201570    3.5443230   -1.2292613 
C     0.7954769    4.2738023   -2.4051515 
C    -0.0342105    5.3300141   -2.8020342 
H    -1.8124611    6.4900828   -2.3525943 
H    -2.3566047    5.1703178   -0.2951383 
H    -0.8934486    3.2920806    0.4068076 
H     1.6740046    4.0157025   -3.0058380 
H     0.1999560    5.8893433   -3.7134475 
C     3.5503023    0.0005309    4.9974889 
C     4.1905562   -0.6015601    3.9024780 
C     3.8624679   -0.2156216    2.5975689 
C     2.8744614    0.7682104    2.3560149 
C     2.2317916    1.3586550    3.4699253 
C     2.5744217    0.9859023    4.7736724 
H     3.8130417   -0.2922065    6.0192126 
H     4.9540161   -1.3692879    4.0644462 
H     4.3709635   -0.6860023    1.7501158 
H     1.4554838    2.1157379    3.3216988 
H     2.0707427    1.4613407    5.6215363 
C    -0.1939288   -2.6224339   -1.8121652 
C    -0.8938913   -1.5292111   -2.6516036 
C    -0.6782761   -2.7663593   -0.3460423 
C    -2.2491749   -1.9951960   -3.2050431 
C    -0.7405932   -4.2261808    0.1272390 
C    -2.5642668    0.3769615   -0.9413016 
C    -0.9717197    1.3156910   -3.2274334 
C     1.9980860   -2.6342871    0.8506179 
C    -0.3276114   -1.7025068    2.3902653 
C    -3.8101436    0.3256150   -1.6080226 
C     0.0736367    1.2215965   -4.1734576 
C     3.0252348   -2.3497616   -0.0742167 
C     0.4767900   -1.4941603    3.5319800 
C    -2.5477087    0.6407490    0.4450202 
C    -1.9451961    2.3216542   -3.3812276 
C     2.1935758   -3.6556753    1.8034416 
C    -1.7259885   -1.8256775    2.5493300 
C    -5.0017074    0.5113289   -0.8950510 
C     0.1087922    2.0777852   -5.2807405 
C     4.2261833   -3.0714768   -0.0489319 
C    -0.1076765   -1.4202914    4.8030284 
C    -3.7415212    0.8252237    1.1558972 
C    -1.9031962    3.1779170   -4.4910294 
C     3.4026734   -4.3637625    1.8367398 
C    -2.3029819   -1.7482642    3.8235718 
C    -4.9714562    0.7564875    0.4871863 
C    -0.8883317    3.0511733   -5.4485264 
C     4.4187602   -4.0750497    0.9125821 
C    -1.4963193   -1.5451289    4.9537480 
H     0.9001574   -2.4621872   -1.8304102 
H    -0.3555242   -3.5851977   -2.3311589 
H    -0.2371953   -1.3146023   -3.5136780 
H    -1.6838378   -2.3110380   -0.2555870 
H    -2.6926616   -1.2423554   -3.8778491 
H    -2.9711295   -2.2151952   -2.3995898 
H    -2.1021121   -2.9196297   -3.7910645 
H    -1.4870084   -4.7781958   -0.4713175 
H     0.2354180   -4.7248549    0.0005103 
H    -1.0313755   -4.2997597    1.1890536 
H    -3.8561377    0.1619415   -2.6872354 
H     0.8711320    0.4792580   -4.0468816 
H     2.8856443   -1.5456744   -0.8073599 
H     1.5616835   -1.4021759    3.4324437 
H    -1.5849357    0.6998095    0.9684873 
H    -2.7312727    2.4510342   -2.6328197 
H     1.4065504   -3.8916734    2.5265260 
H    -2.3761146   -1.9803274    1.6836405 
H    -5.9592126    0.4689237   -1.4242844 
H     0.9178444    1.9852885   -6.0127061 
H     5.0153652   -2.8427764   -0.7725713 
H     0.5330958   -1.2619460    5.6762677 
H    -3.7045438    1.0200292    2.2325442 
H    -2.6666821    3.9549239   -4.5974278 
H     3.5497841   -5.1475457    2.5869821 
H    -3.3877440   -1.8521684    3.9313684 
H    -5.9065031    0.9010946    1.0382798 
H    -0.8628449    3.7194414   -6.3152851 
H     5.3607659   -4.6322557    0.9422450 
H    -1.9494607   -1.4887672    5.9488329 
