90
Energy =
C     1.5238444    2.3004606   -0.8448015 
C     1.8360350    2.0640478    0.5192813 
C     2.6249407    0.9653822    0.9466470 
H     1.3181352    2.6714854    1.2719453 
Pd    0.7821454    0.2741400   -0.2206099 
P     0.5447716   -1.9169760    0.5586489 
P    -1.1068987    0.2103102   -1.6036158 
H     2.2255036    1.9239038   -1.6052739 
H     3.3357834    0.5326606    0.2276452 
C    -0.8905070    5.6365761   -2.0848100 
C    -1.2240129    4.9330420   -0.9151208 
C    -0.4595018    3.8326755   -0.5146531 
C     0.6561243    3.4146636   -1.2766992 
C     0.9614520    4.1101746   -2.4655788 
C     0.2005535    5.2177768   -2.8600519 
H    -1.4868426    6.5007639   -2.3952160 
H    -2.0874345    5.2407345   -0.3160062 
H    -0.7446876    3.2747539    0.3844415 
H     1.8084252    3.7839970   -3.0784210 
H     0.4573776    5.7512766   -3.7808138 
C     3.4459416   -0.0035904    5.0676198 
C     2.5103393    0.9988256    4.7608274 
C     2.2377482    1.3269516    3.4289891 
C     2.8978291    0.6620281    2.3655225 
C     3.8531174   -0.3261904    2.6939630 
C     4.1187235   -0.6600583    4.0271853 
H     3.6546704   -0.2612578    6.1109301 
H     1.9919083    1.5302954    5.5658779 
H     1.4978558    2.1063601    3.2198381 
H     4.3880446   -0.8431661    1.8922531 
H     4.8575738   -1.4361430    4.2511174 
C    -1.5700087   -2.5728312   -1.2325883 
C    -1.5088876   -1.4825809   -2.3263830 
C    -0.2215764   -3.1003220   -0.6790302 
C    -2.7847045   -1.4987371   -3.1859514 
C     0.7639082   -3.4962453   -1.7930098 
C    -2.5808955    0.6867405   -0.6171294 
C    -1.0260605    1.2597127   -3.1055106 
C     2.1220411   -2.7289055    1.0317800 
C    -0.5206052   -2.0150805    2.0512995 
C    -3.8579488    0.9108935   -1.1806330 
C    -0.0392558    0.9286480   -4.0610223 
C     2.2533078   -3.4854588    2.2118127 
C    -1.5902138   -2.9187447    2.2103376 
C    -2.4312013    0.7667488    0.7842287 
C    -1.8577999    2.3717712   -3.3337495 
C     3.2314593   -2.5883367    0.1698828 
C    -0.2357747   -1.0992151    3.0868803 
C    -4.9501936    1.2077832   -0.3542152 
C     0.0803352    1.6699959   -5.2427333 
C     3.4774656   -4.0981581    2.5189513 
C    -2.3689992   -2.8896317    3.3772971 
C    -3.5279531    1.0524454    1.6077465 
C    -1.7327735    3.1108328   -4.5193402 
C     4.4454169   -3.2183504    0.4707834 
C    -1.0061921   -1.0828763    4.2549091 
C    -4.7898232    1.2753646    1.0387898 
C    -0.7752992    2.7576988   -5.4792860 
C     4.5707786   -3.9717930    1.6497246 
C    -2.0823817   -1.9731323    4.3990342 
H    -2.0835840   -3.4461609   -1.6782588 
H    -2.2265297   -2.2281099   -0.4109155 
H    -0.6475028   -1.6747330   -2.9913743 
H    -0.4384309   -4.0102713   -0.0890942 
H    -2.8007818   -0.6699585   -3.9136849 
H    -3.6902178   -1.4406398   -2.5590331 
H    -2.8298943   -2.4470114   -3.7506916 
H     0.2377251   -4.1046309   -2.5502616 
H     1.1923973   -2.6154068   -2.3043421 
H     1.5985632   -4.0957104   -1.3976959 
H    -4.0055923    0.8625861   -2.2625565 
H     0.6442003    0.0897289   -3.8807056 
H     1.4052594   -3.5872582    2.8965215 
H    -1.8292413   -3.6536525    1.4364356 
H    -1.4443601    0.5962155    1.2303222 
H    -2.5871731    2.6826318   -2.5818668 
H     3.1447997   -1.9762715   -0.7355201 
H     0.6024024   -0.4034979    2.9819280 
H    -5.9334246    1.3840938   -0.8025331 
H     0.8434429    1.3988059   -5.9796704 
H     3.5746483   -4.6775872    3.4428396 
H    -3.2010174   -3.5927230    3.4874882 
H    -3.3914029    1.0970526    2.6930028 
H    -2.3826566    3.9763365   -4.6821374 
H     5.2982445   -3.1113133   -0.2074859 
H    -0.7619660   -0.3726271    5.0518231 
H    -5.6492565    1.5027472    1.6779891 
H    -0.6840083    3.3364883   -6.4040507 
H     5.5227088   -4.4555777    1.8915102 
H    -2.6924751   -1.9576846    5.3080819 
