90
Energy =
C     1.8421068    1.3583792    1.7806810 
C     1.9457985    2.1187111    0.5946165 
C     0.8235256    2.7500432   -0.0101320 
H     2.8984452    2.1173130    0.0518945 
Pd    0.4775518    0.5239310    0.1157215 
P    -1.3250827    0.3527870   -1.3835930 
P     0.3206249   -1.7266123    0.7383482 
H     0.9531189    1.5257513    2.4082256 
H    -0.0180597    3.0204053    0.6446976 
C     5.1059753   -0.4893562    3.8918190 
C     3.7858952   -0.6359541    4.3437215 
C     2.7359776   -0.0345384    3.6436948 
C     2.9743862    0.7155356    2.4686477 
C     4.3114896    0.8494961    2.0248596 
C     5.3633337    0.2596176    2.7324226 
H     5.9311062   -0.9524847    4.4422885 
H     3.5742335   -1.2200652    5.2446525 
H     1.7106142   -0.1505499    4.0093979 
H     4.5398450    1.4390191    1.1313723 
H     6.3921084    0.3889166    2.3806111 
C     1.1513272    5.2211032   -3.5152241 
C     2.1103213    4.2226546   -3.2788211 
C     1.9937333    3.3840385   -2.1666402 
C     0.9242317    3.5370793   -1.2520815 
C    -0.0477357    4.5267385   -1.5205652 
C     0.0664911    5.3616373   -2.6375485 
H     1.2450216    5.8792447   -4.3850807 
H     2.9517720    4.0963448   -3.9681893 
H     2.7434122    2.6011761   -2.0081931 
H    -0.8916774    4.6497887   -0.8331518 
H    -0.6946757    6.1260335   -2.8230368 
C    -1.2838655   -2.4845077   -1.5157154 
C    -0.0193150   -2.8690814   -0.7111825 
C    -1.2135521   -1.2262255   -2.4131989 
C     1.2274563   -2.9991349   -1.6067960 
C    -2.2210011   -1.3370962   -3.5738778 
C     1.8000389   -2.4870867    1.5119554 
C    -1.0188964   -2.0289611    1.9611044 
C    -2.9051751    0.2835565   -0.4480846 
C    -1.5549157    1.6556004   -2.6496899 
C     3.0740883   -2.1334578    1.0212333 
C    -1.0431292   -1.1957381    3.1006695 
C    -4.1429160   -0.0220863   -1.0589806 
C    -0.5834535    1.7779209   -3.6673050 
C     1.6906516   -3.4492526    2.5359460 
C    -1.9928388   -3.0388204    1.8371076 
C    -2.8777394    0.5495301    0.9356190 
C    -2.6716970    2.5149675   -2.6538471 
C     4.2204824   -2.7582555    1.5251386 
C    -2.0136400   -1.3672180    4.0934115 
C    -5.3116033   -0.0916504   -0.2897374 
C    -0.7575600    2.7066450   -4.6988652 
C     2.8439876   -4.0618934    3.0458628 
C    -2.9779165   -3.1969781    2.8242873 
C    -4.0485243    0.4831341    1.7025697 
C    -2.8377521    3.4463476   -3.6894853 
C     4.1067269   -3.7225435    2.5383346 
C    -2.9908404   -2.3656564    3.9523316 
C    -5.2660138    0.1531133    1.0920279 
C    -1.8901358    3.5358907   -4.7177874 
H    -2.1651013   -2.4029595   -0.8527344 
H    -1.4900299   -3.3424265   -2.1842068 
H    -0.2078452   -3.8562147   -0.2485002 
H    -0.2015057   -1.1446416   -2.8511866 
H     2.0483037   -3.5128910   -1.0829480 
H     1.6027238   -2.0139299   -1.9383663 
H     0.9751408   -3.5886735   -2.5061549 
H    -1.8824779   -2.1286783   -4.2658130 
H    -3.2217073   -1.6256668   -3.2128983 
H    -2.3068916   -0.3992408   -4.1458943 
H     3.1635640   -1.3620048    0.2479265 
H    -0.2953503   -0.4024510    3.2029194 
H    -4.2031626   -0.1854979   -2.1375522 
H     0.3095528    1.1428953   -3.6583675 
H     0.7075856   -3.7200223    2.9350115 
H    -1.9944678   -3.7161080    0.9785036 
H    -1.9241844    0.8036228    1.4120371 
H    -3.4199328    2.4510211   -1.8579914 
H     5.2055003   -2.4775051    1.1403894 
H    -2.0132089   -0.7163382    4.9739656 
H    -6.2637009   -0.3321763   -0.7739583 
H    -0.0005593    2.7914075   -5.4845406 
H     2.7537267   -4.8092778    3.8410317 
H    -3.7336049   -3.9810103    2.7109828 
H    -4.0042327    0.6826343    2.7774935 
H    -3.7144536    4.1023385   -3.6901021 
H     5.0051757   -4.2030191    2.9390596 
H    -3.7586227   -2.4961451    4.7217657 
H    -6.1821545    0.0950508    1.6888456 
H    -2.0242464    4.2606613   -5.5271779 
