90
Energy =
C     1.2580095    1.6968804    2.0391012 
C     1.7155244    2.2484622    0.8219137 
C     0.7930388    2.8583861   -0.0884581 
H     2.7557943    2.0898822    0.5086497 
Pd    0.2443275    0.7355620    0.2151646 
P    -1.2836774    0.4657203   -1.5264685 
P     0.2253686   -1.5497952    0.7810236 
H     0.2870805    2.0629655    2.4089288 
H    -0.0854893    3.3576284    0.3471623 
C     3.5318122   -0.3349828    5.0660916 
C     2.3209196    0.2998154    5.3811389 
C     1.5901494    0.9512382    4.3803040 
C     2.0694603    1.0052544    3.0503154 
C     3.3041770    0.3821359    2.7535407 
C     4.0193050   -0.2913044    3.7476741 
H     4.0977984   -0.8584213    5.8434531 
H     1.9388241    0.2784640    6.4069097 
H     0.6339185    1.4260199    4.6258440 
H     3.6979324    0.4030533    1.7341470 
H     4.9622408   -0.7858908    3.4936359 
C     2.0313095    4.3606753   -3.9283795 
C     2.5990545    3.1780572   -3.4255642 
C     2.1886954    2.6736485   -2.1872772 
C     1.2052776    3.3435090   -1.4212147 
C     0.6264466    4.5162488   -1.9510694 
C     1.0406239    5.0227738   -3.1891937 
H     2.3543282    4.7574188   -4.8963040 
H     3.3637566    2.6480145   -4.0032002 
H     2.6236493    1.7398706   -1.8112928 
H    -0.1465654    5.0400682   -1.3791871 
H     0.5842434    5.9381159   -3.5791745 
C    -0.0923930   -2.1235376   -1.9215869 
C    -0.6217637   -2.5923179   -0.5399700 
C    -0.8857502   -1.0054211   -2.6405710 
C    -0.4322313   -4.1020668   -0.3257786 
C    -2.1010731   -1.5455627   -3.4105576 
C     1.9583645   -2.1652164    0.7743535 
C    -0.4929516   -2.0753168    2.3804003 
C    -2.9498043    0.1948936   -0.7769753 
C    -1.5797776    1.8551201   -2.6915610 
C     2.9047477   -1.4857427   -0.0223561 
C     0.2729802   -1.9581954    3.5609644 
C    -4.1254806    0.1749333   -1.5612151 
C    -2.4736592    2.8810905   -2.3112222 
C     2.3617382   -3.3101956    1.4925622 
C    -1.8352666   -2.5053151    2.4722516 
C    -3.0625710    0.0492266    0.6209803 
C    -0.8990457    1.9650519   -3.9209876 
C     4.2291770   -1.9370609   -0.0984622 
C    -0.2938636   -2.2679710    4.8040053 
C    -5.3735638   -0.0257014   -0.9582530 
C    -2.7160446    3.9637078   -3.1661488 
C     3.6908312   -3.7499723    1.4265513 
C    -2.3955035   -2.8120425    3.7196029 
C    -4.3135354   -0.1501730    1.2224735 
C    -1.1454980    3.0507963   -4.7721168 
C     4.6255282   -3.0665268    0.6330417 
C    -1.6279724   -2.6928638    4.8882698 
C    -5.4704566   -0.1956740    0.4324433 
C    -2.0617226    4.0454885   -4.4042486 
H    -0.0844954   -2.9961930   -2.6003670 
H     0.9667434   -1.8219889   -1.8272566 
H    -1.6970972   -2.3415728   -0.4564673 
H    -0.1891055   -0.5557658   -3.3708917 
H    -0.7410191   -4.4170542    0.6850930 
H     0.6225391   -4.3916009   -0.4712193 
H    -1.0426838   -4.6585500   -1.0592037 
H    -1.7651539   -2.3132202   -4.1299497 
H    -2.8389234   -2.0110611   -2.7346253 
H    -2.6062404   -0.7492739   -3.9822347 
H     2.5977935   -0.5845585   -0.5692484 
H     1.3166350   -1.6356994    3.5099269 
H    -4.0713375    0.3404796   -2.6406487 
H    -2.9973866    2.8240595   -1.3510089 
H     1.6412727   -3.8540342    2.1114212 
H    -2.4530820   -2.6038523    1.5748099 
H    -2.1619766    0.1021355    1.2450367 
H    -0.1689752    1.2109019   -4.2291835 
H     4.9537992   -1.4002029   -0.7194735 
H     0.3159651   -2.1743187    5.7083401 
H    -6.2763368   -0.0412416   -1.5775240 
H    -3.4229661    4.7433208   -2.8638284 
H     3.9964296   -4.6340367    1.9955518 
H    -3.4353565   -3.1506551    3.7754380 
H    -4.3777296   -0.2647799    2.3094135 
H    -0.6109318    3.1189494   -5.7246288 
H     5.6621397   -3.4156028    0.5842832 
H    -2.0675531   -2.9367603    5.8608206 
H    -6.4492316   -0.3491774    0.8985171 
H    -2.2565084    4.8884449   -5.0749961 
