90
Energy =
C     1.6658041    1.2361294    1.9316156 
C     1.5490923    2.1907445    0.8831798 
C     0.2809700    2.6946502    0.5039384 
H     2.4270292    2.4404011    0.2752441 
Pd    0.3654577    0.4226804    0.2724566 
P    -1.2628528    0.2724482   -1.4003630 
P     0.4002574   -1.8527317    0.7566745 
H     0.8526400    1.2246730    2.6725157 
H    -0.5231577    2.6257656    1.2529260 
C     5.2983443   -0.5003684    3.4444006 
C     5.3544937    0.3689732    2.3434367 
C     4.1819952    0.9278772    1.8243425 
C     2.9258702    0.6405651    2.4068430 
C     2.8866323   -0.2400021    3.5130344 
C     4.0577880   -0.8066860    4.0243966 
H     6.2174458   -0.9374725    3.8475747 
H     6.3195833    0.6155889    1.8886693 
H     4.2513259    1.6084802    0.9695900 
H     1.9201555   -0.4838004    3.9689379 
H     4.0034375   -1.4906174    4.8770932 
C    -0.5676464    5.5542605   -2.5918235 
C    -1.4611956    5.3580287   -1.5287728 
C    -1.1674772    4.4220157   -0.5300009 
C     0.0266072    3.6659676   -0.5708523 
C     0.9244145    3.8879855   -1.6403339 
C     0.6282620    4.8184393   -2.6396565 
H    -0.7968314    6.2812432   -3.3776498 
H    -2.3889612    5.9374219   -1.4755454 
H    -1.8667571    4.2718532    0.2991827 
H     1.8537274    3.3137116   -1.7028155 
H     1.3291282    4.9656875   -3.4673556 
C    -1.5114903   -2.6303049   -1.2011279 
C    -0.0750036   -2.9297179   -0.7059383 
C    -1.7051834   -1.4184856   -2.1356255 
C     0.9873818   -2.8569155   -1.8154465 
C    -3.1151446   -1.4170269   -2.7509452 
C     1.9802828   -2.5856870    1.3252759 
C    -0.8500453   -2.2600830    2.0448597 
C    -2.8150731    0.9255016   -0.6772112 
C    -0.7976412    1.1704768   -2.9317898 
C     3.1676476   -2.1459478    0.7021585 
C    -1.4157296   -3.5479825    2.1726843 
C    -3.3781198    0.1703276    0.3783960 
C    -1.7070902    1.7301118   -3.8531507 
C     2.0455490   -3.5783286    2.3231714 
C    -1.2625036   -1.2445380    2.9330212 
C    -3.4078792    2.1536460   -1.0300395 
C     0.5788902    1.1643620   -3.2472506 
C     4.3966790   -2.7216466    1.0434575 
C    -2.3692736   -3.8076022    3.1668161 
C    -4.5232679    0.6209976    1.0441101 
C    -1.2401680    2.2931809   -5.0496068 
C     3.2811936   -4.1445543    2.6668224 
C    -2.2125444   -1.5073738    3.9292911 
C    -4.5538169    2.6025547   -0.3546825 
C     1.0381373    1.7050447   -4.4544705 
C     4.4544859   -3.7238369    2.0240104 
C    -2.7683063   -2.7897906    4.0469357 
C    -5.1170961    1.8395896    0.6769422 
C     0.1288254    2.2798661   -5.3541371 
H    -2.2072963   -2.5694661   -0.3442668 
H    -1.8379809   -3.5167813   -1.7789783 
H    -0.0733995   -3.9599072   -0.3042133 
H    -0.9702220   -1.4929398   -2.9573261 
H     1.9490546   -3.2733928   -1.4758068 
H     1.1648050   -1.8173775   -2.1463845 
H     0.6556590   -3.4417293   -2.6920130 
H    -3.2717707   -2.3541831   -3.3143965 
H    -3.8936231   -1.3493816   -1.9724536 
H    -3.2550883   -0.5779253   -3.4517785 
H     3.1252077   -1.3418496   -0.0414170 
H    -1.1174113   -4.3572842    1.4983834 
H    -2.9104103   -0.7673002    0.6964732 
H    -2.7816898    1.7254625   -3.6513077 
H     1.1372704   -3.9065910    2.8380561 
H    -0.8482213   -0.2364866    2.8272393 
H    -2.9717402    2.7755638   -1.8139459 
H     1.2915236    0.7374267   -2.5299212 
H     5.3130703   -2.3724622    0.5581207 
H    -2.8012176   -4.8098475    3.2539857 
H    -4.9458330    0.0213795    1.8569989 
H    -1.9546949    2.7343897   -5.7520664 
H     3.3256661   -4.9160513    3.4425652 
H    -2.5224095   -0.7072672    4.6092973 
H    -5.0043666    3.5590643   -0.6399868 
H     2.1082445    1.6898849   -4.6857188 
H     5.4176339   -4.1670440    2.2968982 
H    -3.5135370   -2.9968327    4.8218358 
H    -6.0119782    2.1945135    1.1982288 
H     0.4854774    2.7146653   -6.2935146 
