90
Energy =
C     1.4896118    2.4593134   -0.7788776 
C     1.7801241    2.2017119    0.5913451 
C     2.5760035    1.0964589    0.9845614 
H     1.2426822    2.7780797    1.3550531 
Pd    0.7620120    0.4270857   -0.2072839 
P     0.4004185   -1.6981925    0.7182196 
P    -0.9320544    0.1867650   -1.8000654 
H     2.2341751    2.1415749   -1.5249561 
H     3.2772956    0.6940929    0.2381009 
C    -1.0668066    5.6898491   -2.0232228 
C    -1.3866198    4.9526168   -0.8708019 
C    -0.5730677    3.8883413   -0.4690244 
C     0.5803592    3.5409961   -1.2103671 
C     0.8730778    4.2707137   -2.3818849 
C     0.0615025    5.3407077   -2.7792409 
H    -1.7019534    6.5252497   -2.3353930 
H    -2.2771604    5.2060361   -0.2860789 
H    -0.8458585    3.3039727    0.4170801 
H     1.7510297    4.0018018   -2.9786562 
H     0.3092167    5.9000722   -3.6870449 
C     3.5213400   -0.0749858    5.0180923 
C     4.1568472   -0.6835295    3.9238881 
C     3.8424402   -0.2864626    2.6189605 
C     2.8727052    0.7151507    2.3763931 
C     2.2346697    1.3122185    3.4894555 
C     2.5640178    0.9282428    4.7933834 
H     3.7736600   -0.3763832    6.0399236 
H     4.9061358   -1.4649501    4.0865230 
H     4.3472281   -0.7620357    1.7721970 
H     1.4725932    2.0834590    3.3404199 
H     2.0645062    1.4091135    5.6406507 
C    -0.2202340   -2.6123263   -1.8252238 
C    -0.8986080   -1.5052011   -2.6641676 
C    -0.7161465   -2.7554554   -0.3629203 
C    -2.2567999   -1.9489332   -3.2286189 
C    -0.8022213   -4.2162163    0.1037032 
C    -2.5517885    0.4178825   -0.9554724 
C    -0.9323414    1.3430442   -3.2276863 
C     1.9530118   -2.6678230    0.8533724 
C    -0.3696206   -1.7067996    2.3797264 
C    -3.7940807    0.3878346   -1.6301368 
C     0.1161170    1.2372579   -4.1690112 
C     2.1268962   -3.6942131    1.8049739 
C    -1.7705721   -1.8119203    2.5286087 
C    -2.5399168    0.6767825    0.4318177 
C    -1.8896308    2.3644047   -3.3816866 
C     2.9903998   -2.3964479   -0.0639993 
C     0.4293358   -1.5113708    3.5275585 
C    -4.9871071    0.5899814   -0.9241157 
C     0.1698099    2.0977912   -5.2721652 
C     3.3251334   -4.4202242    1.8446686 
C    -2.3555601   -1.7291024    3.7988802 
C    -3.7352155    0.8775529    1.1357600 
C    -1.8293392    3.2245979   -4.4875793 
C     4.1803401   -3.1359493   -0.0323811 
C    -0.1631386   -1.4319075    4.7945395 
C    -4.9617922    0.8303786    0.4590603 
C    -0.8118122    3.0866677   -5.4406748 
C     4.3516176   -4.1443879    0.9280919 
C    -1.5544001   -1.5383985    4.9351080 
H     0.8761856   -2.4682366   -1.8357640 
H    -0.3927202   -3.5703056   -2.3495502 
H    -0.2331477   -1.2963985   -3.5209144 
H    -1.7156780   -2.2862563   -0.2771069 
H    -2.6849679   -1.1866078   -3.9006670 
H    -2.9870798   -2.1622783   -2.4288951 
H    -2.1192626   -2.8726305   -3.8181106 
H    -1.5525185   -4.7550738   -0.5019457 
H     0.1674336   -4.7281613   -0.0188992 
H    -1.1007766   -4.2901132    1.1633256 
H    -3.8357681    0.2285120   -2.7101784 
H     0.9015613    0.4822435   -4.0420400 
H     1.3314569   -3.9203924    2.5219621 
H    -2.4165552   -1.9560508    1.6580202 
H    -1.5796771    0.7193787    0.9614848 
H    -2.6772350    2.5025848   -2.6364469 
H     2.8678814   -1.5883739   -0.7957692 
H     1.5160448   -1.4339987    3.4358951 
H    -5.9417646    0.5643787   -1.4595391 
H     0.9813533    1.9966645   -6.0002252 
H     3.4553753   -5.2081759    2.5936626 
H    -3.4423575   -1.8186741    3.8987535 
H    -3.7020649    1.0682280    2.2132735 
H    -2.5805787    4.0134023   -4.5943528 
H     4.9777493   -2.9172079   -0.7500562 
H     0.4734753   -1.2839613    5.6726351 
H    -5.8979404    0.9879531    1.0047014 
H    -0.7721765    3.7579720   -6.3045544 
H     5.2851634   -4.7153696    0.9629008 
H    -2.0138787   -1.4776356    5.9270209 
