90
Energy =
C     1.1698748    2.6453339   -0.4061691 
C     1.4914581    2.3255071    0.9436271 
C     2.3904284    1.2732431    1.2524587 
H     0.9282421    2.8012625    1.7563615 
Pd    0.6200683    0.5222277    0.0284074 
P     0.3235275   -1.6635069    0.8046118 
P    -0.8767533    0.2072458   -1.7314729 
H     1.9263670    2.4144720   -1.1717925 
H     3.1212047    1.0009246    0.4745141 
C    -1.7128362    5.5943265   -1.6418335 
C    -1.8257140    5.0013222   -0.3722373 
C    -0.8965968    4.0433100    0.0421147 
C     0.1677315    3.6519077   -0.8044645 
C     0.2638305    4.2512501   -2.0795366 
C    -0.6638758    5.2164005   -2.4913412 
H    -2.4404047    6.3465171   -1.9635811 
H    -2.6447420    5.2881263    0.2955617 
H    -1.0049247    3.5859450    1.0316876 
H     1.0726000    3.9504948   -2.7544324 
H    -0.5680158    5.6696489   -3.4833095 
C     3.5170505   -0.0036242    5.2036818 
C     4.3751312   -0.2083176    4.1132808 
C     3.9938665    0.2121627    2.8332929 
C     2.7455930    0.8411868    2.6148913 
C     1.8937801    1.0408877    3.7254270 
C     2.2779721    0.6268426    5.0037425 
H     3.8122374   -0.3306917    6.2058732 
H     5.3485220   -0.6872991    4.2613097 
H     4.6794057    0.0724937    1.9890889 
H     0.9148218    1.5093043    3.5858384 
H     1.6019777    0.7864845    5.8493283 
C    -1.5718456   -2.5082044   -1.2525224 
C    -0.8079374   -1.6074239   -2.2475450 
C    -1.3539390   -2.3354815    0.2745100 
C    -1.2419921   -1.9092610   -3.6912316 
C    -1.8008938   -3.5932830    1.0420264 
C    -2.6242876    0.5917378   -1.3479699 
C    -0.4103890    1.1330638   -3.2407125 
C     1.6466912   -2.8452744    0.3564253 
C     0.1665183   -1.6986977    2.6333528 
C    -3.6834811    0.3419266   -2.2487852 
C     0.9074234    0.9577552   -3.7201830 
C     1.4384843   -3.9875295   -0.4436688 
C     0.9150280   -2.5539916    3.4624109 
C    -2.9147644    1.1335523   -0.0787078 
C    -1.2754795    2.0228477   -3.9028509 
C     2.9568643   -2.5401316    0.7881352 
C    -0.7938032   -0.8377940    3.2091888 
C    -5.0044249    0.6267158   -1.8769681 
C     1.3396813    1.6422195   -4.8620544 
C     2.5200335   -4.8076911   -0.7990075 
C     0.6995381   -2.5494050    4.8484583 
C    -4.2364176    1.4191361    0.2886313 
C    -0.8362263    2.7057088   -5.0477536 
C     4.0299680   -3.3692010    0.4425330 
C    -1.0213627   -0.8555476    4.5901410 
C    -5.2825468    1.1638762   -0.6100468 
C     0.4650189    2.5158060   -5.5310573 
C     3.8149289   -4.5038429   -0.3563362 
C    -0.2717527   -1.7109321    5.4131726 
H    -1.3421519   -3.5533008   -1.5320250 
H    -2.6568222   -2.3868763   -1.4327306 
H     0.2757348   -1.8247767   -2.1589014 
H    -1.9920584   -1.4917072    0.6034441 
H    -0.7085755   -1.2798355   -4.4212242 
H    -2.3262885   -1.7615776   -3.8290790 
H    -1.0212545   -2.9663049   -3.9248344 
H    -2.8266745   -3.8643110    0.7342578 
H    -1.1455618   -4.4559151    0.8333762 
H    -1.8053271   -3.4225407    2.1303795 
H    -3.4807238   -0.0639216   -3.2442622 
H     1.5977322    0.2853340   -3.1953702 
H     0.4372045   -4.2502047   -0.7920758 
H     1.6605987   -3.2286128    3.0311480 
H    -2.0892129    1.3327189    0.6147775 
H    -2.2837920    2.2024432   -3.5193533 
H     3.1292671   -1.6573181    1.4112805 
H    -1.3662114   -0.1526745    2.5717895 
H    -5.8197407    0.4301697   -2.5807521 
H     2.3603955    1.4967378   -5.2305171 
H     2.3447882   -5.6921294   -1.4200931 
H     1.2908725   -3.2130309    5.4875666 
H    -4.4489117    1.8437383    1.2751642 
H    -1.5153742    3.3990077   -5.5543653 
H     5.0377210   -3.1264995    0.7956015 
H    -1.7762802   -0.1932056    5.0265778 
H    -6.3163201    1.3854733   -0.3255835 
H     0.8035845    3.0520520   -6.4234512 
H     4.6548196   -5.1497039   -0.6319297 
H    -0.4418993   -1.7192702    6.4946715 
