90
Energy =
C     1.0529166    2.5850415   -0.1482199 
C     1.2320235    2.1260317    1.1805091 
C     2.1472940    1.0690769    1.4612235 
H     0.5567585    2.4792461    1.9689575 
Pd    0.5604227    0.3678257    0.0451342 
P     0.6885471   -1.8901645    0.5540407 
P    -1.1753546    0.2531590   -1.5204882 
H     1.8761644    2.3829153   -0.8507904 
H     3.0034382    0.9726151    0.7775278 
C    -1.5170998    5.7570329   -1.4915601 
C    -0.5826806    5.1736007   -2.3593974 
C     0.2322543    4.1281180   -1.9101525 
C     0.1305595    3.6440223   -0.5850499 
C    -0.8347845    4.2251189    0.2696256 
C    -1.6422463    5.2738890   -0.1782465 
H    -2.1492948    6.5819646   -1.8357955 
H    -0.4805851    5.5396608   -3.3862098 
H     0.9676377    3.6829901   -2.5892308 
H    -0.9539618    3.8614452    1.2946180 
H    -2.3783348    5.7165892    0.5000590 
C     2.8246503   -0.7375260    5.3084036 
C     3.7494545   -0.9007749    4.2669653 
C     3.5111080   -0.3140935    3.0181632 
C     2.3437020    0.4476960    2.7840664 
C     1.4087279    0.5818235    3.8369750 
C     1.6521263    0.0032527    5.0857116 
H     3.0112312   -1.1899634    6.2877233 
H     4.6646867   -1.4796327    4.4287582 
H     4.2428214   -0.4376079    2.2126884 
H     0.4788298    1.1373178    3.6788486 
H     0.9178914    0.1213843    5.8887192 
C    -1.8608924   -2.4336498   -0.6230646 
C    -2.1554724   -1.3724381   -1.7076490 
C    -0.4130750   -2.9765324   -0.5211839 
C    -3.6750370   -1.1523796   -1.8271959 
C     0.2412566   -3.2053389   -1.8960216 
C    -2.4504610    1.4984979   -1.0794970 
C    -0.6290681    0.5936565   -3.2392768 
C     2.3300784   -2.6859140    0.3605806 
C     0.1352648   -2.1718203    2.2852239 
C    -2.9482874    2.4637698   -1.9733169 
C    -1.5194438    0.5558461   -4.3354694 
C     2.5153345   -4.0610892    0.6285493 
C    -1.0547657   -1.5333588    2.7035163 
C    -2.9566691    1.4509080    0.2383804 
C     0.7370880    0.8470781   -3.4763120 
C     3.4051238   -1.9395612   -0.1584380 
C     0.8583199   -2.9374074    3.2208016 
C    -3.9632576    3.3405071   -1.5629585 
C    -1.0501784    0.7931207   -5.6341375 
C     3.7637942   -4.6595336    0.4154107 
C    -1.5449167   -1.7111979    4.0025379 
C    -3.9770864    2.3213080    0.6395804 
C     1.2047066    1.0808975   -4.7771771 
C     4.6528922   -2.5415997   -0.3747585 
C     0.3714553   -3.1013136    4.5253325 
C    -4.4887035    3.2638892   -0.2658186 
C     0.3100439    1.0601297   -5.8566941 
C     4.8358632   -3.8998962   -0.0797987 
C    -0.8355022   -2.5054589    4.9156894 
H    -2.5077312   -3.2994175   -0.8628090 
H    -2.2129802   -2.0759171    0.3612606 
H    -1.7865853   -1.7531654   -2.6761727 
H    -0.4647393   -3.9395907    0.0197305 
H    -3.9329731   -0.3986150   -2.5884980 
H    -4.1112402   -0.8161543   -0.8718157 
H    -4.1589194   -2.1044886   -2.1091836 
H    -0.4501183   -3.7624872   -2.5533452 
H     0.4898109   -2.2505415   -2.3957349 
H     1.1706934   -3.7891959   -1.8089626 
H    -2.5386451    2.5468403   -2.9835384 
H    -2.5821331    0.3434420   -4.1811290 
H     1.6843116   -4.6723526    0.9970616 
H    -1.5888510   -0.8726639    2.0122730 
H    -2.5476714    0.7260890    0.9521370 
H     1.4354059    0.8476362   -2.6313781 
H     3.2556833   -0.8833959   -0.4050353 
H     1.8169361   -3.3857242    2.9492403 
H    -4.3378900    4.0933344   -2.2637451 
H    -1.7495955    0.7668808   -6.4760698 
H     3.8985628   -5.7244371    0.6312508 
H    -2.4739231   -1.2171830    4.3055216 
H    -4.3697750    2.2671491    1.6602486 
H     2.2689175    1.2740605   -4.9473247 
H     5.4807693   -1.9493676   -0.7779751 
H     0.9499737   -3.6919713    5.2427967 
H    -5.2850192    3.9476763    0.0453950 
H     0.6724715    1.2431476   -6.8734507 
H     5.8098712   -4.3714340   -0.2458748 
H    -1.2119254   -2.6413268    5.9347154 
