85
Energy =
C    -2.5182493   -0.8703990   -1.0755622 
C    -1.5564426   -1.9060294   -1.2428962 
C    -0.9777719   -2.5361717   -0.1064183 
H    -1.1293506   -2.0901943   -2.2362219 
Pd   -0.6115923   -0.3255175   -0.0511612 
P     1.3305150   -0.1295315    1.2168247 
P    -0.6900867    1.9945053   -0.0483517 
H    -3.1230430   -0.9008580   -0.1562305 
H    -1.5813235   -2.5469073    0.8145774 
C    -4.1411368    1.7108952   -4.1196272 
C    -4.7302576    1.6384408   -2.8480539 
C    -4.2045886    0.7749738   -1.8785069 
C    -3.0735699   -0.0283990   -2.1526537 
C    -2.4983229    0.0479876   -3.4419261 
C    -3.0282560    0.9050709   -4.4130629 
H    -4.5507936    2.3826901   -4.8805769 
H    -5.6071159    2.2505411   -2.6127061 
H    -4.6771988    0.7167779   -0.8915244 
H    -1.6190339   -0.5562332   -3.6869151 
H    -2.5682659    0.9480367   -5.4058479 
C     2.2246182   -5.4191482   -0.0701949 
C     1.4183938   -5.2242821    1.0611218 
C     0.3732739   -4.2917301    1.0265898 
C     0.1146027   -3.5280799   -0.1356721 
C     0.9307949   -3.7439869   -1.2708866 
C     1.9711075   -4.6785515   -1.2375999 
H     3.0406393   -6.1483185   -0.0473363 
H     1.5975404   -5.8064255    1.9709553 
H    -0.2650505   -4.1588971    1.9078318 
H     0.7556274   -3.1755067   -2.1899758 
H     2.5903496   -4.8306231   -2.1277027 
C     1.6163711   -1.2350644    2.7085854 
C     2.9659977   -0.5284365    0.3753381 
C    -1.0758298    3.0337626   -1.5625336 
C    -1.9641649    2.8446528    1.0676674 
C     1.4294487    1.6594992    1.7517238 
C     0.9715006    2.5682598    0.5964887 
C     3.0894401   -1.6896504    2.5740067 
C     3.4081160   -1.8323637    1.0790936 
C    -1.7441873    4.2946187   -0.9729521 
C    -2.7075971    3.8280247    0.1260079 
C     1.2196351   -0.6379567    4.0705301 
C     2.8807589   -0.5847963   -1.1600197 
C     0.0973411    3.2958000   -2.5191118 
C    -2.9100446    1.9044539    1.8344633 
C     1.3310914   -1.6533810    5.2178663 
C     4.1707607   -1.0710477   -1.8333198 
C     0.6356697    2.0334144   -3.2024299 
C    -2.2289130    1.0138414    2.8765420 
H     0.9707685   -2.1092596    2.5000806 
H     3.6594507    0.2824702    0.6760146 
H    -1.8483613    2.4439189   -2.0941644 
H    -1.3621786    3.4219017    1.7966003 
H     2.4544306    1.9074149    2.0799854 
H     0.7619949    1.7760683    2.6245202 
H     1.6846794    2.5095233   -0.2454016 
H     0.9162907    3.6256393    0.9113152 
H     3.7529536   -0.9309766    3.0331431 
H     3.2539139   -2.6381304    3.1135807 
H     2.8539845   -2.6900428    0.6545756 
H     4.4819821   -2.0201854    0.9090189 
H    -0.9719173    4.9689474   -0.5540557 
H    -2.2689482    4.8569062   -1.7656246 
H    -3.5587509    3.2993496   -0.3418644 
H    -3.1235534    4.6710150    0.7046819 
H     1.8610952    0.2373771    4.2879274 
H     0.1806635   -0.2634355    4.0194475 
H     2.0383954   -1.2427967   -1.4439988 
H     2.6263145    0.4219683   -1.5380786 
H    -0.2579734    4.0062941   -3.2891555 
H     0.9065385    3.8241786   -1.9799758 
H    -3.6726798    2.5349703    2.3297628 
H    -3.4577868    1.2779187    1.1059560 
H     0.9973769   -1.2045448    6.1686945 
H     2.3705035   -1.9971789    5.3565700 
H     0.7032240   -2.5414591    5.0228402 
H     5.0393877   -0.4589710   -1.5301707 
H     4.3877856   -2.1218646   -1.5744632 
H     4.0818012   -1.0088193   -2.9314814 
H     0.9195419    1.2631512   -2.4616594 
H     1.5226887    2.2583856   -3.8182622 
H    -0.1324650    1.5876167   -3.8557480 
H    -2.9659714    0.3965837    3.4175951 
H    -1.6776906    1.6141244    3.6228394 
H    -1.5088949    0.3241813    2.3907190 
