85
Energy =
C    -2.3480482   -0.9501043   -1.0741311 
C    -1.4194897   -2.0052959   -1.2945105 
C    -0.7875966   -2.6458783   -0.1948056 
H    -1.0565610   -2.1970477   -2.3114819 
Pd   -0.3785752   -0.4323694   -0.1659239 
P     1.5669903   -0.2246449    1.0967844 
P    -0.4785260    1.8899551   -0.1427897 
H    -2.9013189   -0.9709827   -0.1229953 
H    -1.3227444   -2.6268906    0.7672283 
C    -4.1180625    1.6382182   -4.0253762 
C    -4.6629608    1.5385062   -2.7361606 
C    -4.0871754    0.6749783   -1.7952902 
C    -2.9516328   -0.1023542   -2.1194220 
C    -2.4169617    0.0051405   -3.4239531 
C    -2.9966720    0.8626365   -4.3655954 
H    -4.5666196    2.3106327   -4.7635098 
H    -5.5430207    2.1303878   -2.4640650 
H    -4.5216011    0.5960569   -0.7920804 
H    -1.5279743   -0.5707726   -3.7012676 
H    -2.5683125    0.9317988   -5.3709252 
C     2.3312341   -5.6115100   -0.3671660 
C     1.7134688   -5.2862745    0.8501212 
C     0.6883603   -4.3328169    0.8835632 
C     0.2685719   -3.6708559   -0.2939640 
C     0.8921186   -4.0196741   -1.5144005 
C     1.9082190   -4.9804809   -1.5490627 
H     3.1287201   -6.3606937   -0.3981925 
H     2.0219398   -5.7865186    1.7740256 
H     0.1928986   -4.1001293    1.8335187 
H     0.5922159   -3.5305990   -2.4464950 
H     2.3772000   -5.2376099   -2.5043918 
C     1.7676003   -1.1624944    2.6949629 
C     3.2935852   -0.6494434    0.4525858 
C    -1.0483726    2.9749705   -1.5636333 
C    -1.6395692    2.6485368    1.1401078 
C     1.6982842    1.5919110    1.5496767 
C     1.2204614    2.4645494    0.3761644 
C     3.2814133   -1.0518209    2.9725608 
C     3.9983014   -1.3646195    1.6473334 
C    -1.7803901    4.1407023   -0.8602405 
C    -2.5819494    3.5562023    0.3110633 
C     0.8051386   -0.7654265    3.8257998 
C     3.3272994   -1.5000991   -0.8289791 
C     0.0362385    3.4016702   -2.5656919 
C    -2.3434433    1.6169666    2.0402540 
C     0.8721911   -1.7145824    5.0314841 
C     2.7070005   -0.8448671   -2.0639495 
C     0.6618751    2.2402388   -3.3455244 
C    -3.2188735    2.2550844    3.1272680 
H     1.5502414   -2.2072998    2.3940602 
H     3.7729005    0.3280774    0.2535308 
H    -1.7996005    2.3539217   -2.0883137 
H    -0.9915592    3.2903291    1.7697661 
H     2.7339908    1.8403232    1.8404694 
H     1.0583786    1.7562473    2.4358058 
H     1.8922701    2.3520368   -0.4943838 
H     1.1997072    3.5348939    0.6486530 
H     3.5242244   -0.0327381    3.3307179 
H     3.5949704   -1.7528777    3.7658044 
H     3.9464299   -2.4545289    1.4689592 
H     5.0670923   -1.0933710    1.6812928 
H    -1.0398834    4.8753394   -0.4880556 
H    -2.4301685    4.6715102   -1.5784012 
H    -3.4171589    2.9477956   -0.0838662 
H    -3.0209542    4.3470851    0.9429515 
H     1.0252534    0.2671926    4.1572593 
H    -0.2274840   -0.7542878    3.4262641 
H     4.3890622   -1.7398950   -1.0308784 
H     2.8304111   -2.4658511   -0.6288815 
H    -0.4342854    4.1089682   -3.2746881 
H     0.8185642    3.9824183   -2.0403076 
H    -2.9573133    0.9507943    1.4043216 
H    -1.5797695    0.9697848    2.5118190 
H     0.1383687   -1.4217950    5.8013459 
H     1.8710305   -1.7043112    5.5006487 
H     0.6508412   -2.7542751    4.7296507 
H     1.6258883   -0.6547633   -1.9060918 
H     3.1905882    0.1200906   -2.3011525 
H     2.8050544   -1.4982116   -2.9474669 
H     1.1294821    1.5032265   -2.6690841 
H     1.4386916    2.6002893   -4.0408651 
H    -0.1040444    1.7062616   -3.9328434 
H    -3.6668294    1.4808513    3.7732699 
H    -4.0438254    2.8441097    2.6904319 
H    -2.6254405    2.9303724    3.7697303 
