85
Energy =
C    -2.3808391   -0.9841363   -1.0838036 
C    -1.4118571   -2.0279711   -1.1490372 
C    -0.9309719   -2.6407027    0.0377430 
H    -0.9052614   -2.2284568   -2.1011620 
Pd   -0.5558319   -0.4212078    0.0775618 
P     1.4372807   -0.2150413    1.2461764 
P    -0.6578114    1.8975520    0.1307929 
H    -3.0896474   -1.0116147   -0.2435637 
H    -1.5906754   -2.6039734    0.9185880 
C    -3.6445062    1.5133391   -4.3599216 
C    -2.4328598    0.8070388   -4.4490668 
C    -2.0152529   -0.0170893   -3.3983486 
C    -2.8068374   -0.1643448   -2.2347667 
C    -4.0286802    0.5434946   -2.1649501 
C    -4.4414657    1.3762716   -3.2134634 
H    -3.9659917    2.1614928   -5.1813169 
H    -1.8054600    0.9074432   -5.3409542 
H    -1.0508323   -0.5306844   -3.4726168 
H    -4.6647813    0.4296623   -1.2798393 
H    -5.3929263    1.9128910   -3.1384981 
C     2.2439031   -5.5264113    0.4235179 
C     2.0136407   -4.9124517   -0.8195796 
C     0.9778898   -3.9842932   -0.9698811 
C     0.1464959   -3.6441133    0.1227941 
C     0.3758620   -4.2892805    1.3610095 
C     1.4144449   -5.2172518    1.5117063 
H     3.0559749   -6.2515748    0.5370306 
H     2.6448186   -5.1623067   -1.6786739 
H     0.8134024   -3.5264720   -1.9504321 
H    -0.2777237   -4.0616272    2.2112057 
H     1.5709239   -5.7060825    2.4788508 
C     1.9565042   -1.3231245    2.6643982 
C     3.0001362   -0.4991965    0.2242670 
C    -1.2077350    2.9565876   -1.3328558 
C    -1.8438677    2.6834026    1.3616117 
C     1.5462884    1.5600416    1.8226165 
C     1.0182266    2.4989127    0.7220230 
C     3.4757501   -1.5049864    2.4584011 
C     3.7131823   -1.6670103    0.9499549 
C    -2.2397479    3.9631022   -0.7391804 
C    -2.0125955    4.1042926    0.7761877 
C     1.5136218   -0.8910743    4.0696402 
C     2.7302010   -0.7182309   -1.2745311 
C    -0.0555771    3.6126073   -2.1222138 
C    -3.1704332    1.8999407    1.4748336 
C    -0.0083560   -0.8405102    4.2498331 
C     4.0040074   -0.9453470   -2.0988404 
C     0.8127808    2.6150779   -2.8974042 
C    -3.0728517    0.6314506    2.3264143 
H     1.4687736   -2.2860744    2.4161331 
H     3.6037970    0.4210751    0.3554523 
H    -1.7246884    2.2544885   -2.0094344 
H    -1.3512431    2.7133018    2.3514756 
H     2.5853824    1.8113972    2.1002805 
H     0.9290686    1.6475415    2.7349485 
H     1.7031212    2.5033202   -0.1436548 
H     0.9417492    3.5381995    1.0871106 
H     4.0178165   -0.6182575    2.8412255 
H     3.8380353   -2.3787877    3.0286800 
H     3.2827054   -2.6273968    0.6073654 
H     4.7882615   -1.6807773    0.7023740 
H    -2.1578132    4.9388710   -1.2480179 
H    -3.2597446    3.5878110   -0.9317964 
H    -2.8465302    4.6342779    1.2707134 
H    -1.1001739    4.6998097    0.9666824 
H     1.9464479   -1.6121353    4.7886644 
H     1.9649771    0.0880526    4.3205484 
H     2.0500994   -1.5822638   -1.3855521 
H     2.1819659    0.1561344   -1.6707674 
H    -0.5175676    4.3150874   -2.8409653 
H     0.5643538    4.2370290   -1.4510818 
H    -3.9262506    2.5785734    1.9136037 
H    -3.5394069    1.6473133    0.4631268 
H    -0.2801460   -0.5715788    5.2842660 
H    -0.4676343   -1.8191462    4.0215576 
H    -0.4726756   -0.0981981    3.5762604 
H     4.7118729   -0.1046412   -1.9827192 
H     4.5240982   -1.8698540   -1.7934045 
H     3.7627738   -1.0368669   -3.1717683 
H     1.2696950    1.8598957   -2.2319638 
H     1.6289834    3.1287699   -3.4325978 
H     0.2058057    2.0665544   -3.6376543 
H    -4.0285602    0.0800289    2.3338192 
H    -2.8101254    0.8709440    3.3717210 
H    -2.2911822   -0.0505315    1.9331119 
