85
Energy =
C    -2.3503386   -0.9525624   -1.1210015 
C    -1.4359622   -2.0486476   -1.1267084 
C    -1.0026743   -2.6200752    0.0966421 
H    -0.9343976   -2.3267823   -2.0620396 
Pd   -0.5268543   -0.4092711    0.0196179 
P     1.4129587   -0.1509841    1.2720798 
P    -0.6545197    1.9073912    0.0352244 
H    -3.0759024   -0.9174017   -0.2948610 
H    -1.6702301   -2.4954176    0.9636454 
C    -3.4219892    1.4831291   -4.5098565 
C    -2.2363588    0.7288912   -4.5402039 
C    -1.8800113   -0.0735036   -3.4509860 
C    -2.7121505   -0.1543431   -2.3092786 
C    -3.9038111    0.6056127   -2.2952155 
C    -4.2534641    1.4186419   -3.3817723 
H    -3.6943926    2.1152781   -5.3609297 
H    -1.5808412    0.7747892   -5.4160701 
H    -0.9332555   -0.6236464   -3.4786445 
H    -4.5641960    0.5520161   -1.4221334 
H    -5.1824545    1.9973486   -3.3502460 
C     2.0334728   -5.6057376    0.7215304 
C     1.1665128   -5.2324513    1.7587051 
C     0.1712895   -4.2733020    1.5294128 
C     0.0238166   -3.6628026    0.2611616 
C     0.8930508   -4.0655865   -0.7792450 
C     1.8855739   -5.0235990   -0.5497168 
H     2.8121272   -6.3551413    0.8959113 
H     1.2608442   -5.6921823    2.7479567 
H    -0.5099739   -3.9923867    2.3410923 
H     0.7967883   -3.6261586   -1.7764007 
H     2.5483083   -5.3230737   -1.3683320 
C     1.8786576   -1.3722808    2.6115770 
C     3.0748780   -0.2369300    0.3835508 
C    -0.9215089    2.9019038   -1.5223328 
C    -2.0666043    2.7152384    1.0027696 
C     1.3440016    1.5785506    1.9742862 
C     0.9030459    2.5450253    0.8589016 
C     3.3804015   -1.6700911    2.3804769 
C     3.6443000   -1.5895138    0.8678324 
C    -1.6867301    4.1504344   -1.0317724 
C    -2.7419297    3.6570122   -0.0292241 
C     1.4644732   -0.9738476    4.0389119 
C     3.0992378    0.0332203   -1.1333634 
C     0.3334383    3.1286610   -2.3812104 
C    -3.0415907    1.7464879    1.6919037 
C     1.7054316   -2.0975498    5.0580929 
C     2.3122901   -0.9460330   -2.0090863 
C     0.0203460    3.8047757   -3.7242098 
C    -2.4146922    0.8851236    2.7932116 
H     1.3142309   -2.2792809    2.3230856 
H     3.6650574    0.5629316    0.8738729 
H    -1.6276277    2.2736093   -2.0997737 
H    -1.5630849    3.3261128    1.7771794 
H     2.3247331    1.8664054    2.3930417 
H     0.6126690    1.5736099    2.8024256 
H     1.6835153    2.6136062    0.0804684 
H     0.7363912    3.5650600    1.2477795 
H     3.9974909   -0.9195757    2.9116196 
H     3.6446097   -2.6612526    2.7866610 
H     3.1356727   -2.4286919    0.3568846 
H     4.7202724   -1.6610854    0.6287939 
H    -0.9869637    4.8600065   -0.5480379 
H    -2.1562781    4.6817913   -1.8774649 
H    -3.5180030    3.0895286   -0.5762754 
H    -3.2490925    4.4899069    0.4879703 
H     2.0188977   -0.0666210    4.3466520 
H     0.3908552   -0.7028669    4.0430189 
H     2.7355353    1.0611686   -1.3179392 
H     4.1609617    0.0319564   -1.4457003 
H     1.0658121    3.7422789   -1.8226120 
H     0.8142579    2.1489229   -2.5683573 
H    -3.8643120    2.3507119    2.1190932 
H    -3.5053525    1.0991208    0.9239180 
H     1.3543900   -1.7990172    6.0602985 
H     2.7774469   -2.3469325    5.1385721 
H     1.1656185   -3.0168404    4.7673597 
H     2.6987037   -1.9749126   -1.9223142 
H     1.2422607   -0.9550834   -1.7166427 
H     2.3699062   -0.6499870   -3.0703653 
H    -0.7221985    3.2188816   -4.2935377 
H     0.9326948    3.8942166   -4.3380107 
H    -0.3862711    4.8205959   -3.5801451 
H    -3.1708448    0.2431344    3.2760038 
H    -1.9500949    1.5093669    3.5780580 
H    -1.6302706    0.2209952    2.3747661 
