85
Energy =
C    -2.3531274   -0.9443349   -1.1689776 
C    -1.4340431   -2.0395146   -1.2500766 
C    -0.9937531   -2.6834389   -0.0699550 
H    -0.9381075   -2.2586269   -2.2040574 
Pd   -0.5257852   -0.4617336   -0.0212094 
P     1.5531663   -0.2863163    0.9938503 
P    -0.7294976    1.8331951    0.2432511 
H    -3.1016727   -0.9830812   -0.3646017 
H    -1.6264482   -2.5572640    0.8235101 
C    -3.3367343    1.7191835   -4.4132696 
C    -2.1256128    1.0071372   -4.4360648 
C    -1.8018411    0.1295274   -3.3951912 
C    -2.6891990   -0.0670058   -2.3097572 
C    -3.9069873    0.6493607   -2.3058648 
C    -4.2259723    1.5352014   -3.3437735 
H    -3.5853711    2.4097980   -5.2253179 
H    -1.4249571    1.1444603   -5.2663512 
H    -0.8356907   -0.3868992   -3.4118129 
H    -4.6130041    0.5039157   -1.4803800 
H    -5.1763362    2.0785668   -3.3204241 
C     1.8848102   -5.8506361    0.3717541 
C     1.2057885   -5.3323637    1.4852832 
C     0.2633415   -4.3109677    1.3171117 
C    -0.0142636   -3.7779968    0.0360165 
C     0.6617294   -4.3267931   -1.0783763 
C     1.6014605   -5.3493771   -0.9098153 
H     2.6196487   -6.6520617    0.4981929 
H     1.4050529   -5.7306899    2.4854351 
H    -0.2758174   -3.9191935    2.1874724 
H     0.4470851   -3.9604232   -2.0874453 
H     2.1125947   -5.7642212   -1.7845879 
C     1.8221455   -1.0789972    2.6716727 
C     3.0984920   -1.0238253    0.2057585 
C    -0.7749186    2.9244169   -1.2750172 
C    -2.2496847    2.6053127    1.0531523 
C     1.9468669    1.5420347    1.1047568 
C     0.6863089    2.3847593    1.3396100 
C     3.2887708   -1.5662204    2.6333376 
C     3.5519823   -2.1023162    1.2164371 
C    -1.6501719    4.1228395   -0.8454396 
C    -2.8209146    3.5529789   -0.0294684 
C     1.3989288   -0.2216892    3.8769370 
C     2.9206560   -1.5157736   -1.2383070 
C     0.5941371    3.2441784   -1.8974356 
C    -3.2595625    1.6044388    1.6359260 
C     1.4998406   -0.9721269    5.2133097 
C     2.4947799   -0.4281613   -2.2308078 
C     0.4791030    3.9967217   -3.2315463 
C    -2.6894563    0.7089320    2.7417898 
H     1.1690452   -1.9725370    2.6266158 
H     3.8354834   -0.1957377    0.2198675 
H    -1.3548289    2.3175321   -1.9976378 
H    -1.8365275    3.2170021    1.8795128 
H     2.4060411    1.7958200    0.1320734 
H     2.7103406    1.7217998    1.8827586 
H     0.8811950    3.4624277    1.1930923 
H     0.3224482    2.2561002    2.3751192 
H     3.9701336   -0.7219494    2.8575836 
H     3.4667536   -2.3400505    3.4002097 
H     2.9683545   -3.0280378    1.0537254 
H     4.6154001   -2.3537160    1.0586412 
H    -1.0540459    4.8255259   -0.2302772 
H    -2.0074021    4.6838871   -1.7260941 
H    -3.4853317    2.9793667   -0.7017402 
H    -3.4295338    4.3465395    0.4380219 
H     2.0239696    0.6909146    3.9193415 
H     0.3553565    0.1158694    3.7287307 
H     3.8796666   -1.9626432   -1.5621531 
H     2.1820271   -2.3362977   -1.2411291 
H     1.1985710    3.8397576   -1.1861727 
H     1.1412541    2.2976312   -2.0635135 
H    -4.1177040    2.1816400    2.0290690 
H    -3.6594616    0.9819524    0.8141670 
H     1.1423588   -0.3400514    6.0437857 
H     2.5406533   -1.2621183    5.4377247 
H     0.8869445   -1.8914221    5.1985583 
H     1.4977747   -0.0236423   -1.9643605 
H     3.2112988    0.4133139   -2.2486471 
H     2.4253630   -0.8308536   -3.2558749 
H    -0.1317420    3.4239274   -3.9518207 
H     1.4755732    4.1561467   -3.6773700 
H     0.0092258    4.9865402   -3.1002323 
H    -3.4630996    0.0371939    3.1506165 
H    -2.2857173    1.3082264    3.5781366 
H    -1.8675971    0.0750329    2.3504385 
