85
Energy =
C    -2.4187237   -0.8519839   -0.9448499 
C    -1.4993567   -1.9150940   -1.1681652 
C    -0.8837043   -2.5863827   -0.0804182 
H    -1.1285646   -2.0923801   -2.1847531 
Pd   -0.4555847   -0.3643067   -0.0084077 
P     1.5286391   -0.1865046    1.2169628 
P    -0.5286647    1.9700105   -0.0271627 
H    -2.9879913   -0.8753197   -0.0031612 
H    -1.4166729   -2.5761794    0.8820435 
C    -4.1162925    1.7393712   -3.9388771 
C    -4.6823936    1.6539125   -2.6578513 
C    -4.1308850    0.7913940   -1.7014919 
C    -2.9982640    0.0007091   -2.0010242 
C    -2.4440923    0.0919261   -3.2991406 
C    -2.9988856    0.9487105   -4.2562626 
H    -4.5463939    2.4110698   -4.6885528 
H    -5.5610407    2.2559439   -2.4041274 
H    -4.5846208    0.7234882   -0.7063139 
H    -1.5600784   -0.4986569   -3.5603671 
H    -2.5544216    1.0045817   -5.2553740 
C     2.2170494   -5.5661377   -0.3240030 
C     1.6603556   -5.2054234    0.9130990 
C     0.6390788   -4.2500019    0.9702290 
C     0.1605181   -3.6214512   -0.2031127 
C     0.7144852   -4.0138089   -1.4430811 
C     1.7304636   -4.9738796   -1.5009320 
H     3.0136242   -6.3153190   -0.3732993 
H     2.0161743   -5.6778754    1.8346176 
H     0.1974516   -3.9819173    1.9354033 
H     0.3554379   -3.5662580   -2.3746364 
H     2.1454444   -5.2642199   -2.4716179 
C     1.9395346   -1.1431321    2.7738060 
C     3.2184508   -0.5093639    0.4399798 
C    -0.9170518    2.9814079   -1.5657617 
C    -1.7734600    2.8835302    1.0769294 
C     1.6417400    1.6202889    1.7149959 
C     1.1547751    2.5212750    0.5684920 
C     3.4240488   -0.7829135    2.9877011 
C     4.1425897   -0.9325559    1.6323303 
C    -1.6098099    4.2465092   -1.0148221 
C    -2.5550805    3.8010513    0.1050573 
C     1.0229353   -0.9525805    3.9950538 
C     3.2186999   -1.5746841   -0.6754058 
C     0.2538257    3.2589410   -2.5204967 
C    -2.6794553    1.9948054    1.9427847 
C    -0.2726220   -1.7708434    3.9316744 
C     2.5209089   -1.1674901   -1.9725153 
C     0.8662522    2.0024115   -3.1450332 
C    -1.9390400    1.2405701    3.0467814 
H     1.8866319   -2.1998738    2.4416868 
H     3.5424198    0.4591607    0.0150669 
H    -1.6738569    2.3707412   -2.0947240 
H    -1.1473834    3.5125018    1.7401201 
H     2.6781468    1.8735168    1.9972668 
H     1.0112364    1.7559121    2.6121883 
H     1.8402658    2.4441408   -0.2950270 
H     1.1264218    3.5826241    0.8733100 
H     3.5069125    0.2467455    3.3825845 
H     3.8729226   -1.4460066    3.7489170 
H     4.4026534   -1.9966293    1.4912913 
H     5.0891015   -0.3673631    1.6091272 
H    -0.8493087    4.9497891   -0.6229238 
H    -2.1482039    4.7695653   -1.8248921 
H    -3.3951081    3.2308810   -0.3327002 
H    -2.9882180    4.6552073    0.6542909 
H     1.5948746   -1.2536390    4.8926205 
H     0.7963469    0.1208206    4.1384362 
H     4.2786217   -1.8088987   -0.8928553 
H     2.7776111   -2.5101783   -0.2836089 
H    -0.1298449    3.9196729   -3.3208275 
H     1.0293815    3.8488204   -1.9954022 
H    -3.4566029    2.6433913    2.3896199 
H    -3.2140961    1.2809019    1.2882905 
H    -0.9402032   -1.5261351    4.7745126 
H    -0.0552528   -2.8523601    3.9786285 
H    -0.8259453   -1.5781194    2.9956329 
H     1.4468397   -0.9573946   -1.7983212 
H     2.9779779   -0.2609375   -2.4068542 
H     2.5886971   -1.9738508   -2.7212853 
H     1.2463910    1.3140037   -2.3707469 
H     1.7053909    2.2559659   -3.8145927 
H     0.1140792    1.4489895   -3.7323053 
H    -2.6244037    0.6134930    3.6409577 
H    -1.4291798    1.9364769    3.7375115 
H    -1.1746488    0.5728205    2.6080830 
