85
Energy =
C    -2.4127615   -0.9012753   -0.9071839 
C    -1.5336944   -2.0137924   -1.0520289 
C    -0.9996297   -2.6666554    0.0897513 
H    -1.1230486   -2.2442965   -2.0425170 
Pd   -0.4822172   -0.4753663    0.1030778 
P     1.5421765   -0.3667047    1.2544491 
P    -0.4528434    1.8593892    0.0697185 
H    -3.0456142   -0.8774170   -0.0072009 
H    -1.5833156   -2.6035744    1.0210041 
C    -3.7531556    1.7068196   -4.0642398 
C    -4.4320853    1.6572664   -2.8374350 
C    -3.9971340    0.7887684   -1.8274408 
C    -2.8694867   -0.0419419   -2.0177030 
C    -2.1919918    0.0231484   -3.2581217 
C    -2.6347663    0.8810710   -4.2706457 
H    -4.0928218    2.3817383   -4.8562337 
H    -5.3091082    2.2907229   -2.6688135 
H    -4.5393313    0.7477897   -0.8758882 
H    -1.2979279   -0.5859993   -3.4282976 
H    -2.0995631    0.9130108   -5.2252767 
C     1.9921636   -5.7650747    0.1513166 
C     1.2739210   -5.4342176    1.3101137 
C     0.2938867   -4.4346314    1.2666514 
C     0.0157028   -3.7369874    0.0686201 
C     0.7374670   -4.0932572   -1.0942722 
C     1.7124255   -5.0954543   -1.0519925 
H     2.7561589   -6.5485345    0.1801863 
H     1.4705192   -5.9628518    2.2486721 
H    -0.2735928   -4.1891307    2.1705456 
H     0.5429301   -3.5804291   -2.0418888 
H     2.2592413   -5.3572680   -1.9637298 
C     2.0542704   -1.4314226    2.7079190 
C     3.1588131   -0.6319167    0.2971325 
C    -0.7890931    2.8629494   -1.4757841 
C    -1.6633893    2.8284871    1.1593438 
C     1.6805837    1.4112738    1.8258375 
C     1.2458134    2.3455178    0.6831870 
C     3.5924736   -1.3032179    2.6983871 
C     4.0440698   -1.4922662    1.2433219 
C    -1.3543632    4.1927389   -0.9306398 
C    -2.3388300    3.8318413    0.1891972 
C     1.3580732   -1.1577020    4.0532677 
C     3.0122376   -1.2590331   -1.1001058 
C     0.3729670    2.9647482   -2.4769818 
C    -2.6664983    1.9769087    1.9539251 
C    -0.0422586   -1.7760954    4.1555950 
C     2.2769308   -0.3963280   -2.1275349 
C    -0.0157251    3.7067989   -3.7647583 
C    -2.0260425    1.0998807    3.0301299 
H     1.7998572   -2.4580439    2.3742220 
H     3.5956258    0.3804445    0.1960688 
H    -1.6187564    2.3125355   -1.9598532 
H    -1.0213811    3.3842211    1.8703552 
H     2.7116728    1.6330487    2.1536421 
H     1.0173833    1.5334761    2.7012307 
H     1.9361902    2.2501275   -0.1749869 
H     1.2539130    3.4038535    0.9989159 
H     3.8962946   -0.3117577    3.0861146 
H     4.0446103   -2.0593470    3.3651005 
H     3.9173432   -2.5558458    0.9674736 
H     5.1098931   -1.2448794    1.1002388 
H    -0.5314318    4.8245661   -0.5425108 
H    -1.8520775    4.7642889   -1.7327725 
H    -3.2294544    3.3513373   -0.2573055 
H    -2.6891796    4.7204865    0.7424511 
H     1.9980258   -1.5769135    4.8522225 
H     1.3180614   -0.0697803    4.2498936 
H     4.0333918   -1.4778189   -1.4671339 
H     2.5083624   -2.2369861   -0.9978989 
H     1.2326885    3.4766023   -2.0041805 
H     0.7112890    1.9451680   -2.7341021 
H    -3.3975148    2.6659732    2.4179065 
H    -3.2419978    1.3495871    1.2469252 
H    -0.5573593   -1.4523513    5.0753850 
H     0.0189865   -2.8780368    4.1734425 
H    -0.6729267   -1.4900241    3.2957986 
H     1.2316236   -0.2080167   -1.8050587 
H     2.7717956    0.5819836   -2.2650824 
H     2.2384480   -0.8955856   -3.1110239 
H    -0.8912942    3.2322267   -4.2413761 
H     0.8179751    3.6929279   -4.4871972 
H    -0.2674760    4.7627294   -3.5662761 
H    -2.7810826    0.5096327    3.5759865 
H    -1.4694965    1.7055468    3.7681814 
H    -1.3145379    0.3865958    2.5705677 
