85
Energy =
C    -2.3726729   -0.9438158   -1.0282458 
C    -1.4777319   -2.0542254   -1.0810987 
C    -1.0200554   -2.6642964    0.1147220 
H    -1.0022427   -2.3151463   -2.0347028 
Pd   -0.5129188   -0.4669981    0.0867885 
P     1.4830488   -0.2862084    1.2644536 
P    -0.5885534    1.8560940    0.1338657 
H    -3.0800423   -0.9132414   -0.1864530 
H    -1.6616957   -2.5590622    1.0034158 
C    -3.4553047    1.5810483   -4.3498831 
C    -2.2910803    0.7969595   -4.4194312 
C    -1.9321746   -0.0333326   -3.3521241 
C    -2.7407658   -0.1137438   -2.1935282 
C    -3.9135391    0.6733965   -2.1422905 
C    -4.2646475    1.5155570   -3.2059074 
H    -3.7293021    2.2355061   -5.1833977 
H    -1.6542199    0.8402469   -5.3090829 
H    -1.0013625   -0.6072792   -3.4121001 
H    -4.5603918    0.6170007   -1.2594821 
H    -5.1786464    2.1153592   -3.1444897 
C     1.9480957   -5.7545030    0.5279885 
C     1.7992786   -5.0970088   -0.7055310 
C     0.8331651   -4.0982439   -0.8631116 
C    -0.0091464   -3.7319892    0.2121923 
C     0.1429629   -4.4123967    1.4430312 
C     1.1118948   -5.4117678    1.6007574 
H     2.7051161   -6.5363004    0.6465894 
H     2.4416858   -5.3670560   -1.5501200 
H     0.7405494   -3.5931526   -1.8298353 
H    -0.5137076   -4.1537879    2.2817842 
H     1.2098643   -5.9279590    2.5613189 
C     2.1120698   -1.5362916    2.5260005 
C     3.0757247   -0.2465723    0.2614273 
C    -0.7734963    2.8667778   -1.4272083 
C    -1.9924295    2.7253202    1.0626263 
C     1.4509528    1.4207564    2.0356082 
C     0.9831759    2.4352378    0.9752296 
C     3.6148006   -1.7597598    2.1711179 
C     4.1342504   -0.5727582    1.3402648 
C    -1.4579948    4.1625782   -0.9415745 
C    -2.5651879    3.7391632    0.0349918 
C     1.8464778   -1.1636664    3.9990557 
C     3.0681100   -1.2439689   -0.9167830 
C     0.5016052    3.0204596   -2.2722653 
C    -3.0642531    1.8036943    1.6672140 
C     0.3628050   -1.1748014    4.3843762 
C     2.2072255   -0.8029063   -2.1041898 
C     0.2358837    3.6797525   -3.6338618 
C    -2.5495213    0.8488403    2.7462455 
H     1.5470513   -2.4586484    2.3016706 
H     3.2123104    0.7774119   -0.1325470 
H    -1.5122799    2.2852354   -2.0131781 
H    -1.4889558    3.2745207    1.8815277 
H     2.4467483    1.6909101    2.4289144 
H     0.7508602    1.3937756    2.8893432 
H     1.7473926    2.5396324    0.1846841 
H     0.8323866    3.4361645    1.4163902 
H     4.2092014   -1.8917978    3.0914204 
H     3.7133441   -2.6934970    1.5912213 
H     5.1112530   -0.7942332    0.8740407 
H     4.2870418    0.3064112    1.9937128 
H    -0.7180637    4.8164268   -0.4396011 
H    -1.8715192    4.7328050   -1.7913359 
H    -3.3739027    3.2454770   -0.5358020 
H    -3.0136070    4.6012527    0.5584831 
H     2.3848644   -1.9031576    4.6211370 
H     2.3039229   -0.1839630    4.2352669 
H     4.1153909   -1.3694427   -1.2513778 
H     2.7377070   -2.2387023   -0.5659221 
H     1.2493334    3.6174982   -1.7158446 
H     0.9462952    2.0200288   -2.4304332 
H    -3.8574111    2.4501711    2.0885750 
H    -3.5412319    1.2296539    0.8513543 
H     0.2269436   -0.9265877    5.4504413 
H    -0.0799856   -2.1714875    4.2088966 
H    -0.2224638   -0.4491929    3.7940560 
H     1.1538090   -0.6445383   -1.7913394 
H     2.5742737    0.1457006   -2.5348809 
H     2.2139589   -1.5630167   -2.9039587 
H    -0.5184985    3.1099834   -4.2039908 
H     1.1607959    3.7222787   -4.2338060 
H    -0.1349981    4.7127173   -3.5181750 
H    -3.3681217    0.2444200    3.1724178 
H    -2.0660077    1.3967183    3.5751160 
H    -1.8034963    0.1475629    2.3191552 
