85
Energy =
C    -2.3941632   -0.8728956   -1.1167544 
C    -1.4668081   -1.9442902   -1.3002139 
C    -0.9138482   -2.6237765   -0.1903074 
H    -1.0456898   -2.1194297   -2.2980493 
Pd   -0.4886667   -0.3909162   -0.0855146 
P     1.5897098   -0.1823004    0.9598105 
P    -0.7363073    1.9049981    0.1639420 
H    -3.0643701   -0.9367646   -0.2474934 
H    -1.4622140   -2.5587085    0.7628648 
C    -3.7514198    1.7545495   -4.2544095 
C    -2.5183131    1.0926004   -4.3800142 
C    -2.0736950    0.2309981   -3.3711696 
C    -2.8567727    0.0019767   -2.2149535 
C    -4.0995320    0.6653405   -2.1089418 
C    -4.5406841    1.5350902   -3.1154302 
H    -4.0957106    2.4323965   -5.0419600 
H    -1.8959182    1.2565614   -5.2659737 
H    -1.0936798   -0.2483546   -3.4687066 
H    -4.7318650    0.4877945   -1.2319034 
H    -5.5086339    2.0366129   -3.0132399 
C     2.0704363   -5.7219419   -0.2700157 
C     1.5991561   -5.2083971    0.9489590 
C     0.6135477   -4.2149998    0.9557560 
C     0.0900694   -3.7006254   -0.2534320 
C     0.5580292   -4.2433013   -1.4721654 
C     1.5375778   -5.2426383   -1.4779106 
H     2.8378506   -6.5024391   -0.2789219 
H     1.9948143   -5.5906577    1.8956590 
H     0.2409016   -3.8232812    1.9094119 
H     0.1548821   -3.8872937   -2.4251829 
H     1.8862975   -5.6534001   -2.4309044 
C     1.7861175   -0.7576017    2.7352639 
C     3.2195377   -0.9460562    0.3647417 
C    -0.8611841    3.0307668   -1.3354058 
C    -2.2395314    2.6500694    1.0438379 
C     1.9704240    1.6548566    0.9702236 
C     0.7104849    2.5034627    1.1923526 
C     3.3091141   -0.9582340    2.8865819 
C     3.7995455   -1.6615680    1.6140148 
C    -1.6928235    4.2251340   -0.8210918 
C    -2.8372531    3.6486508    0.0223172 
C     1.1064473    0.1226967    3.7976148 
C     3.1435465   -1.8751777   -0.8583654 
C     0.4626049    3.3948170   -2.0235876 
C    -3.2572483    1.6435657    1.6036120 
C     1.1261549   -0.5023180    5.2006972 
C     2.5616690   -1.2543339   -2.1299245 
C     1.1471563    2.2127385   -2.7176505 
C    -2.7034658    0.6940256    2.6699262 
H     1.3023937   -1.7546195    2.7355126 
H     3.8486128   -0.0689976    0.1167230 
H    -1.4868143    2.4518824   -2.0425854 
H    -1.8014238    3.2197550    1.8868970 
H     2.4194568    1.8734250   -0.0151946 
H     2.7408289    1.8721640    1.7322608 
H     0.9005315    3.5727899    0.9883176 
H     0.3750134    2.4295734    2.2416321 
H     3.8043816    0.0252965    3.0075289 
H     3.5443350   -1.5479806    3.7897223 
H     3.4396391   -2.7076490    1.6158551 
H     4.9012262   -1.6975328    1.5566151 
H    -1.0568212    4.8936917   -0.2080212 
H    -2.0672339    4.8244814   -1.6699926 
H    -3.5410324    3.1116179   -0.6403970 
H    -3.4100791    4.4341104    0.5452995 
H     1.6074604    1.1092662    3.8284422 
H     0.0585733    0.3070249    3.4992325 
H     4.1738418   -2.2272730   -1.0575176 
H     2.5653568   -2.7731293   -0.5844127 
H     0.2421089    4.1812317   -2.7700689 
H     1.1485708    3.8662848   -1.2931887 
H    -4.0988721    2.2247971    2.0258938 
H    -3.6809592    1.0634539    0.7643322 
H     0.5942795    0.1417848    5.9214120 
H     2.1564434   -0.6384626    5.5717963 
H     0.6317730   -1.4903461    5.2004315 
H     1.5074193   -0.9529969   -1.9737974 
H     3.1268525   -0.3597100   -2.4470823 
H     2.5812300   -1.9798554   -2.9606780 
H     1.3243017    1.3800593   -2.0141827 
H     2.1188078    2.5077806   -3.1484697 
H     0.5176101    1.8171223   -3.5326069 
H    -3.4916604    0.0254436    3.0556365 
H    -2.2832320    1.2504874    3.5270962 
H    -1.8991973    0.0570272    2.2495652 
