85
Energy =
C    -2.3882467   -0.8652442   -0.9792603 
C    -1.4838186   -1.9632486   -1.0786494 
C    -0.9617433   -2.5658980    0.0959716 
H    -1.0599146   -2.2263874   -2.0556684 
Pd   -0.4664563   -0.3639159    0.0319598 
P     1.5306568   -0.1841844    1.2251118 
P    -0.5673121    1.9629998    0.0884402 
H    -3.0278750   -0.8326755   -0.0848349 
H    -1.5619741   -2.4628134    1.0132040 
C    -3.8086376    1.5853310   -4.2277070 
C    -4.4930963    1.5495778   -3.0033773 
C    -4.0300511    0.7333255   -1.9634777 
C    -2.8673097   -0.0563823   -2.1180260 
C    -2.1899908   -0.0104296   -3.3579499 
C    -2.6601202    0.7951099   -4.4010053 
H    -4.1704055    2.2181571   -5.0443272 
H    -5.3976627    2.1500110   -2.8612689 
H    -4.5831867    0.6964331   -1.0182630 
H    -1.2751309   -0.5939425   -3.5043353 
H    -2.1235985    0.8124745   -5.3554996 
C     2.0665266   -5.6101786    0.4009213 
C     1.2722474   -5.2714843    1.5061331 
C     0.2797142   -4.2907453    1.3815425 
C     0.0606371   -3.6249082    0.1520877 
C     0.8535552   -3.9962405   -0.9583743 
C     1.8456703   -4.9737598   -0.8329480 
H     2.8435528   -6.3756869    0.4935720 
H     1.4206390   -5.7765561    2.4661666 
H    -0.3448672   -4.0366082    2.2455598 
H     0.6990196   -3.5169204   -1.9293846 
H     2.4497726   -5.2464254   -1.7045983 
C     2.0791827   -1.4295306    2.5278266 
C     3.1765179   -0.2289404    0.2864220 
C    -0.8369968    3.0723218   -1.4049232 
C    -1.9259241    2.7872804    1.1322322 
C     1.4781733    1.5290019    1.9729548 
C     1.0270884    2.5342363    0.8953458 
C     3.5872192   -1.6474202    2.2642182 
C     3.8143813   -1.5557623    0.7513372 
C    -1.4462193    4.3485320   -0.7876060 
C    -2.5116798    3.8972601    0.2181557 
C     1.7268489   -1.1197560    3.9917675 
C     3.1574826    0.0211051   -1.2315739 
C     0.3709421    3.2996259   -2.3273367 
C    -3.0109165    1.8543261    1.6945919 
C     0.2309472   -1.2013666    4.3105861 
C     2.4152199   -1.0227853   -2.0700607 
C     0.7275973    2.0778712   -3.1806933 
C    -2.5125163    0.8257614    2.7087501 
H     1.5516348   -2.3533236    2.2217254 
H     3.7498783    0.5954241    0.7554451 
H    -1.6306368    2.5470041   -1.9744004 
H    -1.3809060    3.2514565    1.9767506 
H     2.4652064    1.8030049    2.3865291 
H     0.7580109    1.5053091    2.8115932 
H     1.7895928    2.6070632    0.0989956 
H     0.8989283    3.5460686    1.3187131 
H     4.1756186   -0.8665190    2.7836564 
H     3.9025215   -2.6225013    2.6752384 
H     3.3299824   -2.4145069    0.2495832 
H     4.8859983   -1.5784023    0.4846352 
H    -0.6558858    4.9416580   -0.2876705 
H    -1.8768881    4.9883760   -1.5784479 
H    -3.3715969    3.4783076   -0.3373528 
H    -2.8937041    4.7332537    0.8291933 
H     2.2730986   -1.8517161    4.6167884 
H     2.1304565   -0.1284695    4.2737743 
H     2.7323500    1.0221316   -1.4257493 
H     4.2118250    0.0748599   -1.5638691 
H     0.1259752    4.1511351   -2.9896913 
H     1.2425499    3.6338138   -1.7329633 
H    -3.7827060    2.4943815    2.1631794 
H    -3.5119248    1.3441109    0.8522122 
H     0.0375912   -0.9874024    5.3751026 
H    -0.1652762   -2.2085142    4.0905070 
H    -0.3503645   -0.4814581    3.7116790 
H     2.8670125   -2.0235741   -1.9724516 
H     1.3559824   -1.0950437   -1.7518072 
H     2.4292738   -0.7467814   -3.1376411 
H     0.8036075    1.1685574   -2.5595458 
H     1.6866505    2.2185831   -3.7068955 
H    -0.0545256    1.8902230   -3.9340292 
H    -3.3392470    0.2047951    3.0936620 
H    -2.0244373    1.3127889    3.5719252 
H    -1.7735877    0.1453614    2.2379171 
