85
Energy =
C    -2.3853633   -0.9488637   -1.0691623 
C    -1.4915890   -2.0611278   -1.0977560 
C    -1.0460413   -2.6534496    0.1119028 
H    -1.0090334   -2.3370060   -2.0435239 
Pd   -0.5190890   -0.4640312    0.0465070 
P     1.5174522   -0.3316167    1.1417453 
P    -0.4950435    1.8608744    0.0450903 
H    -3.0949480   -0.8978755   -0.2303209 
H    -1.6939926   -2.5256247    0.9929316 
C    -3.4587336    1.5046940   -4.4449238 
C    -4.2713439    1.4622921   -3.3022691 
C    -3.9217921    0.6446374   -2.2193827 
C    -2.7495563   -0.1443901   -2.2521136 
C    -1.9390897   -0.0899991   -3.4116559 
C    -2.2937788    0.7199810   -4.4957011 
H    -3.7299461    2.1431434   -5.2916285 
H    -5.1846788    2.0643519   -3.2554873 
H    -4.5677479    0.6094787   -1.3344762 
H    -1.0076561   -0.6647021   -3.4562965 
H    -1.6529208    0.7484318   -5.3831281 
C     1.9141168   -5.7354763    0.6430009 
C     1.1199536   -5.3056020    1.7162914 
C     0.1501700   -4.3143210    1.5180511 
C    -0.0432860   -3.7256659    0.2458861 
C     0.7512826   -4.1856184   -0.8299150 
C     1.7180697   -5.1770146   -0.6319254 
H     2.6720924   -6.5108557    0.7930757 
H     1.2504905   -5.7477170    2.7094533 
H    -0.4757927   -3.9905069    2.3578184 
H     0.6110810   -3.7719277   -1.8336966 
H     2.3217949   -5.5206573   -1.4781908 
C     1.9468472   -1.4044220    2.6082981 
C     3.0607769   -0.7689000    0.1397323 
C    -1.0426161    2.8759409   -1.4421956 
C    -1.5942985    2.7311044    1.3009669 
C     1.7421653    1.4513473    1.6566037 
C     1.2291786    2.3886241    0.5494835 
C     3.4573828   -1.6815073    2.4439888 
C     3.7042642   -1.9254410    0.9476000 
C    -2.1524099    3.8105023   -0.8808017 
C    -1.8676684    4.0863596    0.6054046 
C     1.4715003   -0.8771871    3.9727284 
C     2.8236837   -1.1093759   -1.3413750 
C     0.1118198    3.5984698   -2.1719081 
C    -2.8660936    1.9248787    1.6407006 
C     1.6266969   -1.9140189    5.0953932 
C     2.3127730    0.0489832   -2.2038727 
C    -0.3268789    4.1873304   -3.5208897 
C    -2.6029231    0.7168153    2.5459229 
H     1.4095076   -2.3472691    2.3859498 
H     3.7106251    0.1259085    0.2103754 
H    -1.4845308    2.1479591   -2.1432008 
H    -1.0055584    2.8736349    2.2262309 
H     2.8006463    1.6534338    1.8995837 
H     1.1560680    1.5913211    2.5831546 
H     1.8771778    2.3308806   -0.3416122 
H     1.2187630    3.4407320    0.8847861 
H     4.0422902   -0.8101719    2.7984454 
H     3.7665992   -2.5505817    3.0502007 
H     3.2313717   -2.8805958    0.6492381 
H     4.7793135   -2.0042957    0.7091550 
H    -2.2014039    4.7474290   -1.4613492 
H    -3.1335798    3.3174160   -0.9926054 
H    -2.7043463    4.6158548    1.0957203 
H    -0.9783614    4.7376359    0.7002089 
H     2.0364597    0.0380828    4.2332313 
H     0.4071932   -0.5800594    3.8956977 
H     3.7830094   -1.4779265   -1.7515889 
H     2.1189751   -1.9586988   -1.3976656 
H     0.5268851    4.3954454   -1.5258459 
H     0.9337356    2.8812837   -2.3533692 
H    -3.5758914    2.6104713    2.1408167 
H    -3.3621246    1.5972313    0.7073610 
H     1.0680545   -2.8378725    4.8599840 
H     1.2416352   -1.5182092    6.0503153 
H     2.6845599   -2.1885953    5.2489729 
H     1.3077547    0.3744833   -1.8704277 
H     2.9925639    0.9195614   -2.1600231 
H     2.2253957   -0.2537631   -3.2614184 
H    -0.7102988    3.3936021   -4.1860666 
H     0.5217095    4.6807187   -4.0244227 
H    -1.1262396    4.9389417   -3.4001433 
H    -3.5317803    0.1573052    2.7489489 
H    -2.1727012    1.0293536    3.5144170 
H    -1.8827585    0.0160137    2.0709653 
