85
Energy =
C    -2.4017468   -0.8981522   -1.0559675 
C    -1.5096389   -2.0117018   -1.0982688 
C    -1.0504893   -2.6017360    0.1065914 
H    -1.0423365   -2.2914885   -2.0507020 
Pd   -0.5342765   -0.3995496    0.0323470 
P     1.4475889   -0.1892032    1.2265997 
P    -0.6176046    1.9186331    0.0720944 
H    -3.1013352   -0.8560617   -0.2080294 
H    -1.6886935   -2.4715606    0.9946247 
C    -3.5256600    1.5876978   -4.3911156 
C    -4.3237829    1.5302138   -3.2388140 
C    -3.9582324    0.7006992   -2.1700834 
C    -2.7833385   -0.0830187   -2.2264631 
C    -1.9847346   -0.0091778   -3.3923261 
C    -2.3573287    0.8097292   -4.4636723 
H    -3.8106187    2.2326863   -5.2283317 
H    -5.2392584    2.1274205   -3.1742934 
H    -4.5928788    0.6529186   -1.2777542 
H    -1.0507241   -0.5781120   -3.4532156 
H    -1.7278247    0.8499237   -5.3586954 
C     1.9459668   -5.6489634    0.6145456 
C     1.1167759   -5.2699313    1.6801128 
C     0.1335438   -4.2902408    1.4890888 
C    -0.0395000   -3.6648643    0.2313724 
C     0.7913113   -4.0733986   -0.8377848 
C     1.7720611   -5.0516738   -0.6463336 
H     2.7152186   -6.4142688    0.7590503 
H     1.2313269   -5.7409781    2.6618771 
H    -0.5180929   -4.0044854    2.3230910 
H     0.6743580   -3.6222921   -1.8274760 
H     2.4050476   -5.3551448   -1.4867235 
C     1.9322565   -1.4318916    2.5393636 
C     3.0797316   -0.2954798    0.2862458 
C    -0.9110973    2.9314969   -1.4687645 
C    -1.9854124    2.7439930    1.0872562 
C     1.4317422    1.5340959    1.9470996 
C     0.9753595    2.5195712    0.8547524 
C     3.4208055   -1.7533100    2.2595625 
C     3.6399926   -1.6622255    0.7403874 
C    -1.6397887    4.1889360   -0.9463302 
C    -2.6739515    3.7056103    0.0826795 
C     1.5686947   -1.0403176    3.9822891 
C     3.0619285   -0.0112977   -1.2281732 
C     0.3228568    3.1437218   -2.3610421 
C    -2.9567200    1.7876276    1.7985370 
C     1.8198459   -2.1780678    4.9832324 
C     2.2306773   -0.9678306   -2.0879776 
C    -0.0160656    3.8357943   -3.6895452 
C    -2.3127028    0.9063176    2.8738757 
H     1.3434060   -2.3260593    2.2598410 
H     3.6986755    0.4893694    0.7652462 
H    -1.6443303    2.3207525   -2.0309808 
H    -1.4480414    3.3398805    1.8505561 
H     2.4299041    1.7997373    2.3384422 
H     0.7258441    1.5343182    2.7970820 
H     1.7332715    2.5819560    0.0538916 
H     0.8390117    3.5384736    1.2581692 
H     4.0669820   -1.0189904    2.7786358 
H     3.6798224   -2.7528994    2.6480345 
H     3.1017526   -2.4875756    0.2372852 
H     4.7068076   -1.7497381    0.4679289 
H    -0.9139736    4.8821869   -0.4776103 
H    -2.1241847    4.7353999   -1.7738408 
H    -3.4753229    3.1560509   -0.4458537 
H    -3.1513642    4.5428184    0.6208393 
H     2.1484722   -0.1461652    4.2814058 
H     0.5007510   -0.7502908    4.0214954 
H     2.7111994    1.0246500   -1.3918793 
H     4.1132446   -0.0283236   -1.5735071 
H     1.0810434    3.7401370   -1.8185917 
H     0.7811719    2.1574801   -2.5690845 
H    -3.7548639    2.4033208    2.2549933 
H    -3.4554556    1.1550110    1.0402884 
H     1.5053225   -1.8829194    5.9984870 
H     2.8890208   -2.4477557    5.0283519 
H     1.2544025   -3.0844636    4.7009018 
H     2.6007156   -2.0042978   -2.0227361 
H     1.1701124   -0.9607814   -1.7626281 
H     2.2608169   -0.6624769   -3.1477515 
H    -0.7838114    3.2668569   -4.2423969 
H     0.8802524    3.9151379   -4.3278605 
H    -0.4015070    4.8569884   -3.5264741 
H    -3.0656203    0.2745641    3.3748717 
H    -1.8129800    1.5157639    3.6486965 
H    -1.5538034    0.2312208    2.4269581 
