85
Energy =
C    -2.3721358   -0.8936504   -0.9717798 
C    -1.4585002   -1.9868038   -1.1080771 
C    -0.9214547   -2.6334894    0.0273424 
H    -1.0312358   -2.2007272   -2.0959543 
Pd   -0.4768401   -0.3980300    0.0599457 
P     1.6647283   -0.1580513    0.9905647 
P    -0.7535241    1.8958577    0.3067741 
H    -3.0731832   -0.9285592   -0.1260848 
H    -1.4636161   -2.5169969    0.9792518 
C    -3.5620559    1.6587818   -4.2392342 
C    -2.3027234    1.0358579   -4.2573350 
C    -1.9147613    0.1984916   -3.2056642 
C    -2.7806405   -0.0437100   -2.1127546 
C    -4.0483101    0.5789921   -2.1156867 
C    -4.4336285    1.4241663   -3.1652664 
H    -3.8625660    2.3183220   -5.0595930 
H    -1.6157695    1.2118417   -5.0918862 
H    -0.9149591   -0.2492814   -3.2158315 
H    -4.7458226    0.3864544   -1.2929948 
H    -5.4226460    1.8937102   -3.1481402 
C     2.0705772   -5.7223057    0.0704568 
C     1.6325887   -5.1290236    1.2656820 
C     0.6390476   -4.1442544    1.2348473 
C     0.0769708   -3.7163679    0.0092979 
C     0.5068037   -4.3430393   -1.1826484 
C     1.4941359   -5.3342611   -1.1500504 
H     2.8441074   -6.4965744    0.0913842 
H     2.0601022   -5.4430271    2.2235910 
H     0.2901286   -3.6897024    2.1692800 
H     0.0649943   -4.0607594   -2.1431564 
H     1.8133399   -5.8115375   -2.0821753 
C     2.2093566   -0.8654532    2.6454896 
C     3.2222546   -0.7521290    0.0813495 
C    -0.7311569    3.0457524   -1.1822803 
C    -2.3059878    2.6746857    1.0734924 
C     1.9371853    1.6947870    1.1673522 
C     0.6278748    2.4512634    1.4409354 
C     3.7464631   -0.7720293    2.5672614 
C     4.1640915   -1.3072228    1.1917116 
C    -1.5355696    4.2713127   -0.7016834 
C    -2.7633051    3.7400942    0.0446505 
C     1.5837689   -0.2526860    3.9057410 
C     2.9912953   -1.8057637   -1.0189339 
C     0.6427069    3.3739219   -1.7849096 
C    -3.4418285    1.7190128    1.4753554 
C     0.0771967   -0.4911946    4.0295807 
C     2.2029410   -1.3463607   -2.2456909 
C     1.3333242    2.1824600   -2.4536768 
C    -3.0945490    0.6925899    2.5538719 
H     1.9224046   -1.9337748    2.5786023 
H     3.6544102    0.1618791   -0.3681899 
H    -1.3362995    2.5035563   -1.9357012 
H    -1.9268038    3.1836599    1.9814629 
H     2.3911909    2.0346307    0.2205830 
H     2.6778036    1.8882762    1.9636313 
H     0.7700053    3.5443351    1.3578574 
H     0.2686015    2.2474569    2.4663895 
H     4.0678597    0.2790104    2.7012919 
H     4.2107087   -1.3500363    3.3865982 
H     4.0709517   -2.4088849    1.1987714 
H     5.2161936   -1.0734456    0.9558577 
H    -0.9106666    4.8952324   -0.0326805 
H    -1.8178866    4.9050361   -1.5612592 
H    -3.4490442    3.2635522   -0.6808214 
H    -3.3268999    4.5422776    0.5518936 
H     2.1028972   -0.6899932    4.7795625 
H     1.8067091    0.8315239    3.9425849 
H     3.9925053   -2.1521298   -1.3405634 
H     2.5017592   -2.6851729   -0.5654209 
H     0.4906303    4.1755408   -2.5323513 
H     1.2950188    3.8179969   -1.0079743 
H    -4.2828750    2.3489752    1.8228036 
H    -3.8065572    1.2067911    0.5679794 
H    -0.3289238   -0.0399791    4.9503913 
H    -0.1552341   -1.5710539    4.0502268 
H    -0.4637894   -0.0569883    3.1716783 
H     1.1927522   -0.9955326   -1.9574757 
H     2.7099316   -0.5188489   -2.7717252 
H     2.0800575   -2.1783768   -2.9597205 
H     1.4535882    1.3416108   -1.7487106 
H     2.3324667    2.4566249   -2.8323206 
H     0.7370989    1.8055705   -3.3020662 
H    -3.9774845    0.0889503    2.8247905 
H    -2.7216913    1.1781678    3.4730669 
H    -2.3106030   -0.0018021    2.1972362 
