85
Energy =
C    -2.3929487   -0.9153299   -1.1201700 
C    -1.4852359   -2.0154098   -1.1827676 
C    -1.0021480   -2.6056739    0.0132323 
H    -1.0275911   -2.2822569   -2.1433719 
Pd   -0.5064603   -0.4033165   -0.0647717 
P     1.5238240   -0.2324623    1.0493627 
P    -0.5604179    1.9217830   -0.0423320 
H    -3.0751284   -0.8826431   -0.2578413 
H    -1.6269252   -2.4804354    0.9111104 
C    -3.6332320    1.5500599   -4.4275678 
C    -4.4107655    1.4689457   -3.2626965 
C    -4.0058697    0.6472918   -2.2022800 
C    -2.8132097   -0.1070503   -2.2814473 
C    -2.0380063   -0.0131246   -3.4616681 
C    -2.4477292    0.8009710   -4.5230779 
H    -3.9479403    2.1908649   -5.2573365 
H    -5.3392225    2.0435069   -3.1809843 
H    -4.6227238    0.5825593   -1.2984013 
H    -1.0909505   -0.5579999   -3.5392933 
H    -1.8345624    0.8601128   -5.4284237 
C     1.9721948   -5.6852884    0.4688075 
C     1.2250228   -5.2358938    1.5678831 
C     0.2499252   -4.2455601    1.3944779 
C     0.0062040   -3.6750802    0.1225844 
C     0.7522341   -4.1557039   -0.9785847 
C     1.7233726   -5.1475690   -0.8055779 
H     2.7332167   -6.4612642    0.5991602 
H     1.3953362   -5.6638627    2.5611929 
H    -0.3436941   -3.9108708    2.2533161 
H     0.5710833   -3.7566945   -1.9818450 
H     2.2892683   -5.5075085   -1.6709751 
C     1.8619962   -1.2100331    2.6087582 
C     3.1040905   -0.7764097    0.1608727 
C    -1.2736532    3.0037908   -1.4217037 
C    -1.5903041    2.6846271    1.3438237 
C     1.7593390    1.5778194    1.4683144 
C     1.1776835    2.4849977    0.3687319 
C     3.3737437   -1.5176241    2.5444396 
C     3.6928490   -1.8727318    1.0854492 
C    -2.3781398    3.8364641   -0.7103330 
C    -1.9678957    4.0625931    0.7528861 
C     1.3317769   -0.5920203    3.9132411 
C     2.9253976   -1.2388013   -1.2936457 
C    -0.2458413    3.8637106   -2.1916630 
C    -2.8120047    1.8208168    1.7290338 
C     1.3947870   -1.5656824    5.0997365 
C     2.4153080   -0.1614680   -2.2521804 
C     0.6358352    3.0724617   -3.1632507 
C    -2.4635782    0.5958232    2.5795907 
H     1.3203770   -2.1573805    2.4185894 
H     3.7634484    0.1136196    0.1854834 
H    -1.7381616    2.3045071   -2.1372588 
H    -0.9385269    2.7969108    2.2299956 
H     2.8274769    1.7959250    1.6454981 
H     1.2275725    1.7479523    2.4218317 
H     1.7815169    2.4222965   -0.5526006 
H     1.1685679    3.5411882    0.6910742 
H     3.9528988   -0.6299164    2.8662132 
H     3.6373423   -2.3438546    3.2274250 
H     3.2252129   -2.8438148    0.8341338 
H     4.7775266   -1.9768218    0.9082477 
H    -2.5369018    4.7901113   -1.2427672 
H    -3.3339335    3.2851764   -0.7517469 
H    -2.7739809    4.5341435    1.3432669 
H    -1.0967699    4.7428772    0.7979422 
H     1.9128069    0.3189469    4.1523537 
H     0.2841137   -0.2689392    3.7633044 
H     3.9054378   -1.6157617   -1.6428367 
H     2.2415399   -2.1059447   -1.3037251 
H    -0.8293589    4.6048066   -2.7693522 
H     0.3739525    4.4546833   -1.4912197 
H    -3.5149645    2.4656646    2.2893593 
H    -3.3501898    1.5043771    0.8154665 
H     0.9761916   -1.1022449    6.0090918 
H     2.4331843   -1.8645888    5.3243010 
H     0.8163496   -2.4833561    4.8891707 
H     1.3958615    0.1638611   -1.9634414 
H     3.0744459    0.7257700   -2.2550964 
H     2.3594055   -0.5396264   -3.2873276 
H     1.2509404    2.3179038   -2.6461763 
H     1.3194657    3.7431969   -3.7106423 
H     0.0148234    2.5368193   -3.9022052 
H    -3.3619374   -0.0029618    2.8065896 
H    -2.0004684    0.8938790    3.5371393 
H    -1.7435752   -0.0628353    2.0481035 
