85
Energy =
C    -2.3533202   -0.9056713   -0.9309656 
C    -1.4105078   -1.9438541   -1.1655755 
C    -0.7935346   -2.6160825   -0.0793858 
H    -1.0299241   -2.1041231   -2.1813634 
Pd   -0.3839722   -0.3913328    0.0133504 
P     1.6343048   -0.2359158    1.1798624 
P    -0.4216128    1.9420211    0.0362860 
H    -2.9237845   -0.9628153    0.0070411 
H    -1.3258691   -2.6051024    0.8839167 
C    -4.1233306    1.7207232   -3.8472007 
C    -4.6463130    1.6298536   -2.5479173 
C    -4.0710856    0.7538240   -1.6190016 
C    -2.9562269   -0.0449023   -1.9644329 
C    -2.4450074    0.0526557   -3.2791750 
C    -3.0250793    0.9228384   -4.2092952 
H    -4.5723670    2.4025895   -4.5763338 
H    -5.5093008    2.2387230   -2.2591443 
H    -4.4867266    0.6820324   -0.6078144 
H    -1.5766615   -0.5442014   -3.5762257 
H    -2.6155396    0.9831102   -5.2229872 
C     2.2909983   -5.6112989   -0.3229749 
C     1.7486127   -5.2357667    0.9160485 
C     0.7321408   -4.2748602    0.9737106 
C     0.2476724   -3.6532725   -0.2010318 
C     0.7890004   -4.0588870   -1.4427527 
C     1.7972223   -5.0270224   -1.5011374 
H     3.0822543   -6.3660557   -0.3725875 
H     2.1099898   -5.7025063    1.8382800 
H     0.2961401   -4.0009156    1.9410542 
H     0.4262016   -3.6146122   -2.3745809 
H     2.2019417   -5.3286765   -2.4726641 
C     1.9496776   -1.1458595    2.7819287 
C     3.3139764   -0.6873898    0.4324689 
C    -1.0177351    2.9504593   -1.4366614 
C    -1.4326638    2.9162424    1.3099723 
C     1.8517811    1.5818148    1.5892099 
C     1.3381269    2.4391255    0.4198688 
C     3.4720537   -0.9819699    2.9654919 
C     4.1234990   -1.3148194    1.6115188 
C    -1.7804386    4.1434245   -0.8133422 
C    -2.4909086    3.6419385    0.4504008 
C     1.0672601   -0.7654656    3.9796132 
C     3.2689281   -1.6187999   -0.7912363 
C     0.0577428    3.3428429   -2.4633417 
C    -1.9491491    2.1725102    2.5564221 
C    -0.4052815   -1.1576184    3.8060478 
C     2.5792637   -1.0395930   -2.0272275 
C     0.6743528    2.1569916   -3.2129730 
C    -3.0322781    1.1185528    2.3109707 
H     1.7506302   -2.2024844    2.5121671 
H     3.7573155    0.2811844    0.1327510 
H    -1.7534834    2.2867061   -1.9277042 
H    -0.7100084    3.6805080    1.6575849 
H     2.9114657    1.7991813    1.8087651 
H     1.2751792    1.7928910    2.5080629 
H     1.9448708    2.2624329   -0.4867076 
H     1.3911268    3.5174754    0.6534738 
H     3.7063812    0.0514313    3.2843061 
H     3.8418903   -1.6513878    3.7628798 
H     4.1154336   -2.4123208    1.4800426 
H     5.1776352   -0.9925610    1.5694662 
H    -1.0659361    4.9476920   -0.5512049 
H    -2.4892528    4.5629024   -1.5485593 
H    -3.2972101    2.9425417    0.1641929 
H    -2.9550133    4.4629131    1.0254939 
H     1.4799448   -1.2703068    4.8733285 
H     1.1561253    0.3185166    4.1851480 
H     4.3170076   -1.8740580   -1.0405127 
H     2.7873278   -2.5689375   -0.5004739 
H    -0.4206527    4.0259402   -3.1907076 
H     0.8452608    3.9414520   -1.9665438 
H    -1.0917999    1.7049411    3.0751891 
H    -2.3382443    2.9388655    3.2534997 
H    -1.0117907   -0.8309201    4.6672397 
H    -0.5141418   -2.2529063    3.7124544 
H    -0.8361734   -0.7035530    2.8947872 
H     1.5145962   -0.8144415   -1.8157649 
H     3.0631175   -0.1042946   -2.3616666 
H     2.6103279   -1.7556033   -2.8656745 
H     1.1289980    1.4285242   -2.5187966 
H     1.4586748    2.4921952   -3.9123850 
H    -0.0947790    1.6191246   -3.7920101 
H    -3.3079837    0.6188232    3.2544810 
H    -2.6720928    0.3430333    1.6126322 
H    -3.9492702    1.5616164    1.8866315 
