85
Energy =
C    -2.3284257   -0.9692890   -0.9089474 
C    -1.4026900   -2.0145548   -1.1815991 
C    -0.7284279   -2.6782103   -0.1225712 
H    -1.0735296   -2.1800197   -2.2144295 
Pd   -0.3318056   -0.4569121   -0.0581944 
P     1.6471165   -0.2646601    1.1603996 
P    -0.4136017    1.8691287   -0.0519868 
H    -2.8473009   -1.0070414    0.0608403 
H    -1.2239954   -2.6868457    0.8595190 
C    -4.2105782    1.6478762   -3.7647702 
C    -4.6957482    1.5472097   -2.4519534 
C    -4.0850146    0.6745135   -1.5421758 
C    -2.9727085   -0.1112002   -1.9212935 
C    -2.5000248   -0.0043352   -3.2498132 
C    -3.1143887    0.8627264   -4.1602357 
H    -4.6869084    2.3275460   -4.4784473 
H    -5.5567700    2.1457612   -2.1369387 
H    -4.4731742    0.5954912   -0.5202544 
H    -1.6332073   -0.5901494   -3.5723549 
H    -2.7332723    0.9310363   -5.1844295 
C     2.4212745   -5.5916070   -0.5023685 
C     1.8688398   -5.2879531    0.7516540 
C     0.8313329   -4.3533256    0.8529723 
C     0.3330660   -3.6885642   -0.2920277 
C     0.8879375   -4.0194376   -1.5497479 
C     1.9176747   -4.9606993   -1.6520409 
H     3.2295700   -6.3249804   -0.5861244 
H     2.2394412   -5.7898719    1.6514770 
H     0.3894293   -4.1350885    1.8317046 
H     0.5216760   -3.5339838   -2.4594824 
H     2.3328448   -5.2034758   -2.6356074 
C     1.9285525   -1.1970543    2.7558808 
C     3.3635638   -0.6554556    0.4722853 
C    -0.9543482    2.9100599   -1.5170042 
C    -1.5559127    2.7156906    1.1940554 
C     1.7819357    1.5510457    1.6171073 
C     1.2987733    2.4225388    0.4449132 
C     3.4325577   -0.9693665    3.0107074 
C     4.1605590   -1.2427963    1.6818376 
C    -1.6501820    4.1262740   -0.8657975 
C    -2.4709352    3.6134404    0.3251002 
C     0.9804135   -0.8839113    3.9232044 
C     3.3818287   -1.6043019   -0.7402066 
C     0.1379390    3.2560264   -2.5409073 
C    -2.2858001    1.7479825    2.1410921 
C    -0.4554206   -1.3767445    3.7033845 
C     2.7178045   -1.0589226   -2.0051075 
C     0.7243905    2.0387996   -3.2638335 
C    -3.1944195    2.4544054    3.1562403 
H     1.7891219   -2.2550631    2.4545568 
H     3.7809765    0.3239841    0.1710573 
H    -1.7259976    2.2892336   -2.0112928 
H    -0.8892763    3.3668974    1.7937310 
H     2.8199592    1.7999425    1.8981925 
H     1.1494895    1.7174236    2.5086775 
H     1.9592511    2.2952763   -0.4322724 
H     1.2968820    3.4948348    0.7101672 
H     3.6041431    0.0659846    3.3613464 
H     3.7968160   -1.6387083    3.8106734 
H     4.2295628   -2.3367250    1.5402022 
H     5.1925511   -0.8536299    1.6898336 
H    -0.8884036    4.8528737   -0.5218166 
H    -2.2823277    4.6462166   -1.6072288 
H    -3.3221608    3.0137223   -0.0477963 
H    -2.8879522    4.4411379    0.9237881 
H     1.3965359   -1.3631943    4.8292950 
H     0.9868238    0.2025433    4.1348748 
H     4.4436749   -1.8349366   -0.9522414 
H     2.9151373   -2.5637467   -0.4529065 
H    -0.3137699    3.9420839   -3.2822419 
H     0.9396538    3.8376326   -2.0465808 
H    -2.8779288    1.0338210    1.5371427 
H    -1.5348296    1.1423922    2.6800085 
H    -1.1077856   -1.0962539    4.5471349 
H    -0.4848766   -2.4765177    3.6053766 
H    -0.8900387   -0.9493878    2.7803294 
H     1.6382148   -0.8735656   -1.8352046 
H     3.1788130   -0.1081942   -2.3281881 
H     2.8065775   -1.7788143   -2.8359186 
H     1.1681950    1.3207449   -2.5518417 
H     1.5112104    2.3384200   -3.9764229 
H    -0.0594839    1.5016592   -3.8242156 
H    -3.6491233    1.7236346    3.8466763 
H    -4.0150951    2.9989999    2.6581264 
H    -2.6244710    3.1824837    3.7612545 
