85
Energy =
C    -2.3634564   -0.9382667   -1.0498599 
C    -1.4397282   -1.9922659   -1.2928270 
C    -0.7926773   -2.6451331   -0.2091160 
H    -1.0907202   -2.1735084   -2.3165307 
Pd   -0.3800615   -0.4327693   -0.1626594 
P     1.5733946   -0.2387932    1.0907778 
P    -0.4664661    1.8897478   -0.1342681 
H    -2.9016750   -0.9652007   -0.0902624 
H    -1.3138862   -2.6382501    0.7606370 
C    -4.1716743    1.6795303   -3.9516325 
C    -4.6913774    1.5769922   -2.6522700 
C    -4.1038437    0.7037212   -1.7278537 
C    -2.9811144   -0.0805951   -2.0786977 
C    -2.4724358    0.0293027   -3.3933983 
C    -3.0639345    0.8965919   -4.3186049 
H    -4.6297177    2.3593423   -4.6770561 
H    -5.5610132    2.1743127   -2.3593410 
H    -4.5186884    0.6229204   -0.7165545 
H    -1.5949233   -0.5532777   -3.6923497 
H    -2.6558246    0.9671266   -5.3322184 
C     2.3309032   -5.5998549   -0.4671509 
C     1.7373107   -5.2855405    0.7650296 
C     0.7094114   -4.3365568    0.8265109 
C     0.2629782   -3.6676474   -0.3372141 
C     0.8615486   -4.0063521   -1.5728847 
C     1.8803092   -4.9629364   -1.6355497 
H     3.1307238   -6.3453128   -0.5199474 
H     2.0668092   -5.7911184    1.6787153 
H     0.2326712   -4.1128205    1.7880991 
H     0.5398588   -3.5130285   -2.4953720 
H     2.3297559   -5.2119288   -2.6023522 
C     1.7679776   -1.1757270    2.6903469 
C     3.2970069   -0.6759674    0.4477157 
C    -1.0352618    2.9758001   -1.5540729 
C    -1.6122719    2.6624087    1.1538063 
C     1.7192213    1.5769878    1.5427718 
C     1.2403481    2.4522454    0.3717520 
C     3.2815208   -1.0679840    2.9704549 
C     4.0006243   -1.3849074    1.6472081 
C    -1.7432206    4.1547187   -0.8482626 
C    -2.5453267    3.5847955    0.3300189 
C     0.8040086   -0.7749133    3.8185450 
C     3.3254971   -1.5367579   -0.8272593 
C     0.0454476    3.3801880   -2.5693537 
C    -2.3267201    1.6385715    2.0544522 
C     0.8710105   -1.7182577    5.0287613 
C     2.7053507   -0.8888058   -2.0661280 
C     0.6494839    2.2034933   -3.3435089 
C    -3.1937891    2.2862123    3.1424999 
H     1.5487310   -2.2203375    2.3902969 
H     3.7798165    0.2979870    0.2400220 
H    -1.8009055    2.3631665   -2.0677132 
H    -0.9530912    3.2937441    1.7823891 
H     2.7582361    1.8185779    1.8273426 
H     1.0856967    1.7459308    2.4326238 
H     1.9053207    2.3335451   -0.5032148 
H     1.2296804    3.5230071    0.6431746 
H     3.5257317   -0.0488490    3.3274315 
H     3.5921125   -1.7682281    3.7655781 
H     3.9505363   -2.4755466    1.4731058 
H     5.0690037   -1.1122114    1.6819436 
H    -0.9884724    4.8783833   -0.4832519 
H    -2.3899813    4.6942919   -1.5626072 
H    -3.3932028    2.9897986   -0.0581490 
H    -2.9666820    4.3834798    0.9640938 
H     1.0222426    0.2595323    4.1455356 
H    -0.2281096   -0.7669432    3.4176587 
H     4.3861922   -1.7814175   -1.0289661 
H     2.8261595   -2.4994763   -0.6189160 
H    -0.4221905    4.0869904   -3.2807370 
H     0.8396570    3.9555620   -2.0560317 
H    -2.9487060    0.9795026    1.4190559 
H    -1.5697437    0.9827108    2.5248106 
H     1.8687980   -1.7031706    5.5000222 
H     0.6529198   -2.7599398    4.7314683 
H     0.1348079   -1.4237224    5.7956816 
H     1.6249336   -0.6952146   -1.9085620 
H     3.1907775    0.0734424   -2.3106261 
H     2.8009570   -1.5488910   -2.9447938 
H     1.1139878    1.4671011   -2.6640584 
H     1.4243530    2.5468813   -4.0493674 
H    -0.1284157    1.6735567   -3.9186630 
H    -3.6497676    1.5169450    3.7888293 
H    -4.0125254    2.8845411    2.7065814 
H    -2.5922214    2.9547383    3.7844663 
