85
Energy =
C    -2.2874310   -0.9756265   -0.9425254 
C    -1.3583633   -2.0390617   -1.1644987 
C    -0.7575532   -2.7134657   -0.0770046 
H    -0.9762935   -2.2106081   -2.1786400 
Pd   -0.3515466   -0.4767669    0.0148242 
P     1.7675501   -0.2590364    0.9773298 
P    -0.6068181    1.8168644    0.2838493 
H    -2.9264636   -1.0499591   -0.0510554 
H    -1.2664700   -2.6468182    0.8979268 
C    -3.7783701    1.6378645   -4.0310205 
C    -2.5306057    1.0105944   -4.1862551 
C    -2.0429572    0.1546756   -3.1925285 
C    -2.7960920   -0.1029682   -2.0222950 
C    -4.0534444    0.5264085   -1.8860617 
C    -4.5380135    1.3900836   -2.8777674 
H    -4.1570032    2.3109732   -4.8068016 
H    -1.9307534    1.1973122   -5.0831967 
H    -1.0527517   -0.2983508   -3.3125776 
H    -4.6627778    0.3264931   -0.9976702 
H    -5.5169085    1.8645058   -2.7529284 
C     2.2513246   -5.7822010   -0.2601901 
C     1.8140791   -5.2763886    0.9746298 
C     0.8187325   -4.2936310    1.0151537 
C     0.2525561   -3.7811720   -0.1756404 
C     0.6859061   -4.3171040   -1.4099487 
C     1.6744193   -5.3066524   -1.4492909 
H     3.0259472   -6.5547984   -0.2956064 
H     2.2432905   -5.6571317    1.9072256 
H     0.4700586   -3.9095189    1.9808412 
H     0.2487653   -3.9631183   -2.3485436 
H     1.9960249   -5.7125953   -2.4138184 
C     2.0850007   -0.9018194    2.7140725 
C     3.3884342   -0.9504352    0.2737252 
C    -0.7268802    2.9348016   -1.2209700 
C    -2.1002479    2.5741177    1.1638381 
C     2.1123897    1.5851784    1.0582067 
C     0.8420155    2.4078991    1.3134772 
C     3.6240299   -0.9551755    2.7937432 
C     4.1166002   -1.5934323    1.4878625 
C    -1.5591561    4.1315473   -0.7140503 
C    -2.7035765    3.5630302    0.1356488 
C     1.3840157   -0.1633514    3.8630580 
C     3.2623067   -1.9312524   -0.9051669 
C     0.5956657    3.2948377   -1.9130673 
C    -3.0910051    1.5542034    1.7509749 
C    -0.1437431   -0.2845407    3.8411832 
C     2.5872342   -1.3823017   -2.1634626 
C     1.2791728    2.1071997   -2.5984006 
C    -4.2230733    2.2086267    2.5550972 
H     1.7071814   -1.9430175    2.6730483 
H     3.9406743   -0.0509067   -0.0600256 
H    -1.3532288    2.3516821   -1.9242259 
H    -1.6554076    3.1562872    1.9952034 
H     2.5559293    1.8499043    0.0819068 
H     2.8807940    1.7881291    1.8260456 
H     1.0148510    3.4848744    1.1356582 
H     0.5166484    2.3034419    2.3639819 
H     4.0326427    0.0669951    2.9145223 
H     3.9474246   -1.5325687    3.6785227 
H     3.8752283   -2.6728053    1.5038529 
H     5.2102193   -1.5074496    1.3678964 
H    -0.9230152    4.8045466   -0.1058675 
H    -1.9341148    4.7255800   -1.5664913 
H    -3.4101871    3.0200580   -0.5198611 
H    -3.2708844    4.3589439    0.6473758 
H     1.7705152   -0.5806825    4.8120816 
H     1.6902900    0.9006643    3.8635668 
H     4.2888520   -2.2624500   -1.1541447 
H     2.7307492   -2.8335607   -0.5588477 
H     0.3743002    4.0752331   -2.6656267 
H     1.2821749    3.7722887   -1.1869231 
H    -3.5162414    0.9600237    0.9228961 
H    -2.5441178    0.8422634    2.3956041 
H    -0.6035882    0.2661784    4.6789705 
H    -0.4586210   -1.3407447    3.9147547 
H    -0.5642747    0.1132015    2.8985619 
H     1.5386513   -1.0933828   -1.9557677 
H     3.1122279   -0.4933929   -2.5559122 
H     2.5723053   -2.1461780   -2.9590978 
H     1.4646137    1.2838066   -1.8861581 
H     2.2462638    2.3999260   -3.0409072 
H     0.6446853    1.6982619   -3.4031494 
H    -4.8842811    1.4416408    2.9931780 
H    -4.8450833    2.8640538    1.9212482 
H    -3.8213973    2.8212195    3.3824451 
