85
Energy =
C     2.4811692    0.2524891   -1.1605308 
C     2.2697020    1.4821877   -0.4675439 
C     2.2275478    1.5101821    0.9498725 
H     1.9562376    2.3686533   -1.0329039 
Pd    0.6807725    0.0906846    0.1267762 
P    -1.0860657    0.1736625    1.6344017 
P    -0.4223162   -1.7052074   -0.8532263 
H     3.1086524   -0.5002606   -0.6609028 
H     2.7608279    0.7052524    1.4792082 
C     2.0108892   -0.3564587   -5.4019908 
C     1.3951262    0.7442756   -4.7820752 
C     1.5458581    0.9579490   -3.4076640 
C     2.3332515    0.0841268   -2.6207912 
C     2.9533651   -1.0133032   -3.2600020 
C     2.7902144   -1.2346447   -4.6341838 
H     1.8851814   -0.5250526   -6.4762043 
H     0.7862510    1.4358111   -5.3736604 
H     1.0265734    1.8005266   -2.9384898 
H     3.5772475   -1.6954775   -2.6715429 
H     3.2817729   -2.0905058   -5.1082970 
C     1.2367529    4.8418656    3.4892681 
C     0.9886078    4.9251158    2.1081478 
C     1.3145373    3.8580905    1.2650218 
C     1.8972726    2.6789205    1.7843912 
C     2.1541351    2.6155977    3.1739814 
C     1.8262346    3.6842634    4.0183966 
H     0.9807424    5.6797573    4.1455558 
H     0.5379274    5.8297973    1.6869997 
H     1.1044755    3.9408784    0.1939431 
H     2.6219274    1.7162955    3.5910667 
H     2.0369753    3.6151640    5.0905870 
C    -0.8369984   -1.7290345   -2.6750632 
C     0.3870453   -3.4180402   -0.8441311 
C    -0.9489431    0.7181662    3.4324549 
C    -2.5197785    1.3219359    1.2226714 
C    -2.0364184   -1.9254439    0.0745523 
C    -1.8876858   -1.5176245    1.5523430 
C    -0.8853834   -3.2339411   -3.0160163 
C     0.3225263   -3.8833392   -2.3245915 
C    -2.1533903    1.6821476    3.6656341 
C    -3.2292751    1.4407401    2.5914015 
C    -2.0461014   -0.8752571   -3.0902541 
C     1.8031602   -3.4842799   -0.2488045 
C    -0.8366853   -0.4328122    4.4532430 
C    -2.0569533    2.6777417    0.6472812 
C    -2.2066189   -0.7733226   -4.6144097 
C     1.8900962   -3.1128221    1.2328453 
C     0.4687569   -1.2295980    4.3490621 
C    -1.5800260    2.6097313   -0.8066807 
H     0.0707725   -1.2988329   -3.1420019 
H    -0.2889963   -4.0440975   -0.2304268 
H    -0.0096366    1.2983358    3.4703022 
H    -3.1671404    0.8171056    0.4819524 
H    -2.3910922   -2.9667539   -0.0207477 
H    -2.7810438   -1.2809824   -0.4253917 
H    -1.2358937   -2.2272861    2.0919418 
H    -2.8674242   -1.5110873    2.0613962 
H    -1.8335294   -3.6748711   -2.6504480 
H    -0.8535606   -3.3924629   -4.1078737 
H     1.2455568   -3.5559198   -2.8386268 
H     0.2923297   -4.9854497   -2.3772669 
H    -2.5650988    1.5405139    4.6795873 
H    -1.7964202    2.7249405    3.6094472 
H    -3.9793909    2.2517527    2.5728389 
H    -3.7782272    0.5061944    2.8111070 
H    -2.9702826   -1.2980029   -2.6519873 
H    -1.9274321    0.1393364   -2.6658059 
H     2.1772303   -4.5150663   -0.3977169 
H     2.4694810   -2.8305631   -0.8416484 
H    -0.9015167    0.0209657    5.4600371 
H    -1.7120005   -1.1050662    4.3709545 
H    -2.9115911    3.3770839    0.7189618 
H    -1.2587909    3.1038753    1.2821597 
H    -3.0490550   -0.1100075   -4.8742507 
H    -2.4060971   -1.7596532   -5.0676123 
H    -1.2915199   -0.3654930   -5.0780422 
H     1.5832638   -2.0578117    1.3863876 
H     1.2329019   -3.7516316    1.8501040 
H     2.9198066   -3.2183594    1.6144034 
H     0.5122097   -2.0235611    5.1134556 
H     1.3429110   -0.5701173    4.4947853 
H     0.5824055   -1.7088272    3.3615851 
H    -1.2344755    3.5968554   -1.1581154 
H    -2.3901361    2.2750194   -1.4788105 
H    -0.7376907    1.8943406   -0.9137803 
