85
Energy =
C     2.5815237    0.1898857   -1.2214784 
C     2.3103282    1.4355141   -0.5856257 
C     2.2287020    1.5170403    0.8309555 
H     1.9784971    2.2864571   -1.1931367 
Pd    0.7568938    0.0208616    0.0403296 
P    -0.9805081    0.0767494    1.5787355 
P    -0.3955374   -1.7219550   -0.9712064 
H     3.1893469   -0.5347155   -0.6584552 
H     2.7977916    0.7696621    1.4056379 
C     2.3295815   -0.6551799   -5.4390813 
C     3.0186786   -1.5175544   -4.5731118 
C     3.1099578   -1.2175062   -3.2075614 
C     2.5068562   -0.0550144   -2.6750534 
C     1.8116915    0.8023476   -3.5600767 
C     1.7323169    0.5087979   -4.9258182 
H     2.2603515   -0.8845437   -6.5071298 
H     3.4949432   -2.4229210   -4.9634329 
H     3.6602533   -1.8900912   -2.5396726 
H     1.3128264    1.6989383   -3.1773620 
H     1.1953833    1.1890221   -5.5950209 
C     0.9914045    4.9012773    3.1934365 
C     1.6067248    3.7916910    3.7914887 
C     2.0188940    2.7081992    3.0044946 
C     1.8174042    2.7044214    1.6042377 
C     1.2083078    3.8374489    1.0155698 
C     0.8023377    4.9214653    1.8008542 
H     0.6706770    5.7506522    3.8048557 
H     1.7749541    3.7726552    4.8732549 
H     2.5157464    1.8522913    3.4761672 
H     1.0498859    3.8771044   -0.0669840 
H     0.3348466    5.7894030    1.3244123 
C    -0.6787528   -1.8003006   -2.8162737 
C     0.3077425   -3.4721012   -0.8253636 
C    -0.7162042    0.3757963    3.4056804 
C    -2.2292396    1.4641275    1.3355209 
C    -2.0761771   -1.8029332   -0.1485189 
C    -1.9407909   -1.5097599    1.3563278 
C    -0.7356965   -3.3154224   -3.1120519 
C     0.3851939   -3.9726302   -2.2924658 
C    -1.8635262    1.3346773    3.8010415 
C    -2.0821347    2.3035522    2.6282590 
C    -1.8411073   -0.9390268   -3.3379810 
C     1.6392327   -3.5853186   -0.0633337 
C    -0.5447264   -0.8890785    4.2651476 
C    -2.0525693    2.2305381    0.0116574 
C    -1.9113267   -0.9012135   -4.8717765 
C     1.5615681   -3.2105290    1.4199250 
C    -0.1419745   -0.5711487    5.7129918 
C    -3.0460145    3.3866543   -0.1636882 
H     0.2662689   -1.4033800   -3.2351286 
H    -0.4672530   -4.0484038   -0.2832743 
H     0.2268241    0.9551853    3.4302406 
H    -3.2231709    0.9733721    1.3450511 
H    -2.5444031   -2.7863222   -0.3313601 
H    -2.7109996   -1.0386978   -0.6322881 
H    -1.3746328   -2.3121079    1.8628549 
H    -2.9282882   -1.4350201    1.8454916 
H    -1.7241082   -3.7215368   -2.8201569 
H    -0.6100136   -3.5103785   -4.1910604 
H     1.3619585   -3.6769896   -2.7193742 
H     0.3350443   -5.0749011   -2.3237395 
H    -2.7858859    0.7528427    3.9946713 
H    -1.6170999    1.8762983    4.7305044 
H    -1.2090727    2.9767165    2.5329257 
H    -2.9709091    2.9385560    2.7843928 
H    -2.7988068   -1.3205981   -2.9357428 
H    -1.7220913    0.0920552   -2.9516224 
H     1.9917339   -4.6294976   -0.1626164 
H     2.3954063   -2.9570751   -0.5711916 
H    -1.4878496   -1.4683168    4.2613075 
H     0.2257912   -1.5388964    3.8078564 
H    -1.0163944    2.6137822   -0.0357259 
H    -2.1555045    1.5201569   -0.8308649 
H    -2.7201858   -0.2309136   -5.2087532 
H    -2.1102408   -1.9022670   -5.2917270 
H    -0.9608761   -0.5366023   -5.2987342 
H     1.2755759   -2.1455214    1.5412870 
H     0.8156265   -3.8267954    1.9540044 
H     2.5353507   -3.3515128    1.9186228 
H     0.0159123   -1.4994401    6.2875950 
H    -0.9207390    0.0148497    6.2307170 
H     0.7964722    0.0114102    5.7435209 
H    -2.9206766    3.8623543   -1.1514449 
H    -2.8968771    4.1658751    0.6037481 
H    -4.0904430    3.0334326   -0.0893068 
