85
Energy =
C     2.4603542    0.2716161   -1.1996757 
C     2.1985482    1.5612362   -0.6579295 
C     2.0238607    1.7281931    0.7422834 
H     1.9510069    2.3878893   -1.3348201 
Pd    0.5387169    0.2458485   -0.0712623 
P    -1.1982401    0.2680756    1.4781417 
P    -0.5541757   -1.5487928   -1.0664825 
H     2.9827123   -0.4414274   -0.5442167 
H     2.5058235    0.9846013    1.3959248 
C     2.5381074   -0.8491194   -5.3564962 
C     3.1191603   -1.6710624   -4.3789461 
C     3.1033301   -1.2810681   -3.0335128 
C     2.5020863   -0.0652552   -2.6350483 
C     1.9236924    0.7539731   -3.6318051 
C     1.9460494    0.3673170   -4.9763666 
H     2.5504731   -1.1499639   -6.4088856 
H     3.5920070   -2.6161162   -4.6655550 
H     3.5652528   -1.9238079   -2.2753322 
H     1.4325423    1.6921353   -3.3531828 
H     1.4932391    1.0155957   -5.7337839 
C     0.8775142    5.3320810    2.8031696 
C     1.2892180    4.1953577    3.5154835 
C     1.6754254    3.0384110    2.8273467 
C     1.6436676    2.9849246    1.4141897 
C     1.2384134    4.1430450    0.7110555 
C     0.8636325    5.3022018    1.3985389 
H     0.5807682    6.2402392    3.3373859 
H     1.3221026    4.2143006    4.6098365 
H     2.0188325    2.1612317    3.3884244 
H     1.2030427    4.1396312   -0.3829296 
H     0.5550073    6.1890739    0.8355444 
C    -0.6647242   -1.8826240   -2.9101252 
C     0.1143392   -3.2570637   -0.6138247 
C    -0.8454695    0.2529775    3.3076949 
C    -2.4914443    1.6437811    1.5833284 
C    -2.2889583   -1.5339751   -0.3756910 
C    -2.2151906   -1.2721585    1.1387333 
C    -0.5846285   -3.4233934   -3.0068588 
C     0.4466734   -3.9085365   -1.9788212 
C    -2.1972292    0.6701395    3.9237734 
C    -2.6990987    1.8774957    3.1122986 
C    -1.8590570   -1.2503539   -3.6423655 
C     1.2701797   -3.2326848    0.4027730 
C    -0.1796993   -1.0229603    3.8474935 
C    -2.1286921    2.9443887    0.8455696 
C    -1.8529513    0.2820285   -3.6473499 
C     1.7424483   -4.6318273    0.8208882 
C     0.2846836   -0.8862759    5.3051796 
C    -1.9683917    2.8123102   -0.6697170 
H     0.2731039   -1.4558216   -3.3143316 
H    -0.7464285   -3.7921423   -0.1652552 
H    -0.1393442    1.0996556    3.4264368 
H    -3.4057720    1.2125237    1.1330603 
H    -2.8010689   -2.4871710   -0.5978821 
H    -2.8452818   -0.7264636   -0.8859344 
H    -1.7146762   -2.1146868    1.6500678 
H    -3.2223927   -1.1710197    1.5793782 
H    -1.5776635   -3.8627596   -2.7884461 
H    -0.3153638   -3.7269749   -4.0339792 
H     1.4579721   -3.5914844   -2.2957372 
H     0.4574499   -5.0087775   -1.8963134 
H    -2.9108864   -0.1746110    3.8713682 
H    -2.0871773    0.9302257    4.9911282 
H    -2.1085208    2.7656511    3.4033512 
H    -3.7565377    2.1084352    3.3256849 
H    -1.8360581   -1.6210948   -4.6846313 
H    -2.8036791   -1.6332303   -3.2105181 
H     2.1140048   -2.6640880   -0.0326867 
H     0.9509540   -2.6665070    1.2983473 
H    -0.8818501   -1.8740181    3.7625251 
H     0.6906185   -1.2678211    3.2082043 
H    -2.9262953    3.6783321    1.0710241 
H    -1.2030982    3.3568567    1.2847602 
H    -2.7338951    0.6819543   -4.1770886 
H    -0.9478116    0.6677500   -4.1458953 
H    -1.8616436    0.6908291   -2.6215364 
H     0.9119797   -5.2193996    1.2523433 
H     2.1455783   -5.1976071   -0.0368379 
H     2.5395014   -4.5646748    1.5808871 
H     0.7937086   -1.8052694    5.6416581 
H    -0.5647449   -0.7061695    5.9863069 
H     0.9928363   -0.0454962    5.4177721 
H    -1.7472103    3.7905419   -1.1294896 
H    -2.8837600    2.4147749   -1.1441077 
H    -1.1315084    2.1281250   -0.9177064 
