85
Energy =
C     2.4974404    0.1478300   -1.0899683 
C     2.2973644    1.4188585   -0.4763767 
C     2.2116482    1.5341611    0.9358464 
H     2.0215552    2.2762196   -1.1022981 
Pd    0.6595338    0.1040353    0.1516039 
P    -1.0952178    0.2636534    1.6778670 
P    -0.5420629   -1.6160576   -0.8718389 
H     3.0678657   -0.5997793   -0.5184331 
H     2.7192075    0.7608073    1.5325999 
C     2.2061254   -0.7072708   -5.3028295 
C     2.8765700   -1.5848017   -4.4374541 
C     2.9810222   -1.2839207   -3.0728287 
C     2.4105377   -0.1046671   -2.5422154 
C     1.7317355    0.7671022   -3.4260440 
C     1.6390995    0.4722927   -4.7904698 
H     2.1264516   -0.9379340   -6.3698900 
H     3.3277829   -2.5030321   -4.8274257 
H     3.5159433   -1.9688655   -2.4050791 
H     1.2521089    1.6737842   -3.0420940 
H     1.1137011    1.1622295   -5.4588230 
C     1.1990396    5.0547520    3.2014078 
C     1.7010137    3.9091217    3.8367381 
C     2.0396731    2.7794984    3.0812030 
C     1.8759819    2.7649253    1.6768632 
C     1.3834371    3.9331014    1.0499826 
C     1.0506531    5.0632903    1.8040610 
H     0.9368639    5.9410258    3.7880064 
H     1.8381856    3.8981519    4.9230463 
H     2.4439607    1.8922739    3.5800161 
H     1.2517477    3.9611275   -0.0366675 
H     0.6725717    5.9583877    1.2994033 
C    -0.8207041   -1.7125678   -2.7216109 
C     0.0578145   -3.4064511   -0.7050303 
C    -0.9439885    0.5240071    3.5269218 
C    -2.3947807    1.6259955    1.4399532 
C    -2.2279114   -1.5968743   -0.0617790 
C    -2.0861127   -1.3079069    1.4429176 
C    -0.9912886   -3.2247615   -2.9841775 
C     0.0850644   -3.9427966   -2.1599029 
C    -2.3349564    1.0740855    3.9079943 
C    -2.6832479    2.1538191    2.8740009 
C    -1.9080401   -0.7850690   -3.2878518 
C     1.3904438   -3.5928292    0.0381424 
C    -0.4331879   -0.6649713    4.3605431 
C    -2.0110875    2.7534316    0.4658734 
C    -2.0046342   -0.8490269   -4.8197980 
C     1.3394206   -3.2152108    1.5187996 
C     1.0901458   -0.8396716    4.3106998 
C    -1.8562842    2.3274688   -0.9952932 
H     0.1554416   -1.4015338   -3.1415051 
H    -0.7437695   -3.9216952   -0.1406068 
H    -0.2178609    1.3583328    3.6087730 
H    -3.2871388    1.0986008    1.0506598 
H    -2.7540638   -2.5505572   -0.2439983 
H    -2.8114811   -0.7969683   -0.5536587 
H    -1.5386982   -2.1259694    1.9453379 
H    -3.0740113   -1.2187856    1.9284810 
H    -2.0046147   -3.5516742   -2.6786391 
H    -0.8882815   -3.4491123   -4.0597962 
H     1.0767711   -3.7275620   -2.6003531 
H    -0.0439765   -5.0390488   -2.1649447 
H    -3.0837053    0.2585321    3.9021387 
H    -2.3172669    1.4844379    4.9336606 
H    -2.0443778    3.0384243    3.0549278 
H    -3.7315955    2.4885627    2.9548768 
H    -2.8902762   -1.0434207   -2.8479662 
H    -1.6846299    0.2523748   -2.9817080 
H     1.6872351   -4.6535375   -0.0681937 
H     2.1723031   -3.0026264   -0.4765965 
H    -0.7436330   -0.4958106    5.4086696 
H    -0.9420064   -1.5972557    4.0508708 
H    -2.7968500    3.5294332    0.5413267 
H    -1.0787087    3.2271980    0.8223396 
H    -2.7386496   -0.1148056   -5.1930680 
H    -2.3248287   -1.8465132   -5.1663746 
H    -1.0281582   -0.6249736   -5.2839110 
H     1.0744784   -2.1460027    1.6329521 
H     0.5848432   -3.8111365    2.0636733 
H     2.3139286   -3.3700873    2.0115190 
H     1.4035398   -1.7703812    4.8124256 
H     1.5954872    0.0019422    4.8154152 
H     1.4579872   -0.8754248    3.2704221 
H    -1.6148004    3.1915010   -1.6379624 
H    -2.7818319    1.8660562   -1.3843599 
H    -1.0350066    1.5885152   -1.1031388 
