85
Energy =
C     2.5917305    0.1647554   -1.0816110 
C     2.3493649    1.4047118   -0.4203670 
C     2.2794396    1.4631719    0.9976537 
H     2.0265056    2.2714862   -1.0102896 
Pd    0.7775686    0.0113649    0.1938010 
P    -1.0068620    0.1601971    1.6731168 
P    -0.3991387   -1.7172739   -0.8240504 
H     3.2071037   -0.5757587   -0.5487911 
H     2.8379633    0.6965827    1.5569831 
C     2.2205173   -0.5607691   -5.3141856 
C     2.9601175   -1.4312064   -4.4996023 
C     3.0906894   -1.1718066   -3.1286838 
C     2.4764508   -0.0434318   -2.5392852 
C     1.7285913    0.8215616   -3.3729198 
C     1.6109784    0.5700139   -4.7440511 
H     2.1213935   -0.7581967   -6.3862745 
H     3.4467822   -2.3102888   -4.9346350 
H     3.6843601   -1.8481289   -2.5033306 
H     1.2163595    1.6891916   -2.9434032 
H     1.0332111    1.2557082   -5.3724243 
C     1.0722037    4.8068431    3.4305419 
C     1.7165986    3.6983855    3.9989817 
C     2.1183224    2.6279511    3.1888291 
C     1.8823140    2.6395391    1.7943879 
C     1.2443801    3.7712632    1.2350697 
C     0.8447946    4.8402071    2.0437916 
H     0.7577996    5.6453231    4.0600962 
H     1.9125892    3.6685364    5.0757984 
H     2.6270148    1.7672593    3.6379102 
H     1.0555102    3.8197000    0.1577894 
H     0.3534239    5.7074396    1.5905582 
C    -0.7491990   -1.7527448   -2.6590698 
C     0.2938259   -3.4788364   -0.7583389 
C    -0.9243732    0.6613470    3.4772361 
C    -2.2906881    1.4601340    1.1905741 
C    -2.0592254   -1.8231071    0.0442337 
C    -1.9162295   -1.4657188    1.5356579 
C    -0.9444563   -3.2557110   -2.9526785 
C     0.1836980   -3.9971821   -2.2197043 
C    -2.1899862    1.5236555    3.6800571 
C    -2.3637428    2.3906543    2.4254498 
C    -1.8419566   -0.7898136   -3.1500630 
C     1.7147873   -3.6056826   -0.1826439 
C    -0.7240493   -0.4685286    4.4987348 
C    -2.0003870    2.1584513   -0.1500973 
C    -1.9949440   -0.7901164   -4.6784446 
C     1.8467763   -3.2035405    1.2871438 
C     0.6266471   -1.1835469    4.3797634 
C    -3.0651247    3.1909064   -0.5436293 
H     0.2157118   -1.4387144   -3.1040832 
H    -0.4075073   -4.0380875   -0.1095530 
H    -0.0460835    1.3358301    3.5119360 
H    -3.2473982    0.9056701    1.1108278 
H    -2.4972261   -2.8275907   -0.0908578 
H    -2.7309394   -1.1023677   -0.4564074 
H    -1.3198829   -2.2289636    2.0687115 
H    -2.9023934   -1.4030419    2.0296762 
H    -1.9377850   -3.5879045   -2.5925878 
H    -0.9107636   -3.4535151   -4.0379957 
H     1.1384963   -3.7894057   -2.7379555 
H     0.0395653   -5.0913026   -2.2282020 
H    -3.0724957    0.8690751    3.8197080 
H    -2.0920956    2.1357198    4.5941959 
H    -1.5458579    3.1343181    2.3721588 
H    -3.3163540    2.9472523    2.4395672 
H    -2.8122377   -1.0493631   -2.6853136 
H    -1.5885505    0.2319798   -2.8093812 
H     2.0312165   -4.6583843   -0.3109369 
H     2.4041544   -3.0023354   -0.8024045 
H    -0.8142899   -0.0193138    5.5059789 
H    -1.5546298   -1.1958886    4.4202545 
H    -1.0077923    2.6422776   -0.0874145 
H    -1.9168431    1.3920205   -0.9429378 
H    -2.7331824   -0.0340668   -4.9955796 
H    -2.3398827   -1.7699201   -5.0508684 
H    -1.0332693   -0.5590450   -5.1688534 
H     1.5965314   -2.1303441    1.4192292 
H     1.1684673   -3.7914987    1.9315071 
H     2.8763493   -3.3519693    1.6545018 
H     0.7323897   -1.9668906    5.1488789 
H     1.4623770   -0.4721051    4.5029507 
H     0.7454420   -1.6632054    3.3929885 
H    -2.8431494    3.6225916   -1.5346904 
H    -3.1109164    4.0228458    0.1803407 
H    -4.0686250    2.7306917   -0.5929742 
