85
Energy =
C     2.4427149    0.2532834   -1.1160114 
C     2.2225249    1.4800400   -0.4227040 
C     2.1900178    1.5094921    0.9951272 
H     1.9006831    2.3639077   -0.9872468 
Pd    0.6269516    0.1007504    0.1826096 
P    -1.1563213    0.3525915    1.6425302 
P    -0.5972339   -1.6338563   -0.7837218 
H     3.0671637   -0.4997663   -0.6154817 
H     2.7171222    0.6982312    1.5207525 
C     2.0351427   -0.3533617   -5.3610456 
C     2.7953523   -1.2365204   -4.5794913 
C     2.9350503   -1.0158874   -3.2029952 
C     2.3123943    0.0875416   -2.5756936 
C     1.5423123    0.9649281   -3.3761063 
C     1.4130522    0.7501909   -4.7525860 
H     1.9271989   -0.5218505   -6.4371971 
H     3.2882356   -2.0964776   -5.0446730 
H     3.5400214   -1.7026889   -2.6000315 
H     1.0183581    1.8094042   -2.9156436 
H     0.8156742    1.4424390   -5.3549836 
C     1.2422747    4.8381335    3.5586169 
C     1.7317545    3.6356041    4.0897385 
C     2.0501603    2.5707818    3.2371205 
C     1.8800055    2.6796307    1.8366992 
C     1.4094724    3.9075627    1.3161370 
C     1.0929752    4.9714196    2.1674991 
H     0.9933684    5.6732158    4.2211307 
H     1.8734445    3.5287027    5.1701780 
H     2.4442202    1.6378896    3.6561861 
H     1.2968582    4.0400063    0.2353230 
H     0.7326481    5.9144736    1.7437833 
C    -0.6980143   -1.8173198   -2.6531926 
C    -0.0526258   -3.4137451   -0.4782149 
C    -0.9916836    0.6525054    3.4829123 
C    -2.3033688    1.8324157    1.3376890 
C    -2.3249091   -1.5130182   -0.0766438 
C    -2.2544216   -1.1445586    1.4164173 
C    -0.3697949   -3.3062078   -2.9305129 
C     0.5812586   -3.8011964   -1.8317675 
C    -2.2170741    1.5244945    3.8268984 
C    -2.3498518    2.5632025    2.7047125 
C    -1.9897454   -1.2902291   -3.3038289 
C     0.7746670   -3.7232329    0.7837417 
C    -0.7714932   -0.5897321    4.3579408 
C    -1.9201142    2.7558301    0.1690580 
C    -1.9452911   -1.3601956   -4.8378994 
C     2.1262933   -3.0124119    0.9041103 
C     0.5311031   -1.3366785    4.0456106 
C    -2.0104146    2.1220698   -1.2216076 
H     0.1474230   -1.2042970   -3.0146377 
H    -1.0110543   -3.9634377   -0.3932267 
H    -0.0929470    1.2975965    3.5476995 
H    -3.2945411    1.3810360    1.1348812 
H    -2.8683965   -2.4614086   -0.2341205 
H    -2.8551999   -0.7276673   -0.6442786 
H    -1.8090590   -1.9709094    1.9991210 
H    -3.2593626   -0.9497228    1.8315145 
H    -1.3024360   -3.9027811   -2.9116867 
H     0.0737542   -3.4192597   -3.9340928 
H     1.5680314   -3.3152028   -1.9467700 
H     0.7445550   -4.8924989   -1.8814286 
H    -3.1270573    0.8961325    3.8877342 
H    -2.0855906    2.0013151    4.8145675 
H    -1.5020074    3.2722047    2.7615729 
H    -3.2779378    3.1550993    2.7882923 
H    -2.8567223   -1.8688671   -2.9311235 
H    -2.1517057   -0.2411350   -2.9955102 
H     0.1622704   -3.4990312    1.6769576 
H     0.9345756   -4.8181171    0.8018549 
H    -0.7619646   -0.2560533    5.4128089 
H    -1.6391245   -1.2710764    4.2689224 
H    -2.5884689    3.6367099    0.2158369 
H    -0.8982674    3.1371931    0.3434087 
H    -2.8610463   -0.9257511   -5.2734998 
H    -1.8666087   -2.4017312   -5.1943016 
H    -1.0773878   -0.8013638   -5.2298597 
H     2.7888714   -3.2334938    0.0495240 
H     1.9873258   -1.9139133    0.9507462 
H     2.6475507   -3.3234879    1.8247359 
H     1.4083318   -0.6833954    4.1982349 
H     0.5591039   -1.6763955    2.9948500 
H     0.6512323   -2.2223457    4.6916140 
H    -1.7721980    2.8575353   -2.0091907 
H    -3.0235468    1.7297758   -1.4249676 
H    -1.2885117    1.2869421   -1.3194255 
