85
Energy =
C     2.5661482    0.1682592   -1.2810427 
C     2.2536522    1.4276608   -0.6961295 
C     2.1203758    1.5482460    0.7149295 
H     1.9373619    2.2576165   -1.3397086 
Pd    0.6903970    0.0169881   -0.0824586 
P    -1.0330392    0.0179081    1.4822615 
P    -0.4108341   -1.7553890   -1.1005294 
H     3.1420040   -0.5358229   -0.6610812 
H     2.6837984    0.8282384    1.3287364 
C     2.5313355   -0.8520697   -5.4665682 
C     3.1353135   -1.6985391   -4.5242978 
C     3.1592278   -1.3393298   -3.1706896 
C     2.5731970   -0.1318710   -2.7256890 
C     1.9779745    0.7149801   -3.6886901 
C     1.9605259    0.3595082   -5.0421011 
H     2.5130159   -1.1284458   -6.5255546 
H     3.5965299   -2.6382792   -4.8453856 
H     3.6419101   -2.0013828   -2.4428818 
H     1.5095411    1.6544318   -3.3781802 
H     1.4951134    1.0303273   -5.7717906 
C     0.8140326    5.0075542    2.9270195 
C     1.4520498    3.9384080    3.5732749 
C     1.8824499    2.8278035    2.8354901 
C     1.6785990    2.7566800    1.4375053 
C     1.0431691    3.8480716    0.7998823 
C     0.6178932    4.9588559    1.5361001 
H     0.4783100    5.8775987    3.5000789 
H     1.6234801    3.9725262    4.6541225 
H     2.3980199    2.0049346    3.3442225 
H     0.8756291    3.8313854   -0.2819685 
H     0.1288129    5.7930963    1.0225881 
C    -0.6629316   -1.9117832   -2.9539454 
C     0.3088598   -3.4951003   -0.8820561 
C    -0.6650629    0.1923637    3.3161282 
C    -2.2752169    1.4300274    1.4083564 
C    -2.1074769   -1.8327315   -0.3118855 
C    -1.9995684   -1.5578648    1.1991589 
C    -0.6908896   -3.4379983   -3.1865545 
C     0.4213600   -4.0508299   -2.3259701 
C    -1.7155489    1.2086091    3.8241151 
C    -1.9759592    2.2228436    2.7018194 
C    -1.8501175   -1.1347245   -3.5428702 
C     1.6284626   -3.5750379   -0.0954448 
C    -0.5657760   -1.1234625    4.1081480 
C    -2.2278239    2.2346814    0.0976927 
C    -1.7167305    0.3878729   -3.4245424 
C     1.5278479   -3.1653465    1.3759982 
C    -0.1039065   -0.9090064    5.5575292 
C    -3.1245418    3.4794519    0.1039313 
H     0.2770677   -1.5095079   -3.3800415 
H    -0.4714969   -4.0585744   -0.3339246 
H     0.3225822    0.6912632    3.3268813 
H    -3.2713128    0.9548632    1.5128272 
H    -2.5790824   -2.8113229   -0.5119302 
H    -2.7275414   -1.0594293   -0.8002943 
H    -1.4484927   -2.3725060    1.7027102 
H    -2.9961538   -1.4885522    1.6700802 
H    -1.6787248   -3.8452434   -2.8947375 
H    -0.5515149   -3.6650714   -4.2584228 
H     1.4027500   -3.7602744   -2.7450753 
H     0.3835618   -5.1539995   -2.3151046 
H    -2.6519234    0.6748793    4.0789601 
H    -1.3616215    1.7064857    4.7431682 
H    -1.0825003    2.8568215    2.5506761 
H    -2.8157674    2.8946517    2.9483225 
H    -1.9292055   -1.4138473   -4.6105448 
H    -2.7912984   -1.4824618   -3.0758597 
H     1.9914152   -4.6180795   -0.1641717 
H     2.3866251   -2.9531909   -0.6071635 
H    -1.5503985   -1.6287975    4.1045896 
H     0.1412899   -1.8057093    3.6011607 
H    -1.1799686    2.5280255   -0.0998117 
H    -2.5243514    1.5724926   -0.7357130 
H    -2.6226838    0.8990328   -3.7913866 
H    -0.8560875    0.7493856   -4.0109506 
H    -1.5490468    0.6981517   -2.3765744 
H     1.2314620   -2.1004637    1.4655644 
H     0.7803431   -3.7753230    1.9149640 
H     2.4959347   -3.2850273    1.8911915 
H    -0.0008198   -1.8749041    6.0803376 
H    -0.8232322   -0.2954310    6.1266294 
H     0.8760468   -0.3994483    5.5893219 
H    -3.1163132    3.9676925   -0.8856664 
H    -2.7787061    4.2205193    0.8452696 
H    -4.1718085    3.2209871    0.3436456 
