85
Energy =
C     2.4593662    0.2401491   -1.2745122 
C     2.1932129    1.5212340   -0.7004037 
C     2.1021013    1.6836442    0.7012949 
H     1.8800045    2.3438757   -1.3553037 
Pd    0.6135058    0.1340755   -0.0478152 
P    -1.2422426    0.2958893    1.3608404 
P    -0.3192536   -1.8168782   -0.8947720 
H     3.1042374   -0.4396358   -0.6992054 
H     2.5793386    0.9138739    1.3283726 
C     2.1847627   -0.6589662   -5.4823146 
C     1.4427076    0.4058673   -4.9439526 
C     1.5323696    0.7107964   -3.5813032 
C     2.3743022   -0.0367597   -2.7241566 
C     3.1223324   -1.0971170   -3.2824007 
C     3.0264603   -1.4072164   -4.6457537 
H     2.1101969   -0.8994037   -6.5476163 
H     0.7834917    0.9960473   -5.5892149 
H     0.9198351    1.5211390   -3.1713223 
H     3.7957137   -1.6770801   -2.6415780 
H     3.6183367   -2.2312773   -5.0575280 
C     1.0929925    5.2806072    2.8351341 
C     1.2902931    4.0701217    3.5188470 
C     1.6374696    2.9144550    2.8101771 
C     1.7777215    2.9381279    1.4028789 
C     1.5974696    4.1688974    0.7308096 
C     1.2589082    5.3260216    1.4411564 
H     0.8263168    6.1875699    3.3869382 
H     1.1825670    4.0304957    4.6077826 
H     1.8007917    1.9734275    3.3483200 
H     1.7242167    4.2282561   -0.3545576 
H     1.1263431    6.2711432    0.9047866 
C    -0.8431163   -1.9341402   -2.6956462 
C     0.6389627   -3.4510372   -0.9048344 
C    -1.0490067   -0.1078258    3.1832909 
C    -2.2891457    1.8490199    1.6533921 
C    -1.8247710   -2.2018717    0.1513469 
C    -2.4948758   -0.9315822    0.6937039 
C    -0.7049461   -3.4381506   -3.0144935 
C     0.6088773   -3.9148193   -2.3818993 
C    -2.2584740    0.5904212    3.8407853 
C    -2.3814597    1.9781908    3.1975436 
C    -2.1979880   -1.3047058   -3.0511736 
C     2.0473954   -3.4067441   -0.2912893 
C    -0.8575496   -1.5968814    3.5171383 
C    -1.8047398    3.1473831    0.9864068 
C    -2.2227312    0.2226198   -2.9332853 
C     2.0921057   -3.0199418    1.1897753 
C    -0.5038507   -1.8431140    4.9915428 
C    -1.6632195    3.0999731   -0.5363066 
H    -0.0418409   -1.3910887   -3.2342392 
H     0.0092478   -4.1348512   -0.3022126 
H    -0.1311906    0.4429833    3.4707517 
H    -3.2828461    1.5796414    1.2456176 
H    -1.4521782   -2.8266268    0.9819009 
H    -2.5355928   -2.8208527   -0.4254638 
H    -3.2362241   -1.1714664    1.4773467 
H    -3.0351713   -0.4013912   -0.1110814 
H    -1.5644750   -3.9956826   -2.5926589 
H    -0.7196541   -3.6004963   -4.1069606 
H     1.4583322   -3.4578424   -2.9227579 
H     0.7302024   -5.0104375   -2.4415344 
H    -3.1746350   -0.0070540    3.6648671 
H    -2.1293055    0.6627667    4.9348415 
H    -1.5459637    2.6144023    3.5453084 
H    -3.3180067    2.4878977    3.4829388 
H    -2.4355084   -1.5965035   -4.0916088 
H    -2.9960562   -1.7551365   -2.4294938 
H     2.4987533   -4.4079166   -0.4267360 
H     2.6702225   -2.7115997   -0.8824098 
H    -1.7831395   -2.1490506    3.2648269 
H    -0.0560649   -2.0113299    2.8792341 
H    -2.5260679    3.9390706    1.2657187 
H    -0.8437890    3.4407145    1.4404887 
H    -3.2279796    0.6257301   -3.1427220 
H    -1.5148416    0.6832959   -3.6430430 
H    -1.9258301    0.5530878   -1.9222640 
H     1.7010513   -1.9933526    1.3395926 
H     1.4849367   -3.7079354    1.8052496 
H     3.1250458   -3.0436489    1.5764474 
H    -0.3350205   -2.9174185    5.1773273 
H    -1.3119066   -1.5108080    5.6656328 
H     0.4173105   -1.3018874    5.2730468 
H    -1.3489674    4.0820582   -0.9282599 
H    -2.6129013    2.8257557   -1.0296197 
H    -0.8972820    2.3587989   -0.8376972 
