85
Energy =
C     2.4468355    0.1875564   -1.0962312 
C     2.1509076    1.4744407   -0.5685312 
C     2.0043664    1.6645889    0.8295423 
H     1.8625969    2.2817021   -1.2523671 
Pd    0.5300556    0.1246200    0.0676174 
P    -1.2433677    0.2410690    1.5836662 
P    -0.6120184   -1.6517834   -0.9260966 
H     3.0078766   -0.4949343   -0.4421550 
H     2.4963912    0.9334206    1.4890163 
C     2.5157006   -0.9764333   -5.2404808 
C     3.0768399   -1.7993631   -4.2516923 
C     3.0647499   -1.3946607   -2.9110477 
C     2.4852315   -0.1630994   -2.5272505 
C     1.9294328    0.6578330   -3.5355035 
C     1.9488773    0.2563478   -4.8760540 
H     2.5259108   -1.2887824   -6.2895453 
H     3.5313823   -2.7568201   -4.5265206 
H     3.5096882   -2.0377403   -2.1436246 
H     1.4622078    1.6119145   -3.2709311 
H     1.5145945    0.9068536   -5.6423333 
C     0.8608583    5.3050774    2.8257764 
C     1.1863729    4.1535791    3.5595300 
C     1.5748796    2.9849828    2.8937417 
C     1.6290194    2.9331154    1.4811826 
C     1.3191357    4.1079481    0.7577818 
C     0.9411727    5.2788761    1.4236036 
H     0.5619978    6.2223446    3.3429548 
H     1.1497729    4.1705247    4.6537780 
H     1.8495810    2.0951658    3.4713858 
H     1.3683703    4.1121261   -0.3353422 
H     0.7074176    6.1785939    0.8452025 
C    -0.6658845   -1.8943107   -2.7920925 
C    -0.1712405   -3.4563635   -0.5488728 
C    -1.0001569    0.2339803    3.4372745 
C    -2.4938272    1.6618601    1.6147781 
C    -2.3650906   -1.4996423   -0.2970130 
C    -2.3287452   -1.2448763    1.2196556 
C    -0.5705093   -3.4253820   -2.9927920 
C     0.3484306   -3.9897584   -1.9018724 
C    -2.3906113    0.6502267    3.9585075 
C    -2.8350719    1.8651790    3.1251203 
C    -1.8398678   -1.2245631   -3.5253032 
C     0.6977205   -3.7538728    0.6881115 
C    -0.3881404   -1.0334445    4.0512428 
C    -2.0299140    2.9706664    0.9519409 
C    -1.8186900    0.3070305   -3.4803517 
C     2.1499277   -3.2729055    0.6230802 
C     1.0718901   -1.2691752    3.6455796 
C    -1.7731290    2.8856283   -0.5532512 
H     0.2789670   -1.4388870   -3.1421408 
H    -1.1639483   -3.9156945   -0.3730737 
H    -0.3059750    1.0826608    3.6011080 
H    -3.3746146    1.2733481    1.0691469 
H    -2.9418874   -2.4094484   -0.5415062 
H    -2.8401894   -0.6510509   -0.8218954 
H    -1.8991519   -2.1145143    1.7492535 
H    -3.3439135   -1.0836955    1.6220040 
H    -1.5780897   -3.8764918   -2.9080557 
H    -0.1963464   -3.6494747   -4.0070201 
H     1.3829731   -3.6437417   -2.0786770 
H     0.3662506   -5.0942085   -1.8974235 
H    -3.1009737   -0.1920896    3.8568590 
H    -2.3443844    0.8979841    5.0342304 
H    -2.2813688    2.7537014    3.4796772 
H    -3.9091333    2.0825957    3.2513571 
H    -1.7986421   -1.5596175   -4.5791555 
H    -2.7969648   -1.6123546   -3.1268077 
H     0.2078460   -3.3243351    1.5817268 
H     0.6836624   -4.8502506    0.8378429 
H    -0.4541436   -0.9378301    5.1515079 
H    -1.0070590   -1.9141346    3.7936677 
H    -2.8142144    3.7269474    1.1487423 
H    -1.1242033    3.3323556    1.4695816 
H    -2.6964268    0.7328635   -3.9951018 
H    -0.9109350    0.6991058   -3.9685030 
H    -1.8196053    0.6839821   -2.4424704 
H     2.7066898   -3.7532808   -0.1996140 
H     2.1930857   -2.1799171    0.4734981 
H     2.6774158   -3.5042308    1.5633829 
H     1.4605209   -2.2087226    4.0726210 
H     1.7180480   -0.4455066    3.9980467 
H     1.1780593   -1.3255070    2.5466337 
H    -1.4669503    3.8662080   -0.9549626 
H    -2.6757075    2.5613471   -1.1018536 
H    -0.9626182    2.1625444   -0.7754412 
