85
Energy =
C     2.4724064    0.3609557   -1.2562692 
C     2.2279183    1.5797678   -0.5553958 
C     2.1948025    1.5850110    0.8643972 
H     1.8843505    2.4615961   -1.1101831 
Pd    0.6826399    0.1461263    0.0322236 
P    -1.0441782    0.1714078    1.5911199 
P    -0.4377439   -1.6171640   -0.9965921 
H     3.1117807   -0.3803428   -0.7537362 
H     2.7621941    0.7905325    1.3738816 
C     2.0480771   -0.2862890   -5.4939124 
C     1.4072658    0.8088097   -4.8889029 
C     1.5425694    1.0371881   -3.5155316 
C     2.3363877    0.1820238   -2.7153545 
C     2.9755720   -0.9145247   -3.3373832 
C     2.8311860   -1.1482206   -4.7116264 
H     1.9360913   -0.4647080   -6.5680814 
H     0.7906574    1.4833090   -5.4919650 
H     1.0069547    1.8755438   -3.0569662 
H     3.5951904   -1.5874050   -2.7335276 
H     3.3378976   -2.0016754   -5.1738929 
C     1.0832903    4.8083858    3.4942093 
C     0.8841505    4.9448186    2.1095092 
C     1.2531922    3.9162924    1.2363206 
C     1.8302238    2.7226794    1.7283889 
C     2.0456518    2.6100150    3.1222148 
C     1.6733461    3.6392297    3.9966566 
H     0.7924071    5.6156949    4.1738306 
H     0.4393449    5.8614338    1.7086102 
H     1.0908006    4.0458154    0.1613097 
H     2.5179165    1.7037367    3.5191709 
H     1.8509283    3.5304852    5.0716375 
C    -0.7098519   -1.7744451   -2.8431434 
C     0.3053318   -3.3479428   -0.7878122 
C    -0.7514250    0.3425591    3.4308193 
C    -2.3235050    1.5648072    1.4912880 
C    -2.1222708   -1.7047599   -0.1854304 
C    -2.0008534   -1.4133087    1.3204218 
C    -0.7633382   -3.3017085   -3.0685259 
C     0.3638290   -3.9182285   -2.2299245 
C    -1.9916216    1.1098820    3.9387531 
C    -2.2931018    2.2021119    2.9043503 
C    -1.8709336   -0.9520739   -3.4265765 
C     1.6620252   -3.4063329   -0.0642337 
C    -0.3866030   -0.9514572    4.1774208 
C    -2.1163186    2.5909010    0.3650371 
C    -1.9669001   -1.0624767   -4.9559320 
C     1.6272512   -2.9785427    1.4047704 
C     0.0618298   -0.6941527    5.6241781 
C    -2.2358211    2.0309884   -1.0535520 
H     0.2374126   -1.3960389   -3.2741160 
H    -0.4428023   -3.9129014   -0.1982551 
H     0.1123780    1.0349874    3.4762074 
H    -3.2932376    1.0494944    1.3444790 
H    -2.5867093   -2.6895154   -0.3708726 
H    -2.7526838   -0.9418030   -0.6762262 
H    -1.4335607   -2.2166218    1.8250171 
H    -2.9930808   -1.3533467    1.8022072 
H    -1.7492415   -3.6970308   -2.7541663 
H    -0.6435746   -3.5435443   -4.1386419 
H     1.3363564   -3.6436934   -2.6805518 
H     0.3149742   -5.0207193   -2.2078021 
H    -2.8498520    0.4164448    4.0373175 
H    -1.8054111    1.5412474    4.9375805 
H    -1.4919537    2.9652000    2.9357284 
H    -3.2460687    2.7205877    3.1084088 
H    -2.8272492   -1.2778517   -2.9747873 
H    -1.7318575    0.1080302   -3.1491630 
H     2.0305495   -4.4471484   -0.1376934 
H     2.3896614   -2.7850614   -0.6207299 
H    -1.2552892   -1.6370050    4.1754080 
H     0.4250068   -1.4696972    3.6341079 
H    -2.8637424    3.3937240    0.5117982 
H    -1.1271372    3.0642321    0.5001829 
H    -2.7608949   -0.4013057   -5.3427110 
H    -2.2044109   -2.0913756   -5.2763158 
H    -1.0140829   -0.7690521   -5.4304098 
H     1.3259884   -1.9142772    1.4925245 
H     0.9089059   -3.5845966    1.9859313 
H     2.6189367   -3.0839979    1.8763578 
H     0.3600407   -1.6364570    6.1140674 
H    -0.7462581   -0.2450909    6.2267319 
H     0.9270826   -0.0073376    5.6533171 
H    -2.1276243    2.8288557   -1.8081423 
H    -3.2126316    1.5415230   -1.2201102 
H    -1.4389336    1.2847934   -1.2427465 
