85
Energy =
C     2.4551913    0.1915637   -1.1358304 
C     2.2127380    1.4591719   -0.5172601 
C     2.1206114    1.5788355    0.8873912 
H     1.9128374    2.3070886   -1.1459516 
Pd    0.6120134    0.0707261    0.0834652 
P    -1.3174085    0.2932635    1.4003285 
P    -0.2939640   -1.8901024   -0.7725524 
H     3.1108739   -0.5099968   -0.6012215 
H     2.5682293    0.7752245    1.4936374 
C     2.0727596   -0.5182807   -5.3735823 
C     1.2968368    0.4767211   -4.7553486 
C     1.4233858    0.7187866   -3.3830467 
C     2.3355570   -0.0232689   -2.5955223 
C     3.1176361   -1.0109176   -3.2339907 
C     2.9852753   -1.2586384   -4.6071869 
H     1.9695619   -0.7105645   -6.4462798 
H     0.5826749    1.0608584   -5.3453464 
H     0.7846986    1.4722469   -2.9090141 
H     3.8493025   -1.5803090   -2.6502045 
H     3.6048138   -2.0266599   -5.0817966 
C     1.1015112    5.1093873    3.1215233 
C     1.2334109    3.8665613    3.7620548 
C     1.5908453    2.7331814    3.0233472 
C     1.8046128    2.8126279    1.6272900 
C     1.6965727    4.0755257    1.0014360 
C     1.3471501    5.2100686    1.7423761 
H     0.8267115    5.9989070    3.6972903 
H     1.0675116    3.7845864    4.8413010 
H     1.7039577    1.7657817    3.5262191 
H     1.8909218    4.1770126   -0.0706917 
H     1.2703524    6.1809085    1.2422707 
C    -0.9531659   -1.9718425   -2.5326921 
C     0.6838323   -3.5124793   -0.9039746 
C    -1.3605257    0.1902175    3.2772871 
C    -2.4001806    1.8516553    1.3352380 
C    -1.7203096   -2.3228574    0.3598719 
C    -2.4792248   -1.0737168    0.8342005 
C    -0.8597843   -3.4716884   -2.8814523 
C     0.4970936   -3.9689741   -2.3734822 
C    -2.7368388    0.7943977    3.6209339 
C    -2.8863673    2.0802527    2.7980579 
C    -2.3274632   -1.3363859   -2.7888793 
C     2.1625958   -3.4731582   -0.4838197 
C    -1.0762309   -1.1796814    3.9075662 
C    -1.7166861    3.1162978    0.7806826 
C    -2.3481207    0.1877536   -2.6485531 
C     2.4273651   -3.1189892    0.9797515 
C     0.3467336   -1.6897509    3.6691568 
C    -1.3180478    3.0818017   -0.6950755 
H    -0.1876585   -1.4274366   -3.1207684 
H     0.1384014   -4.2060278   -0.2342178 
H    -0.5772660    0.9070609    3.5946050 
H    -3.2524331    1.5778924    0.6848699 
H    -1.2664234   -2.8508865    1.2185315 
H    -2.3975983   -3.0392026   -0.1403158 
H    -3.1828646   -1.3253437    1.6475380 
H    -3.0810744   -0.6499280    0.0120030 
H    -1.6867526   -4.0252632   -2.3945496 
H    -0.9716281   -3.6192362   -3.9704728 
H     1.2994946   -3.5221339   -2.9900934 
H     0.5977390   -5.0657440   -2.4474380 
H    -3.5380176    0.0696830    3.3784377 
H    -2.8110609    0.9942859    4.7051697 
H    -2.2512146    2.8641618    3.2502303 
H    -3.9220711    2.4603493    2.8040072 
H    -2.6309767   -1.6136606   -3.8160934 
H    -3.0831067   -1.8000688   -2.1251203 
H     2.5849592   -4.4722822   -0.7036564 
H     2.6964183   -2.7700943   -1.1466350 
H    -1.2620399   -1.0892237    4.9945854 
H    -1.8164839   -1.9181005    3.5423529 
H    -2.4202555    3.9550187    0.9464544 
H    -0.8329206    3.3392695    1.4035602 
H    -3.3630754    0.5925839   -2.7998759 
H    -1.6770242    0.6612559   -3.3852074 
H    -1.9994396    0.5026712   -1.6498353 
H     2.0854348   -2.0908224    1.2035481 
H     1.9013848   -3.8056520    1.6664726 
H     3.5051133   -3.1701754    1.2101344 
H     0.5089424   -2.6714080    4.1450713 
H     1.0959383   -0.9874373    4.0766475 
H     0.5527422   -1.7969229    2.5906099 
H    -0.8233083    4.0246255   -0.9839583 
H    -2.1936471    2.9417049   -1.3524685 
H    -0.6100848    2.2533383   -0.8940446 
