85
Energy =
C     2.5062210    0.2774325   -1.2131642 
C     2.2793424    1.5135297   -0.5369841 
C     2.2193787    1.5429731    0.8816350 
H     1.9685584    2.3942680   -1.1124479 
Pd    0.6874556    0.1288698    0.0436607 
P    -1.0699869    0.2267397    1.5652779 
P    -0.4573825   -1.6240269   -0.9766706 
H     3.1177223   -0.4708280   -0.6868366 
H     2.7566992    0.7429704    1.4145436 
C     2.1394657   -0.4308573   -5.4463683 
C     2.8902074   -1.2964565   -4.6368716 
C     3.0169288   -1.0429522   -3.2643882 
C     2.3919474    0.0775977   -2.6714158 
C     1.6310588    0.9366540   -3.4989649 
C     1.5134574    0.6882528   -4.8704706 
H     2.0412205   -0.6249217   -6.5191705 
H     3.3854584   -2.1684410   -5.0764091 
H     3.6111513   -1.7191825   -2.6391062 
H     1.1065830    1.7940228   -3.0632422 
H     0.9218776    1.3657472   -5.4948651 
C     1.1385558    4.8348038    3.4383634 
C     1.6892076    3.6595944    3.9705082 
C     2.0524592    2.6075719    3.1197258 
C     1.8669624    2.7031567    1.7203471 
C     1.3296100    3.9025909    1.1984342 
C     0.9697174    4.9538728    2.0480420 
H     0.8549187    5.6598751    4.0994631 
H     1.8428415    3.5636055    5.0503883 
H     2.4939548    1.6963005    3.5399873 
H     1.1911915    4.0186998    0.1185475 
H     0.5561083    5.8747500    1.6241761 
C    -0.6976677   -1.8084228   -2.8252817 
C     0.2377740   -3.3684897   -0.7222463 
C    -0.8129488    0.4269030    3.4070912 
C    -2.3128802    1.6478719    1.4105821 
C    -2.1590028   -1.6551551   -0.1978067 
C    -2.0599186   -1.3391042    1.3046396 
C    -0.7838727   -3.3378415   -3.0244265 
C     0.3112795   -3.9657719   -2.1526268 
C    -2.0472946    1.2294287    3.8731778 
C    -2.3017897    2.3090043    2.8130570 
C    -1.8271318   -0.9695652   -3.4461406 
C     1.5776174   -3.4480511    0.0301676 
C    -0.4915266   -0.8599617    4.1854944 
C    -2.0538316    2.6492887    0.2729207 
C    -1.8983654   -1.1084994   -4.9745512 
C     1.5249431   -2.9921855    1.4901721 
C    -0.0690296   -0.5841344    5.6366413 
C    -2.1521994    2.0683054   -1.1388217 
H     0.2665195   -1.4606731   -3.2443418 
H    -0.5363810   -3.9040354   -0.1388129 
H     0.0642764    1.1019048    3.4582840 
H    -3.2907066    1.1529776    1.2482358 
H    -2.6441057   -2.6313603   -0.3750703 
H    -2.7603653   -0.8859288   -0.7146283 
H    -1.5225561   -2.1464996    1.8348791 
H    -3.0596404   -1.2461850    1.7653195 
H    -1.7850385   -3.7036229   -2.7228249 
H    -0.6490923   -3.6020071   -4.0874638 
H     1.2988520   -3.7223423   -2.5880877 
H     0.2355201   -5.0662209   -2.1122684 
H    -2.9223684    0.5563216    3.9644687 
H    -1.8742666    1.6748829    4.8681827 
H    -1.4855723    3.0556534    2.8500803 
H    -3.2480080    2.8506603    2.9858100 
H    -2.7993852   -1.2624932   -3.0059273 
H    -1.6665608    0.0921091   -3.1871499 
H     1.9200776   -4.4992551   -0.0167434 
H     2.3322915   -2.8563118   -0.5224930 
H    -1.3740965   -1.5274805    4.1772680 
H     0.3206062   -1.4051331    3.6698803 
H    -2.7851649    3.4718725    0.3879111 
H    -1.0571701    3.1014487    0.4245848 
H    -2.6677622   -0.4351343   -5.3890162 
H    -2.1568260   -2.1372454   -5.2787733 
H    -0.9298302   -0.8493852   -5.4370847 
H     1.2521695   -1.9184848    1.5524418 
H     0.7780888   -3.5670128    2.0670964 
H     2.5034648   -3.1164984    1.9841539 
H     0.1986772   -1.5227375    6.1506653 
H    -0.8803200   -0.1069827    6.2127161 
H     0.8095864    0.0852058    5.6717426 
H    -2.0068154    2.8506341   -1.9034035 
H    -3.1360839    1.5991437   -1.3213753 
H    -1.3690597    1.3003830   -1.2960218 
