85
Energy =
C     2.4282397    0.2711087   -1.0470278 
C     2.1520582    1.5677709   -0.5127481 
C     2.0146415    1.7618003    0.8808223 
H     1.8694969    2.3775738   -1.1970167 
Pd    0.5423356    0.2045315    0.1158633 
P    -1.3547901    0.4174009    1.4645957 
P    -0.3838494   -1.7567479   -0.7173519 
H     3.0508355   -0.3974819   -0.4354689 
H     2.4591446    0.9991028    1.5401474 
C     2.2941754   -0.7106425   -5.2433606 
C     1.5195690    0.3516022   -4.7474973 
C     1.5631795    0.6821112   -3.3885505 
C     2.3898877   -0.0367602   -2.4926323 
C     3.1703905   -1.0952431   -3.0082520 
C     3.1210840   -1.4305979   -4.3681041 
H     2.2561496   -0.9711057   -6.3058868 
H     0.8712611    0.9195667   -5.4230374 
H     0.9266110    1.4901704   -3.0115889 
H     3.8326117   -1.6531267   -2.3369053 
H     3.7378133   -2.2523077   -4.7467697 
C     0.9559018    5.4055371    2.9073896 
C     1.1306270    4.2096482    3.6223238 
C     1.4955174    3.0387073    2.9485545 
C     1.6757653    3.0320215    1.5454499 
C     1.5195027    4.2487631    0.8426933 
C     1.1632360    5.4211950    1.5182524 
H     0.6751586    6.3244739    3.4317147 
H     0.9917999    4.1935888    4.7083244 
H     1.6437767    2.1094095    3.5108201 
H     1.6784527    4.2847851   -0.2393840 
H     1.0491626    6.3551296    0.9585346 
C    -0.9065618   -1.8589323   -2.5188575 
C     0.5565624   -3.3979979   -0.7319687 
C    -1.2281150    0.1277628    3.3169944 
C    -2.4348357    1.9678768    1.6395628 
C    -1.8890549   -2.1353856    0.3314827 
C    -2.5794635   -0.8632120    0.8419729 
C    -0.7696482   -3.3602920   -2.8492203 
C     0.5387909   -3.8489426   -2.2135665 
C    -2.5243166    0.7606530    3.8617972 
C    -2.6829235    2.1197346    3.1668928 
C    -2.2577652   -1.2235015   -2.8765743 
C     1.9480226   -3.3525755   -0.0772772 
C    -0.9458067   -1.3103110    3.7739394 
C    -1.8852996    3.2625581    1.0155798 
C    -2.2774917    0.3027865   -2.7469253 
C     2.6254929   -4.7282500   -0.0074974 
C     0.4308742   -1.8377359    3.3549277 
C    -1.6360483    3.2244376   -0.4933206 
H    -0.1015660   -1.3140837   -3.0502761 
H    -0.0888847   -4.0826632   -0.1466041 
H    -0.3785655    0.7731046    3.6176146 
H    -3.3801821    1.6937754    1.1328674 
H    -1.5123110   -2.7384751    1.1769176 
H    -2.5891723   -2.7764662   -0.2342956 
H    -3.3114046   -1.0969311    1.6361380 
H    -3.1375063   -0.3711391    0.0255508 
H    -1.6328993   -3.9191057   -2.4366400 
H    -0.7793209   -3.5138714   -3.9430489 
H     1.3954488   -3.3915861   -2.7433599 
H     0.6489199   -4.9441487   -2.2886631 
H    -3.3874744    0.1013920    3.6457760 
H    -2.4730352    0.8662912    4.9604405 
H    -1.9277201    2.8190321    3.5720447 
H    -3.6735881    2.5697921    3.3508183 
H    -2.4909404   -1.5063460   -3.9204895 
H    -3.0604369   -1.6762248   -2.2623756 
H     2.5828673   -2.6520881   -0.6481187 
H     1.8597226   -2.9326895    0.9411923 
H    -1.0253189   -1.3310823    4.8774057 
H    -1.7475079   -1.9810421    3.4088710 
H    -2.6154743    4.0617739    1.2470598 
H    -0.9566610    3.5418705    1.5411890 
H    -3.2774732    0.7129050   -2.9676295 
H    -1.5568017    0.7666911   -3.4419360 
H    -1.9934770    0.6233644   -1.7290234 
H     2.0015646   -5.4517710    0.5477326 
H     2.8079251   -5.1427833   -1.0141111 
H     3.5992165   -4.6579416    0.5065668 
H     0.5865037   -2.8747077    3.6971484 
H     1.2393252   -1.2150316    3.7777617 
H     0.5498049   -1.8188894    2.2553627 
H    -1.2742477    4.2032371   -0.8506420 
H    -2.5542379    2.9759882   -1.0546278 
H    -0.8672495    2.4691923   -0.7484616 
