85
Energy =
C     2.4491705    0.2572019   -1.1457552 
C     2.2244713    1.4926594   -0.4671276 
C     2.1634757    1.5295282    0.9491663 
H     1.9189926    2.3741158   -1.0444169 
Pd    0.6120861    0.1191143    0.1066579 
P    -1.2062987    0.3120736    1.5491167 
P    -0.5016623   -1.6771452   -0.8714978 
H     3.0636613   -0.4913621   -0.6258192 
H     2.6655490    0.7113947    1.4883567 
C     2.1055769   -0.4043050   -5.3891574 
C     2.8762535   -1.2619944   -4.5900414 
C     2.9962456   -1.0231179   -3.2144697 
C     2.3430504    0.0734309   -2.6066354 
C     1.5687248    0.9288955   -3.4253845 
C     1.4576850    0.6951965   -4.8002984 
H     2.0120039   -0.5874360   -6.4642915 
H     3.3927525   -2.1160177   -5.0402808 
H     3.6122138   -1.6890082   -2.5994884 
H     1.0247040    1.7686234   -2.9800303 
H     0.8548089    1.3696178   -5.4174443 
C     1.2204619    4.8834724    3.4788569 
C     1.6086820    3.6521434    4.0286795 
C     1.9272118    2.5787095    3.1878068 
C     1.8557392    2.7071190    1.7806883 
C     1.4856519    3.9614725    1.2424721 
C     1.1707469    5.0348180    2.0828616 
H     0.9745642    5.7263615    4.1326109 
H     1.6721890    3.5305259    5.1150202 
H     2.2429141    1.6227884    3.6212228 
H     1.4468465    4.1056029    0.1579144 
H     0.8893562    5.9988281    1.6467276 
C    -0.5653128   -2.0736682   -2.7251495 
C     0.1146341   -3.3848452   -0.3673315 
C    -1.1312104    0.5178107    3.4122916 
C    -2.3609894    1.7961705    1.2804416 
C    -2.2588928   -1.6164683   -0.2230364 
C    -2.2684060   -1.2033236    1.2586425 
C    -0.1577042   -3.5750826   -2.8235956 
C    -0.4642892   -4.2748685   -1.4893187 
C    -2.4469144    1.2512200    3.7453602 
C    -2.6179037    2.3635480    2.7047685 
C    -1.9058081   -1.7671141   -3.4289253 
C     1.6590886   -3.4491875   -0.2981729 
C    -0.8645774   -0.7437116    4.2462455 
C    -1.8331200    2.8808051    0.3247697 
C    -2.2261110   -0.2781433   -3.5807082 
C     2.2658626   -2.8776653    0.9844380 
C     0.4414006   -1.4636867    3.8994238 
C    -1.7236519    2.4710031   -1.1430381 
H     0.2148098   -1.4423804   -3.1837573 
H    -0.3132783   -3.6410297    0.6197240 
H    -0.2924640    1.2286633    3.5526168 
H    -3.2957032    1.3646163    0.8727360 
H    -2.7541737   -2.5930154   -0.3651825 
H    -2.8059930   -0.8775145   -0.8341921 
H    -1.8411810   -2.0088476    1.8830805 
H    -3.2984913   -1.0249172    1.6149431 
H    -0.6894170   -4.0572712   -3.6615729 
H     0.9207192   -3.6482720   -3.0470036 
H    -0.0326386   -5.2910543   -1.4455677 
H    -1.5575824   -4.3864432   -1.3623142 
H    -3.2940355    0.5390567    3.7057932 
H    -2.4149193    1.6547678    4.7733750 
H    -1.8732162    3.1570878    2.9030959 
H    -3.6150071    2.8340651    2.7535660 
H    -1.8359477   -2.2180836   -4.4364412 
H    -2.7354086   -2.2975000   -2.9234489 
H     1.9533485   -4.5111706   -0.3984982 
H     2.0890857   -2.9325480   -1.1764426 
H    -0.8504464   -0.4359387    5.3088848 
H    -1.7206633   -1.4387332    4.1504256 
H    -2.5129637    3.7498989    0.4134964 
H    -0.8515212    3.2244861    0.6967417 
H    -3.1658678   -0.1325569   -4.1397838 
H    -1.4179574    0.2415422   -4.1235764 
H    -2.3366811    0.2216663   -2.6050178 
H     1.9547769   -1.8241735    1.1337773 
H     1.9428307   -3.4505592    1.8707867 
H     3.3684778   -2.9022221    0.9473903 
H     1.3091699   -0.7855237    3.9862017 
H     0.4248642   -1.8405375    2.8622838 
H     0.6149350   -2.3238492    4.5674755 
H    -1.3375568    3.3011867   -1.7596008 
H    -2.7051073    2.1763605   -1.5548110 
H    -1.0287187    1.6146445   -1.2623081 
