85
Energy =
C     2.4806034    0.2763491   -1.2580455 
C     2.2471106    1.5088590   -0.5768240 
C     2.1742551    1.5340104    0.8397597 
H     1.9477431    2.3937864   -1.1518888 
Pd    0.6362113    0.1269581   -0.0283742 
P    -1.1563748    0.2601203    1.4423102 
P    -0.4877769   -1.6491702   -1.0256870 
H     3.0866111   -0.4755073   -0.7311315 
H     2.6874665    0.7191167    1.3734257 
C     2.1867258   -0.3779003   -5.5055056 
C     2.9430308   -1.2403348   -4.6978921 
C     3.0462639   -1.0044477   -3.3204773 
C     2.3920898    0.0953084   -2.7201334 
C     1.6305709    0.9548671   -3.5470637 
C     1.5351625    0.7231455   -4.9234256 
H     2.1060135   -0.5593033   -6.5819608 
H     3.4596744   -2.0971180   -5.1426313 
H     3.6464440   -1.6772924   -2.6970934 
H     1.0835145    1.7954460   -3.1064914 
H     0.9414587    1.3998415   -5.5468674 
C     1.1725697    4.8399576    3.4099943 
C     1.6342169    3.6267510    3.9422055 
C     1.9715700    2.5697840    3.0873477 
C     1.8456149    2.6968671    1.6836073 
C     1.4004933    3.9340537    1.1627544 
C     1.0676887    4.9908692    2.0166853 
H     0.9105975    5.6695981    4.0742792 
H     1.7406183    3.5060014    5.0252462 
H     2.3495943    1.6303782    3.5076266 
H     1.3170704    4.0770388    0.0805393 
H     0.7266071    5.9413178    1.5936421 
C    -0.4743243   -2.0408713   -2.8773850 
C     0.0731984   -3.3635161   -0.4698443 
C    -0.8890789    0.3213147    3.2933788 
C    -2.2837379    1.7792874    1.3827267 
C    -2.2544220   -1.5665202   -0.4094464 
C    -2.2542541   -1.2160937    1.0899133 
C     0.0782587   -3.4932301   -2.9496902 
C    -0.3280930   -4.2464512   -1.6737265 
C    -2.0421536    1.2059962    3.8150290 
C    -2.2009194    2.3616282    2.8170259 
C    -1.8239558   -1.8526035   -3.6065391 
C     1.5805596   -3.4213053   -0.1353438 
C    -0.6856646   -1.0372649    3.9844276 
C    -1.9602825    2.8085696    0.2886601 
C    -2.2171388   -0.3898146   -3.8373058 
C     1.9409460   -2.7997825    1.2170490 
C    -0.1979375   -0.8983967    5.4344424 
C    -2.0997429    2.2898215   -1.1434587 
H     0.2546826   -1.3431689   -3.3227201 
H    -0.5041144   -3.6352586    0.4332392 
H     0.0466576    0.9075630    3.3801367 
H    -3.2995527    1.3706395    1.2139179 
H    -2.7653106   -2.5286010   -0.5905126 
H    -2.7818802   -0.7933734   -0.9937077 
H    -1.8424514   -2.0570741    1.6766261 
H    -3.2787106   -1.0305021    1.4585907 
H    -0.2950480   -3.9970678   -3.8579581 
H     1.1788704   -3.4609853   -3.0325194 
H     0.1497143   -5.2404085   -1.6072131 
H    -1.4215065   -4.4150826   -1.6688075 
H    -2.9749682    0.6118266    3.8764305 
H    -1.8250348    1.5778875    4.8314942 
H    -1.3193337    3.0273814    2.8842558 
H    -3.0921751    2.9775811    3.0289748 
H    -1.7197482   -2.3485269   -4.5897896 
H    -2.6314865   -2.3984374   -3.0828521 
H     1.8846343   -4.4849956   -0.1404815 
H     2.1621218   -2.9337252   -0.9406190 
H    -1.6351732   -1.6053822    3.9674321 
H     0.0492554   -1.6317444    3.4089633 
H    -2.6341809    3.6731211    0.4399008 
H    -0.9356167    3.1856204    0.4546039 
H    -3.1663867   -0.3204499   -4.3948871 
H    -1.4381097    0.1340832   -4.4181112 
H    -2.3442974    0.1608805   -2.8909698 
H     1.6288577   -1.7341695    1.2581865 
H     1.4367150   -3.3281201    2.0457517 
H     3.0284212   -2.8386485    1.3988876 
H    -0.0308925   -1.8900458    5.8879092 
H    -0.9333936   -0.3639420    6.0599758 
H     0.7542793   -0.3395491    5.4794837 
H    -1.9084907    3.0890445   -1.8798656 
H    -3.1133919    1.8932607   -1.3354350 
H    -1.3676526    1.4802506   -1.3361547 
