85
Energy =
C     2.4469721    0.3988754   -1.1132188 
C     2.1952975    1.6013791   -0.3869889 
C     2.1785108    1.5953977    1.0317360 
H     1.8329361    2.4855579   -0.9259042 
Pd    0.6672256    0.1479974    0.2063676 
P    -1.1144253    0.2800101    1.6850733 
P    -0.4734711   -1.6210068   -0.7881767 
H     3.1094728   -0.3421752   -0.6433760 
H     2.7468504    0.7957868    1.5317454 
C     1.9441319   -0.1162465   -5.3622565 
C     1.2980507    0.9461902   -4.7071068 
C     1.4599694    1.1309398   -3.3298774 
C     2.2854548    0.2637635   -2.5744032 
C     2.9347109   -0.7951437   -3.2491545 
C     2.7631629   -0.9858392   -4.6267256 
H     1.8101725   -0.2623824   -6.4387235 
H     0.6562441    1.6291176   -5.2734453 
H     0.9175826    1.9423347   -2.8326953 
H     3.5882020   -1.4700708   -2.6848432 
H     3.2775249   -1.8117834   -5.1288157 
C     1.1031968    4.8097682    3.6887349 
C     0.9216857    4.9665733    2.3038516 
C     1.2789098    3.9409575    1.4222312 
C     1.8239901    2.7288115    1.9055753 
C     2.0216577    2.5955266    3.3001876 
C     1.6629684    3.6223442    4.1830244 
H     0.8234372    5.6154746    4.3748938 
H     0.5031520    5.8980390    1.9089440 
H     1.1383035    4.0912452    0.3470290 
H     2.4682344    1.6738387    3.6906834 
H     1.8275794    3.4976516    5.2582912 
C    -0.6345471   -1.8109838   -2.6570064 
C     0.1760619   -3.3586981   -0.4828677 
C    -0.9582076    0.5718568    3.5290466 
C    -2.3274773    1.7079254    1.3924040 
C    -2.1923264   -1.6418354   -0.0421961 
C    -2.1242954   -1.2763113    1.4506258 
C    -0.1815970   -3.2722282   -2.9483669 
C    -0.4071790   -4.1293570   -1.6903773 
C    -2.1961057    1.4248271    3.8784093 
C    -2.3640079    2.4521851    2.7515981 
C    -2.0298932   -1.4492120   -3.2128101 
C     1.7188799   -3.4027937   -0.4133443 
C    -0.7329055   -0.6707064    4.4030355 
C    -2.0114837    2.6317222    0.2038402 
C    -2.0378226   -1.3367196   -4.7444777 
C     2.2997223   -2.8900934    0.9069341 
C     0.5558712   -1.4353040    4.0781749 
C    -2.1297016    1.9848319   -1.1787577 
H     0.0950299   -1.0998094   -3.0797134 
H    -0.2441243   -3.7271411    0.4715025 
H    -0.0670646    1.2262310    3.6015053 
H    -3.3062959    1.2169987    1.2234896 
H    -2.6591052   -2.6310523   -0.1928913 
H    -2.7997805   -0.9033826   -0.5931825 
H    -1.6200585   -2.0766476    2.0219157 
H    -3.1342305   -1.1492554    1.8798363 
H    -0.7310950   -3.6821097   -3.8127583 
H     0.8873685   -3.2765648   -3.2223586 
H     0.0595706   -5.1268256   -1.7804281 
H    -1.4905107   -4.2966653   -1.5401800 
H    -3.0928161    0.7789647    3.9525682 
H    -2.0633428    1.9101727    4.8616832 
H    -1.5283986    3.1768192    2.7881242 
H    -3.3014773    3.0277679    2.8448025 
H    -2.7710366   -2.2026815   -2.8837987 
H    -2.3553490   -0.4817789   -2.7896167 
H     2.0318881   -4.4525944   -0.5688073 
H     2.1440238   -2.8299001   -1.2586482 
H    -0.7050222   -0.3312860    5.4557852 
H    -1.6087060   -1.3435645    4.3299033 
H    -2.7043109    3.4924280    0.2663330 
H    -0.9959399    3.0449120    0.3401138 
H    -3.0438197   -1.0687328   -5.1095409 
H    -1.7491299   -2.2864316   -5.2274785 
H    -1.3288399   -0.5600632   -5.0810716 
H     1.9797498   -1.8452735    1.1004193 
H     1.9617166   -3.5054991    1.7591214 
H     3.4028417   -2.9065134    0.8914252 
H     0.6987199   -2.2870973    4.7639895 
H     1.4399545   -0.7784379    4.1640409 
H     0.5437290   -1.8317617    3.0473635 
H    -1.9460117    2.7223561   -1.9788523 
H    -3.1357092    1.5570340   -1.3420211 
H    -1.3830935    1.1753473   -1.2990962 
