85
Energy =
C     2.4855690    0.1499971   -1.1239451 
C     2.2077594    1.4366835   -0.5829003 
C     2.0452533    1.6203342    0.8145061 
H     1.9377176    2.2525155   -1.2640019 
Pd    0.5752874    0.0916199    0.0224690 
P    -1.1892122    0.1229981    1.5567659 
P    -0.5183231   -1.6775741   -1.0395183 
H     3.0253040   -0.5570822   -0.4758982 
H     2.5373656    0.8927775    1.4770406 
C     2.5622853   -0.9092719   -5.2990830 
C     3.1459658   -1.7449839   -4.3349054 
C     3.1303881   -1.3771250   -2.9832294 
C     2.5259786   -0.1703146   -2.5640789 
C     1.9487778    0.6650621   -3.5486604 
C     1.9699885    0.3006150   -4.8994112 
H     2.5746348   -1.1935581   -6.3560633 
H     3.6216013   -2.6838051   -4.6369389 
H     3.5970251   -2.0307174   -2.2376191 
H     1.4618661    1.6010175   -3.2562905 
H     1.5168983    0.9614848   -5.6456293 
C     0.8268029    5.2416918    2.8028968 
C     1.1759229    4.0985099    3.5388728 
C     1.5889846    2.9371760    2.8757377 
C     1.6483893    2.8844784    1.4634868 
C     1.3167953    4.0516249    0.7381687 
C     0.9109534    5.2147821    1.4011675 
H     0.5063216    6.1529227    3.3178141 
H     1.1359696    4.1157512    4.6330217 
H     1.8743765    2.0523897    3.4537882 
H     1.3710186    4.0566784   -0.3545174 
H     0.6596704    6.1083829    0.8205548 
C    -0.7396223   -1.7856074   -2.9052854 
C     0.1512873   -3.4447715   -0.8604503 
C    -1.0142337    0.1927231    3.4202781 
C    -2.5248906    1.4565491    1.5218846 
C    -2.2301744   -1.7209799   -0.2904225 
C    -2.1641562   -1.4463465    1.2208092 
C    -0.7429545   -3.3025620   -3.1931634 
C     0.3396075   -3.9385441   -2.3157484 
C    -2.4734411    0.4112799    3.8701262 
C    -3.0749270    1.5227812    2.9876420 
C    -1.9299941   -1.0197987   -3.5020632 
C     1.4098679   -3.5994417    0.0067606 
C    -0.2670384   -0.9600813    4.1135963 
C    -2.0380616    2.8394061    1.0423680 
C    -1.8656622    0.4965100   -3.3009960 
C     1.1820044   -3.3139823    1.4907196 
C     1.2602711   -0.8404365    4.0424024 
C    -1.6815605    2.9319142   -0.4407057 
H     0.1993274   -1.3560362   -3.3040691 
H    -0.6786781   -4.0106221   -0.3930885 
H    -0.4578829    1.1375603    3.5859951 
H    -3.3006449    1.0850440    0.8263083 
H    -2.7190969   -2.6881737   -0.5038471 
H    -2.8199824   -0.9345772   -0.7958148 
H    -1.6511682   -2.2728475    1.7450453 
H    -3.1786737   -1.3633095    1.6472115 
H    -1.7366955   -3.7279681   -2.9516836 
H    -0.5638354   -3.4869296   -4.2672122 
H     1.3349077   -3.6217787   -2.6783828 
H     0.3132743   -5.0417853   -2.3492023 
H    -3.0395809   -0.5342488    3.7783973 
H    -2.5065785    0.6923867    4.9380723 
H    -2.7819374    2.5003898    3.4098945 
H    -4.1771740    1.4922424    2.9901524 
H    -1.9531084   -1.2482039   -4.5844550 
H    -2.8751546   -1.4256154   -3.0931334 
H     1.7802366   -4.6340527   -0.1222427 
H     2.2028865   -2.9377616   -0.3896486 
H    -0.5779835   -0.9698867    5.1750773 
H    -0.5988494   -1.9319260    3.7020039 
H    -2.8501052    3.5582391    1.2646947 
H    -1.1776396    3.1558647    1.6611860 
H    -2.7459935    0.9965641   -3.7387966 
H    -0.9620559    0.9175721   -3.7733305 
H    -1.8253716    0.7576249   -2.2294935 
H     0.8328464   -2.2743612    1.6312619 
H     0.4210127   -3.9914199    1.9187992 
H     2.1097339   -3.4332146    2.0747994 
H     1.7502315   -1.7356647    4.4599267 
H     1.6115787    0.0337708    4.6180934 
H     1.6073517   -0.7205097    3.0008013 
H    -1.3689328    3.9559889   -0.7033386 
H    -2.5431250    2.6656778   -1.0781397 
H    -0.8467968    2.2482950   -0.6931932 
