85
Energy =
C     2.4545086    0.2108945   -1.2903875 
C     2.2025781    1.4580886   -0.6469497 
C     2.1056136    1.5215070    0.7672119 
H     1.9137658    2.3282396   -1.2493168 
Pd    0.5882892    0.0731580   -0.0918028 
P    -1.1470743    0.0489259    1.4623983 
P    -0.4557590   -1.7482248   -1.0826944 
H     3.0400281   -0.5261628   -0.7207691 
H     2.6175595    0.7271618    1.3326050 
C     2.2914887   -0.6010912   -5.5176974 
C     2.9725229   -1.4645254   -4.6461802 
C     3.0355443   -1.1749861   -3.2768383 
C     2.4141064   -0.0210009   -2.7471714 
C     1.7344574    0.8410697   -3.6383165 
C     1.6788934    0.5558955   -5.0071398 
H     2.2426137   -0.8232774   -6.5884150 
H     3.4631135   -2.3629805   -5.0347787 
H     3.5782577   -1.8487783   -2.6039853 
H     1.2248400    1.7317302   -3.2558705 
H     1.1487490    1.2369011   -5.6811562 
C     1.0265912    4.9034850    3.2023349 
C     1.5526502    3.7386869    3.7806112 
C     1.9187061    2.6573052    2.9692726 
C     1.7542235    2.7090298    1.5644218 
C     1.2459092    3.8999764    0.9959592 
C     0.8863724    4.9819082    1.8059850 
H     0.7419372    5.7521527    3.8323481 
H     1.6887911    3.6756780    4.8652347 
H     2.3518625    1.7593575    3.4252214 
H     1.1251842    3.9834156   -0.0881254 
H     0.4955924    5.8955195    1.3461163 
C    -0.7214850   -1.9491261   -2.9303938 
C     0.3610897   -3.4432620   -0.8448244 
C    -0.7456370    0.3087640    3.2814618 
C    -2.4930195    1.3635853    1.4110853 
C    -2.1326387   -1.9121923   -0.2670204 
C    -2.0241804   -1.5876081    1.2342297 
C    -0.6435048   -3.4762266   -3.1454303 
C     0.5112320   -4.0018647   -2.2834564 
C    -1.7172529    1.4196896    3.7575595 
C    -2.0630720    2.3092165    2.5535233 
C    -1.9699066   -1.2682343   -3.5115838 
C     1.6759694   -3.4527968   -0.0471557 
C    -0.7129171   -0.9640889    4.1464778 
C    -2.8226656    2.0083794    0.0529931 
C    -1.9563832    0.2595831   -3.3916126 
C     1.5455140   -3.0361679    1.4205347 
C    -0.2320291   -0.6895912    5.5793990 
C    -1.7031708    2.8359436   -0.5844856 
H     0.1807976   -1.4853892   -3.3747732 
H    -0.3933658   -4.0435153   -0.2994293 
H     0.2710449    0.7406320    3.2522183 
H    -3.3947364    0.8166643    1.7527267 
H    -2.5398291   -2.9255571   -0.4325324 
H    -2.8100636   -1.1979785   -0.7680959 
H    -1.4246711   -2.3558902    1.7545024 
H    -3.0187280   -1.5603740    1.7135579 
H    -1.5993326   -3.9477683   -2.8439873 
H    -0.4932666   -3.7049884   -4.2154386 
H     1.4692734   -3.6474508   -2.7073361 
H     0.5503680   -5.1049219   -2.2627938 
H    -2.6399296    0.9561558    4.1565887 
H    -1.2611088    2.0039883    4.5747400 
H    -1.1767477    2.8997467    2.2550128 
H    -2.8713037    3.0253179    2.7862035 
H    -2.0335679   -1.5531967   -4.5787447 
H    -2.8773697   -1.6889508   -3.0378477 
H     2.0872849   -4.4784953   -0.1029903 
H     2.4093799   -2.8026181   -0.5596588 
H    -1.7222160   -1.4174755    4.1737614 
H    -0.0439230   -1.7098692    3.6777173 
H    -3.1473960    1.2168463   -0.6478616 
H    -3.7105895    2.6512157    0.2045488 
H    -2.8973513    0.6995781   -3.7623801 
H    -1.1226743    0.6891022   -3.9711464 
H    -1.8198162    0.5791579   -2.3431062 
H     1.1992851   -1.9855634    1.5004008 
H     0.8240015   -3.6769486    1.9592705 
H     2.5147081   -3.1071563    1.9427048 
H    -0.1801952   -1.6262579    6.1597988 
H    -0.9129361   -0.0029107    6.1111462 
H     0.7748496   -0.2343159    5.5781403 
H    -2.0102886    3.2059029   -1.5771218 
H    -0.7884362    2.2238071   -0.7186316 
H    -1.4390091    3.7064152    0.0374100 
