85
Energy =
C     2.5804539    0.1054602   -1.1485023 
C     2.3086380    1.3714656   -0.5551896 
C     2.1741936    1.4953546    0.8530916 
H     2.0214743    2.2130407   -1.1971318 
Pd    0.6994975    0.0010521    0.0381527 
P    -1.0858210    0.0868302    1.5308618 
P    -0.4192421   -1.7605128   -1.0053080 
H     3.1465089   -0.6173344   -0.5415009 
H     2.6903628    0.7450430    1.4716941 
C     2.5005582   -0.8322915   -5.3534156 
C     3.1305091   -1.6889486   -4.4379023 
C     3.1678594   -1.3591906   -3.0768000 
C     2.5715298   -0.1703082   -2.5986056 
C     1.9478769    0.6869085   -3.5350025 
C     1.9159074    0.3604675   -4.8953562 
H     2.4713984   -1.0867851   -6.4176416 
H     3.6012837   -2.6143235   -4.7856804 
H     3.6699691   -2.0294643   -2.3699716 
H     1.4667485    1.6103048   -3.1965277 
H     1.4271754    1.0379145   -5.6033260 
C     0.9958515    5.0038770    3.0574290 
C     1.5012301    3.8738697    3.7177565 
C     1.8932043    2.7485129    2.9821113 
C     1.7806388    2.7215396    1.5728238 
C     1.2847491    3.8748091    0.9213790 
C     0.8984508    5.0010932    1.6557243 
H     0.6922073    5.8870658    3.6284890 
H     1.5999626    3.8723799    4.8082955 
H     2.3006212    1.8742410    3.5007823 
H     1.1923503    3.8945917   -0.1693081 
H     0.5183562    5.8841841    1.1317311 
C    -0.6995976   -1.8429777   -2.8625228 
C     0.2936455   -3.5140445   -0.8741381 
C    -1.0116479    0.3946920    3.3767173 
C    -2.4155706    1.3911000    1.2104915 
C    -2.1042745   -1.8573324   -0.1940745 
C    -1.9970689   -1.5340896    1.3064028 
C    -0.6902358   -3.3557465   -3.1722933 
C     0.4337222   -3.9863322   -2.3426280 
C    -2.4430354    0.8818838    3.6902473 
C    -2.8147703    1.9192739    2.6191397 
C    -1.9165115   -1.0813438   -3.4094326 
C     1.5884212   -3.6488591   -0.0580289 
C    -0.4833438   -0.7510308    4.2569384 
C    -1.9657196    2.4985704    0.2399493 
C    -1.8677264    0.4327147   -3.1823454 
C     1.4270122   -3.3357425    1.4299566 
C     1.0427323   -0.9026655    4.2211478 
C    -3.0901512    3.4776559   -0.1203983 
H     0.2216447   -1.3941210   -3.2817834 
H    -0.5043368   -4.1024382   -0.3800701 
H    -0.3288247    1.2639611    3.4659670 
H    -3.2637266    0.8377190    0.7622442 
H    -2.5533151   -2.8521020   -0.3626585 
H    -2.7494240   -1.1159532   -0.6998300 
H    -1.4188235   -2.3154031    1.8317038 
H    -2.9952659   -1.4838701    1.7759774 
H    -1.6681115   -3.8001311   -2.9018949 
H    -0.5462297   -3.5233620   -4.2543835 
H     1.4097798   -3.6494133   -2.7380532 
H     0.4225145   -5.0892437   -2.3906448 
H    -3.1464593    0.0270491    3.6781668 
H    -2.4866389    1.3152692    4.7056634 
H    -2.2486988    2.8493759    2.8147369 
H    -3.8862456    2.1784372    2.6526228 
H    -1.9676436   -1.2875447   -4.4952764 
H    -2.8445171   -1.5077902   -2.9827011 
H     1.9563254   -4.6847391   -0.1842393 
H     2.3610760   -2.9928661   -0.5010858 
H    -0.8026568   -0.5476883    5.2963907 
H    -0.9753998   -1.7023027    3.9794117 
H    -1.1215137    3.0445850    0.6981480 
H    -1.5667823    2.0353489   -0.6809568 
H    -2.7636886    0.9282647   -3.5925929 
H    -0.9789107    0.8736898   -3.6643431 
H    -1.8100177    0.6761901   -2.1059438 
H     1.0935070   -2.2892987    1.5688478 
H     0.6786395   -3.9965583    1.9039551 
H     2.3782345   -3.4550952    1.9751926 
H     1.3683051   -1.8051212    4.7649506 
H     1.5326207   -0.0319513    4.6902404 
H     1.4166263   -0.9782726    3.1849680 
H    -2.7279508    4.2458571   -0.8250579 
H    -3.4768733    4.0000250    0.7721102 
H    -3.9376025    2.9529207   -0.5980628 
