85
Energy =
C     2.4930859    0.2778792   -1.2004335 
C     2.2801731    1.4947469   -0.4858369 
C     2.2443775    1.4956802    0.9325074 
H     1.9627520    2.3901348   -1.0344408 
Pd    0.6856392    0.1064164    0.0903987 
P    -1.0952910    0.2836388    1.5610117 
P    -0.5092058   -1.6232218   -0.9052569 
H     3.1143383   -0.4874821   -0.7126138 
H     2.7767605    0.6769097    1.4410402 
C     2.0481521   -0.2537705   -5.4535215 
C     2.8130458   -1.1521504   -4.6947736 
C     2.9662652   -0.9566900   -3.3157194 
C     2.3532574    0.1370523   -2.6631747 
C     1.5825392    1.0335878   -3.4420348 
C     1.4382966    0.8429206   -4.8204423 
H     1.9278326   -0.4043252   -6.5309992 
H     3.2979888   -2.0058237   -5.1794381 
H     3.5748698   -1.6569700   -2.7320499 
H     1.0682585    1.8734791   -2.9623517 
H     0.8384500    1.5482135   -5.4050685 
C     1.2604630    4.7506395    3.5747451 
C     1.7716166    3.5443375    4.0757798 
C     2.1024470    2.5043555    3.1974247 
C     1.9235869    2.6431158    1.8006323 
C     1.4270217    3.8733151    1.3106216 
C     1.0988885    4.9123308    2.1878382 
H     1.0026137    5.5666209    4.2573201 
H     1.9197394    3.4143362    5.1528573 
H     2.5129030    1.5681459    3.5936521 
H     1.3005939    4.0259488    0.2339541 
H     0.7176453    5.8576534    1.7881561 
C    -0.6099228   -1.8350692   -2.7725317 
C     0.0510370   -3.3804178   -0.5303758 
C    -0.8657925    0.5084421    3.3997630 
C    -2.2498516    1.7652693    1.3405183 
C    -2.2413570   -1.5683597   -0.1964468 
C    -2.1647672   -1.2275828    1.3020613 
C    -0.0978309   -3.2827441   -3.0212299 
C    -0.4228241   -4.1451694   -1.7896557 
C    -2.0404433    1.4198195    3.8181687 
C    -2.1942343    2.4789171    2.7161093 
C    -2.0007749   -1.5231291   -3.3684993 
C     1.5680888   -3.4786856   -0.2619227 
C    -0.6573409   -0.7872528    4.2018423 
C    -1.9344017    2.6912586    0.1536776 
C    -1.9753023   -1.4414491   -4.9019309 
C     1.9851992   -2.9342434    1.1083442 
C    -0.2171663   -0.5231858    5.6496105 
C    -2.1077397    2.0599413   -1.2313282 
H     0.1082373   -1.1071670   -3.1859818 
H    -0.4922820   -3.7251942    0.3690849 
H     0.0606389    1.1131253    3.4566234 
H    -3.2568608    1.3240823    1.2030482 
H    -2.7481531   -2.5348177   -0.3648379 
H    -2.8088658   -0.7962362   -0.7432542 
H    -1.6892671   -2.0534745    1.8620745 
H    -3.1695962   -1.0697727    1.7330699 
H    -0.5491831   -3.7024558   -3.9363034 
H     0.9929219   -3.2587446   -3.1889051 
H     0.0524444   -5.1410480   -1.8445614 
H    -1.5145811   -4.3150653   -1.7309247 
H    -2.9674007    0.8213600    3.9156619 
H    -1.8475407    1.8855077    4.8001857 
H    -1.3196655    3.1568707    2.7354240 
H    -3.0943864    3.1021074    2.8582870 
H    -2.7320979   -2.2864960   -3.0405350 
H    -2.3582044   -0.5548111   -2.9721314 
H     1.8546744   -4.5446762   -0.3358044 
H     2.1247814   -2.9551723   -1.0622147 
H    -1.5930548   -1.3781682    4.2007855 
H     0.1081823   -1.4075462    3.6955535 
H    -2.5960205    3.5740265    0.2407109 
H    -0.9021483    3.0685742    0.2676634 
H    -2.9773540   -1.2001648   -5.2953474 
H    -1.6581383   -2.3950597   -5.3584822 
H    -1.2732613   -0.6583196   -5.2385470 
H     1.6983637   -1.8655216    1.2137193 
H     1.4944967   -3.4919874    1.9261387 
H     3.0766278   -3.0047792    1.2530350 
H    -0.0399337   -1.4714219    6.1846551 
H    -0.9843863    0.0388889    6.2094456 
H     0.7188843    0.0633367    5.6770379 
H    -1.9217220    2.7991931   -2.0292062 
H    -3.1302269    1.6645475   -1.3729103 
H    -1.3896025    1.2290960   -1.3782154 
