85
Energy =
C     2.4849196    0.2141234   -1.0768619 
C     2.2771653    1.4472748   -0.3878644 
C     2.2095400    1.4757796    1.0285970 
H     1.9869244    2.3378898   -0.9593039 
Pd    0.6582330    0.0749068    0.1732378 
P    -1.1397073    0.1772622    1.6426402 
P    -0.4478614   -1.7108379   -0.8178406 
H     3.0965756   -0.5451811   -0.5675684 
H     2.7242781    0.6651476    1.5674546 
C     2.0685205   -0.3897653   -5.3245986 
C     2.8407019   -1.2673924   -4.5490108 
C     2.9865402   -1.0482941   -3.1724088 
C     2.3562954    0.0467855   -2.5391784 
C     1.5749338    0.9192333   -3.3337185 
C     1.4413470    0.7077169   -4.7100563 
H     1.9565752   -0.5565850   -6.4006276 
H     3.3402774   -2.1210145   -5.0187558 
H     3.6047984   -1.7300919   -2.5776099 
H     1.0462899    1.7580329   -2.8681186 
H     0.8361321    1.3974355   -5.3074800 
C     1.1477641    4.7902520    3.5617080 
C     1.7470965    3.6402353    4.0954236 
C     2.1021625    2.5788811    3.2523320 
C     1.8651822    2.6427355    1.8590210 
C     1.2768270    3.8170783    1.3346542 
C     0.9211478    4.8752654    2.1767296 
H     0.8687456    5.6217130    4.2167982 
H     1.9435782    3.5702556    5.1702700 
H     2.5759006    1.6849906    3.6737781 
H     1.0891761    3.9041572    0.2605841 
H     0.4668897    5.7762718    1.7513862 
C    -0.8075290   -1.7565471   -2.6488384 
C     0.3286289   -3.4385585   -0.7642645 
C    -0.9869886    0.7480849    3.4260722 
C    -2.5504058    1.3668151    1.2233363 
C    -2.0836206   -1.9136482    0.0808006 
C    -1.9394782   -1.5102383    1.5617149 
C    -0.9351823   -3.2650595   -2.9488162 
C     0.2349371   -3.9530573   -2.2281145 
C    -2.1812350    1.7071425    3.6418108 
C    -2.4320502    2.4474152    2.3203467 
C    -1.9356493   -0.8314993   -3.1311812 
C     1.7524737   -3.5105751   -0.1877215 
C    -0.8277733   -0.3514302    4.4883776 
C    -2.6797334    1.8621436   -0.2292830 
C    -2.0982863   -0.8344621   -4.6585065 
C     1.8646582   -3.1106260    1.2848642 
C     0.4928950   -1.1246316    4.3940372 
C    -1.5093339    2.6856445   -0.7734731 
H     0.1430714   -1.4002203   -3.0931710 
H    -0.3479775   -4.0305172   -0.1185108 
H    -0.0651782    1.3609991    3.4104558 
H    -3.4549584    0.7680160    1.4506787 
H    -2.4444192   -2.9522103   -0.0199356 
H    -2.8196646   -1.2622557   -0.4226800 
H    -1.2854847   -2.2204250    2.0996688 
H    -2.9192320   -1.5021825    2.0717642 
H    -1.9080875   -3.6468052   -2.5820627 
H    -0.9006595   -3.4563350   -4.0352893 
H     1.1741317   -3.6944426   -2.7519860 
H     0.1460667   -5.0530308   -2.2417348 
H    -3.0810245    1.1281452    3.9260855 
H    -1.9620516    2.4008510    4.4723342 
H    -1.5846952    3.1257607    2.1066281 
H    -3.3487027    3.0627294    2.3525367 
H    -2.8938330   -1.1237324   -2.6604431 
H    -1.7109587    0.1967769   -2.7906103 
H     2.1112666   -4.5490967   -0.3200838 
H     2.4184194   -2.8782625   -0.8038298 
H    -0.8935921    0.1386792    5.4784402 
H    -1.6877917   -1.0465215    4.4408525 
H    -2.8500401    0.9921885   -0.8889227 
H    -3.6072388    2.4636811   -0.2834903 
H    -2.4119950   -1.8247314   -5.0309319 
H    -1.1479016   -0.5696253   -5.1539448 
H    -2.8636146   -0.1032359   -4.9695741 
H     1.5664554   -2.0508836    1.4230297 
H     1.2127438   -3.7327459    1.9244034 
H     2.8994426   -3.2158582    1.6525964 
H     0.5639403   -1.8894264    5.1854874 
H     1.3562553   -0.4445630    4.5014867 
H     0.5980665   -1.6369790    3.4220486 
H    -1.6885470    2.9674206   -1.8250546 
H    -0.5705727    2.0957972   -0.7352355 
H    -1.3549151    3.6118671   -0.1957800 
