85
Energy =
C     2.4999080    0.2130134   -1.0705465 
C     2.2671650    1.4728963   -0.4457548 
C     2.1682715    1.5722639    0.9667240 
H     1.9774829    2.3303729   -1.0652155 
Pd    0.6537474    0.1155071    0.1557125 
P    -1.1128365    0.2177568    1.6723357 
P    -0.5039740   -1.6177644   -0.8957418 
H     3.0814612   -0.5279465   -0.5015235 
H     2.6876963    0.8040198    1.5598038 
C     2.2694324   -0.6037920   -5.2947185 
C     2.9460650   -1.4779801   -4.4307552 
C     3.0300139   -1.1893164   -3.0621166 
C     2.4325040   -0.0260398   -2.5260071 
C     1.7477977    0.8424014   -3.4085282 
C     1.6756297    0.5600472   -4.7768717 
H     2.2057486   -0.8248326   -6.3648799 
H     3.4180739   -2.3838985   -4.8248832 
H     3.5698468   -1.8712868   -2.3952788 
H     1.2478104    1.7364740   -3.0210397 
H     1.1454735    1.2474320   -5.4440992 
C     1.0676524    5.0500263    3.2573359 
C     1.5866147    3.9082390    3.8858979 
C     1.9532409    2.7927085    3.1225282 
C     1.8013245    2.7884778    1.7168068 
C     1.2910017    3.9528100    1.0970402 
C     0.9302335    5.0690473    1.8589897 
H     0.7837887    5.9254516    3.8500931 
H     1.7153904    3.8895635    4.9731308 
H     2.3709409    1.9088728    3.6162247 
H     1.1672533    3.9887496    0.0096844 
H     0.5387542    5.9613922    1.3597108 
C    -0.7659886   -1.6917605   -2.7493104 
C     0.1349563   -3.3962178   -0.7505476 
C    -0.9750369    0.4557872    3.5250426 
C    -2.4395493    1.5555530    1.4471521 
C    -2.1955479   -1.6433709   -0.0979455 
C    -2.0715279   -1.3698257    1.4112027 
C    -0.8815695   -3.2038007   -3.0416410 
C     0.2059626   -3.9013917   -2.2146733 
C    -2.3807794    0.9658316    3.9074400 
C    -2.7501823    2.0525564    2.8878528 
C    -1.8823293   -0.7935761   -3.3064797 
C     1.4543001   -3.5658767    0.0195863 
C    -0.4361835   -0.7315872    4.3433123 
C    -2.0719972    2.7071345    0.4953055 
C    -1.9572477   -0.8219637   -4.8406732 
C     1.3572963   -3.2268776    1.5074262 
C     1.0920415   -0.8606955    4.3019720 
C    -1.8975989    2.3092614   -0.9716626 
H     0.2010967   -1.3384261   -3.1561044 
H    -0.6666857   -3.9418068   -0.2153844 
H    -0.2706044    1.3070520    3.6211312 
H    -3.3172499    1.0161048    1.0414989 
H    -2.7009596   -2.6051349   -0.2959912 
H    -2.7912650   -0.8493412   -0.5847768 
H    -1.5137190   -2.1836389    1.9087939 
H    -3.0649390   -1.3043051    1.8891014 
H    -1.8874667   -3.5699468   -2.7565650 
H    -0.7563292   -3.4043203   -4.1195835 
H     1.1967761   -3.6436228   -2.6338491 
H     0.1147422   -5.0011206   -2.2435378 
H    -3.1093339    0.1325468    3.8855843 
H    -2.3779332    1.3611236    4.9391375 
H    -2.1351496    2.9500849    3.0869211 
H    -3.8071265    2.3593719    2.9673284 
H    -2.8584648   -1.1026158   -2.8862415 
H    -1.7051997    0.2440125   -2.9714597 
H     1.7821821   -4.6153667   -0.1048635 
H     2.2318823   -2.9424109   -0.4613597 
H    -0.7588949   -0.5891751    5.3917085 
H    -0.9149142   -1.6731406    4.0143658 
H    -2.8741377    3.4654834    0.5775892 
H    -1.1522759    3.1938996    0.8668168 
H    -2.7179726   -0.1108745   -5.2051203 
H    -2.2292672   -1.8231748   -5.2165284 
H    -0.9858189   -0.5439932   -5.2857351 
H     1.0584159   -2.1692956    1.6417005 
H     0.6083498   -3.8586247    2.0186842 
H     2.3241012   -3.3656942    2.0196477 
H     1.5687599   -0.0141685    4.8259598 
H     1.4682015   -0.8662891    3.2639395 
H     1.4291517   -1.7910034    4.7888071 
H    -1.6679585    3.1887496   -1.5974548 
H    -2.8111534    1.8370660   -1.3758484 
H    -1.0613709    1.5881496   -1.0857298 
