85
Energy =
C     2.4774387    0.1254091   -1.1449391 
C     2.2127779    1.4175786   -0.6103382 
C     2.0632381    1.6118058    0.7870705 
H     1.9424028    2.2305696   -1.2947181 
Pd    0.5763305    0.0874984    0.0173835 
P    -1.1761617    0.1414974    1.5649732 
P    -0.5377823   -1.6814110   -1.0238119 
H     3.0180183   -0.5809827   -0.4968342 
H     2.5558491    0.8854468    1.4505423 
C     2.5137740   -0.9608131   -5.3137748 
C     3.0998547   -1.7941505   -4.3489774 
C     3.0972905   -1.4177667   -2.9995480 
C     2.5037177   -0.2045962   -2.5832396 
C     1.9236194    0.6280510   -3.5684369 
C     1.9319505    0.2551111   -4.9170221 
H     2.5158232   -1.2518451   -6.3689999 
H     3.5671476   -2.7378617   -4.6488289 
H     3.5660496   -2.0694774   -2.2535964 
H     1.4447914    1.5688099   -3.2781147 
H     1.4768363    0.9140290   -5.6637528 
C     0.8832379    5.2541021    2.7604704 
C     1.2301663    4.1134194    3.5013746 
C     1.6309555    2.9451547    2.8428749 
C     1.6800161    2.8829778    1.4305874 
C     1.3510632    4.0476414    0.7000755 
C     0.9573899    5.2176459    1.3583769 
H     0.5725384    6.1707851    3.2717168 
H     1.1981836    4.1379913    4.5956593 
H     1.9142609    2.0621042    3.4245892 
H     1.3979737    4.0454714   -0.3929764 
H     0.7080874    6.1092197    0.7737838 
C    -0.7749048   -1.8012733   -2.8868405 
C     0.1220505   -3.4514949   -0.8373032 
C    -0.9863336    0.2230199    3.4265332 
C    -2.5029051    1.4838441    1.5308569 
C    -2.2437771   -1.7087634   -0.2606822 
C    -2.1639183   -1.4237331    1.2479472 
C    -0.7904972   -3.3202129   -3.1636716 
C     0.2950597   -3.9570327   -2.2905095 
C    -2.4406281    0.4543786    3.8858598 
C    -3.0417022    1.5635656    3.0001162 
C    -1.9650269   -1.0318447   -3.4794679 
C     1.3869833   -3.6078659    0.0203386 
C    -0.2416951   -0.9301450    4.1221158 
C    -2.0100498    2.8600858    1.0385294 
C    -1.8895658    0.4853831   -3.2891536 
C     1.1740776   -3.3090434    1.5039246 
C     1.2858527   -0.8204409    4.0403993 
C    -1.6640838    2.9402577   -0.4478048 
H     0.1635631   -1.3807036   -3.2962447 
H    -0.7074678   -4.0086243   -0.3588017 
H    -0.4223755    1.1651620    3.5815193 
H    -3.2863082    1.1131813    0.8434426 
H    -2.7402039   -2.6744513   -0.4632139 
H    -2.8328459   -0.9223755   -0.7669815 
H    -1.6519327   -2.2497079    1.7740211 
H    -3.1744541   -1.3311910    1.6818093 
H    -1.7850172   -3.7373241   -2.9110509 
H    -0.6214134   -3.5135748   -4.2377862 
H     1.2893924   -3.6495100   -2.6636724 
H     0.2612080   -5.0602898   -2.3157635 
H    -3.0136092   -0.4880360    3.8051417 
H    -2.4637751    0.7432438    4.9520023 
H    -2.7395739    2.5422213    3.4134281 
H    -4.1440772    1.5398666    3.0109741 
H    -1.9980448   -1.2673229   -4.5600996 
H    -2.9095293   -1.4288352   -3.0604809 
H     1.7491750   -4.6460077   -0.1035125 
H     2.1810435   -2.9548602   -0.3882054 
H    -0.5458330   -0.9315889    5.1856188 
H    -0.5820377   -1.9024488    3.7186245 
H    -2.8153914    3.5860698    1.2620532 
H    -1.1428284    3.1746279    1.6487878 
H    -2.7699042    0.9880813   -3.7239284 
H    -0.9867605    0.8973956   -3.7709231 
H    -1.8397691    0.7535152   -2.2197635 
H     0.8336623   -2.2657959    1.6392280 
H     0.4119293   -3.9775117    1.9439327 
H     2.1059777   -3.4304706    2.0808879 
H     1.7728904   -1.7163189    4.4599881 
H     1.6462734    0.0548413    4.6088089 
H     1.6269376   -0.7086922    2.9959199 
H    -1.3461755    3.9603228   -0.7195535 
H    -2.5323668    2.6759930   -1.0769130 
H    -0.8361331    2.2490196   -0.7020504 
