75
Energy =
C    -0.2647898   -2.9646727    0.1136568 
C     1.0407798   -2.6264832    0.5364719 
C     1.2424098   -1.9020692    1.7533258 
H     1.8850382   -2.7699313   -0.1501513 
Pd   -0.0298664   -0.7079151    0.3873158 
P     0.0979521    1.4084910    1.3367703 
P    -1.2039343    0.3131830   -1.3424676 
H    -1.0554829   -2.9474784    0.8814643 
H     0.5399380   -2.1134952    2.5721573 
C    -1.4320809   -4.9956109   -3.4934791 
C    -2.3970758   -4.4991859   -2.6025924 
C    -1.9974944   -3.8566599   -1.4252423 
C    -0.6272056   -3.6820110   -1.1197919 
C     0.3318662   -4.2110181   -2.0138704 
C    -0.0680942   -4.8581457   -3.1878587 
H    -1.7408970   -5.5039427   -4.4124800 
H    -3.4627234   -4.6232931   -2.8215689 
H    -2.7529903   -3.4791810   -0.7262366 
H     1.3999280   -4.1265178   -1.7893509 
H     0.6884453   -5.2653078   -3.8664424 
C     4.9857544   -0.1698505    3.0003760 
C     4.0318709   -0.5674886    3.9494075 
C     2.8243936   -1.1462928    3.5354170 
C     2.5441116   -1.3359302    2.1636269 
C     3.5158035   -0.9292721    1.2183423 
C     4.7232537   -0.3577793    1.6326682 
H     5.9292217    0.2819573    3.3228762 
H     4.2312482   -0.4332638    5.0176853 
H     2.0887987   -1.4622258    4.2831001 
H     3.3110195   -1.0356787    0.1467423 
H     5.4620812   -0.0484153    0.8859529 
C    -0.9952106    1.5199038    2.8970900 
C    -0.1003075    0.3849944   -2.8991254 
C    -0.6682979    2.6086033    0.1641329 
C    -1.4468570    2.0872982   -0.9013400 
C    -2.3894098    0.9869273    2.5020761 
C    -0.3635090    0.6114231    3.9722920 
C    -1.1125872    2.9599646    3.4327351 
C     0.2489021   -1.0719854   -3.2646921 
C    -0.7962641    1.0821481   -4.0824985 
C     1.1848225    1.1482821   -2.5116391 
C     1.7471839    2.0937459    1.7725890 
C    -2.8469801   -0.3186102   -1.8758661 
C    -0.6088070    4.0030908    0.3601951 
C    -2.2386800    2.9619710   -1.6722756 
C    -1.3663357    4.8663167   -0.4429748 
C    -2.2079096    4.3430623   -1.4358430 
H    -2.3321713   -0.0565892    2.1406436 
H    -3.0543038    1.0078974    3.3841411 
H    -2.8531684    1.6049329    1.7131144 
H     0.6441721    0.9505962    4.2662407 
H    -0.2933828   -0.4318195    3.6253046 
H    -0.9998258    0.6266238    4.8753713 
H    -1.6401879    3.6219494    2.7271390 
H    -1.6993542    2.9408090    4.3692407 
H    -0.1293335    3.4006228    3.6726063 
H    -0.6434716   -1.6847006   -3.4791320 
H     0.8842666   -1.0788569   -4.1688027 
H     0.8088229   -1.5599463   -2.4502141 
H    -1.0236466    2.1390168   -3.8660309 
H    -1.7250197    0.5681621   -4.3843037 
H    -0.1152441    1.0651045   -4.9530575 
H     1.6887668    0.6728445   -1.6490295 
H     1.8860995    1.1355944   -3.3652704 
H     0.9772804    2.2021960   -2.2580585 
H     2.2442673    1.4094094    2.4791238 
H     1.6716104    3.0978903    2.2209158 
H     2.3521386    2.1433886    0.8532914 
H    -3.2957085    0.2971840   -2.6720250 
H    -3.5146828   -0.3282128   -0.9989482 
H    -2.7226758   -1.3515198   -2.2400222 
H     0.0202853    4.4237711    1.1504353 
H    -2.8760073    2.5716892   -2.4717514 
H    -1.3140690    5.9474849   -0.2798804 
H    -2.8264891    5.0128266   -2.0417215 
