75
Energy =
C    -0.1752063   -2.9702322   -0.0986382 
C     1.1232282   -2.6246334    0.3397606 
C     1.3128010   -1.9840953    1.6047093 
H     1.9658899   -2.6931762   -0.3602678 
Pd   -0.0037850   -0.7330083    0.3352559 
P     0.0650044    1.3113393    1.4363336 
P    -1.2189790    0.3742859   -1.3110306 
H    -0.9598143   -3.0311715    0.6731660 
H     0.6231287   -2.2752258    2.4098984 
C    -1.3139611   -4.7714458   -3.8344617 
C    -2.2852749   -4.3679210   -2.9043972 
C    -1.8943124   -3.7997636   -1.6866247 
C    -0.5270284   -3.6078320   -1.3780320 
C     0.4392671   -4.0438623   -2.3135123 
C     0.0480800   -4.6169085   -3.5282265 
H    -1.6158105   -5.2215765   -4.7855648 
H    -3.3487532   -4.5067030   -3.1251011 
H    -2.6543699   -3.4949353   -0.9577443 
H     1.5063235   -3.9448207   -2.0901271 
H     0.8101829   -4.9527827   -4.2388802 
C     5.0117932   -0.2339498    2.9550101 
C     4.7452461   -0.3305800    1.5786058 
C     3.5525380   -0.9071295    1.1300045 
C     2.6001799   -1.4101785    2.0482036 
C     2.8844096   -1.3114803    3.4287514 
C     4.0770069   -0.7277361    3.8775161 
H     5.9435789    0.2218678    3.3046795 
H     5.4690899    0.0541766    0.8525573 
H     3.3434682   -0.9423052    0.0545314 
H     2.1638708   -1.7024961    4.1553059 
H     4.2798705   -0.6648210    4.9517074 
C    -1.0244945    1.2733271    3.0026681 
C    -0.1291708    0.5888168   -2.8643149 
C    -0.7424051    2.5698844    0.3562495 
C    -1.5101329    2.1044104   -0.7423860 
C    -2.4005529    0.7202403    2.5733967 
C    -0.3560052    0.3145010    4.0097561 
C    -1.1909065    2.6669189    3.6388881 
C    -0.8544447    1.3443311   -3.9930990 
C     1.1344777    1.3630065   -2.4307128 
C     0.2623227   -0.8275117   -3.3324571 
C     1.6937045    2.0140481    1.9190321 
C    -2.8470534   -0.2652700   -1.8798414 
C    -0.7226395    3.9476412    0.6529251 
C    -2.3300530    3.0092006   -1.4463237 
C    -1.5078608    4.8443268   -0.0842755 
C    -2.3378630    4.3699589   -1.1108586 
H    -2.3081705   -0.2930425    2.1401141 
H    -3.0625849    0.6563857    3.4555573 
H    -2.8885123    1.3749440    1.8298785 
H     0.6387724    0.6699690    4.3276643 
H    -0.2466644   -0.6975381    3.5883866 
H    -0.9900500    0.2400634    4.9114651 
H    -1.7445394    3.3577405    2.9825391 
H    -1.7728346    2.5608263    4.5726126 
H    -0.2230535    3.1246353    3.9078673 
H    -1.1138382    2.3757052   -3.7023666 
H    -0.1786514    1.4099681   -4.8654317 
H    -1.7682787    0.8231168   -4.3262630 
H     1.6577803    0.8456218   -1.6046893 
H     0.8965269    2.3902267   -2.1046689 
H     1.8303411    1.4301992   -3.2862146 
H    -0.6121999   -1.4517401   -3.5841259 
H     0.8905259   -0.7512170   -4.2383404 
H     0.8434770   -1.3529219   -2.5570307 
H     2.2183578    1.2914460    2.5649635 
H     1.5881326    2.9751072    2.4484679 
H     2.2899515    2.1587775    1.0041343 
H    -3.3193768    0.3932906   -2.6265919 
H    -3.5074349   -0.3580482   -1.0022654 
H    -2.6958439   -1.2649741   -2.3188553 
H    -0.1030675    4.3279439    1.4706454 
H    -2.9593371    2.6593400   -2.2704328 
H    -1.4861799    5.9119338    0.1565389 
H    -2.9778332    5.0635115   -1.6655933 
