109
Energy =
C     2.7603968   -2.6271794    0.0716300 
C     3.1205759   -1.9981923   -1.1419930 
C     3.5616550   -0.6351111   -1.1379803 
H     2.9018265   -2.4975779   -2.0940541 
Pd    1.5192280   -0.7494890   -0.2986918 
P     1.0465534    1.5304376   -0.0851077 
P    -0.6224163   -1.5031818    0.2451921 
H     3.1370148   -2.1614361    0.9966417 
H     4.1321005   -0.2928751   -0.2634127 
C     1.2527380   -6.5924469    0.7294170 
C     1.5587986   -6.1791066   -0.5774454 
C     2.0412416   -4.8893421   -0.8168006 
C     2.2363609   -3.9859875    0.2530432 
C     1.9218872   -4.4162734    1.5642729 
C     1.4321057   -5.7043343    1.8008211 
H     0.8770065   -7.6047098    0.9104886 
H     1.4191885   -6.8680863   -1.4162176 
H     2.2798312   -4.5892775   -1.8412646 
H     2.0645737   -3.7267977    2.4034496 
H     1.1962415   -6.0183958    2.8227139 
C     4.0332870    1.8319821   -4.6348308 
C     4.7013627    2.1444770   -3.4423054 
C     4.5535283    1.3262918   -2.3156632 
C     3.7323215    0.1773954   -2.3576037 
C     3.0644173   -0.1260854   -3.5688274 
C     3.2153546    0.6903549   -4.6931795 
H     4.1470233    2.4722315   -5.5155936 
H     5.3406528    3.0315807   -3.3853601 
H     5.0733355    1.5801969   -1.3856515 
H     2.4038738   -0.9989952   -3.6252335 
H     2.6889312    0.4408721   -5.6205452 
O    -3.3441172    1.0829727    2.6005751 
O    -3.1663200    2.9859760    0.1643566 
O     0.3515220    2.5525013    4.9562313 
O    -4.1617867    0.0209050   -3.2381971 
N    -1.5072520    1.8238886    3.7867965 
N    -3.6839731    1.5065082   -1.5303931 
C    -1.3344448    1.3475953    1.4031013 
C    -2.0534904    0.9104525    0.1784514 
C     0.0238463    1.7478573    1.4399660 
C    -1.9023686   -0.3563982   -0.4336164 
C    -2.0451191    1.4369213    2.6291595 
C    -2.9943828    1.7863685   -0.4237334 
C     0.5988321    2.1702675    2.6468526 
C    -2.6306273   -0.6704384   -1.5895240 
C     2.5736791    2.5141440    0.1873846 
C     0.1191581    2.3577181   -1.4237530 
C    -0.9495021   -3.0998378   -0.5970079 
C    -1.0462650   -1.6870888    2.0137844 
C    -0.2180792    2.1731155    3.7967349 
C    -3.4967477    0.3156626   -2.1052376 
C     2.8724457    3.6737749   -0.5524420 
C    -0.4215356    3.6484756   -1.2424756 
C    -1.5129505   -4.2179646    0.0436279 
C    -2.3696102   -1.9440894    2.4284461 
C     3.5179009    2.0290032    1.1206626 
C    -0.0491668    1.6890962   -2.6516358 
C    -0.6022451   -3.1855346   -1.9649425 
C    -0.0293625   -1.5233883    2.9757886 
C     4.0844810    4.3494263   -0.3422569 
C    -1.1163776    4.2618968   -2.2920089 
C    -1.7641000   -5.3890282   -0.6864640 
C    -2.6597181   -2.0606072    3.7940341 
C     4.7209678    2.7124420    1.3344283 
C    -0.7575341    2.3041158   -3.6921517 
C    -0.8754774   -4.3496972   -2.6929378 
C    -0.3289438   -1.6248571    4.3400845 
C     5.0063259    3.8768959    0.6017694 
C    -1.2893508    3.5897478   -3.5129834 
C    -1.4644883   -5.4520234   -2.0545020 
C    -1.6431785   -1.8992161    4.7488485 
C    -4.0914781    1.2054829    3.8212913 
C    -4.1482436    3.8672329   -0.4043373 
C    -0.4782215    2.5619579    6.1308314 
C    -5.0453856    1.0242551   -3.7679944 
H     1.6330356    2.5073806    2.7299002 
H    -2.5617548   -1.6343711   -2.0955257 
H     2.1704575    4.0437797   -1.3048697 
H    -0.3154222    4.1592767   -0.2799504 
H    -1.7509865   -4.1807652    1.1106119 
H    -3.1704892   -2.0316145    1.6869194 
H     3.3100549    1.1074048    1.6778793 
H     0.3698011    0.6856629   -2.7808633 
H    -0.1265746   -2.3288381   -2.4588523 
H     0.9891001   -1.2876285    2.6468449 
H     4.3082946    5.2474882   -0.9271699 
H    -1.5326710    5.2650233   -2.1534296 
H    -2.1983098   -6.2565523   -0.1791338 
H    -3.6867192   -2.2641207    4.1145149 
H     5.4401549    2.3326157    2.0674079 
H    -0.8972036    1.7766561   -4.6411330 
H    -0.6214277   -4.3993707   -3.7568680 
H     0.4608065   -1.4799295    5.0843700 
H     5.9499197    4.4081364    0.7628832 
H    -1.8421765    4.0709910   -4.3266597 
H    -1.6748477   -6.3652611   -2.6205679 
H    -1.8781369   -1.9797910    5.8153655 
H    -4.0993798    2.2522887    4.1687998 
H    -3.6559448    0.5682739    4.6090361 
H    -5.1088622    0.8728865    3.5711056 
H    -5.1495230    3.4055556   -0.3714527 
H    -3.8977180    4.1051538   -1.4516249 
H    -4.1189470    4.7724007    0.2186959 
H    -0.8703553    1.5515306    6.3390837 
H     0.1778982    2.8985528    6.9457567 
H    -1.3275181    3.2548782    6.0052143 
H    -4.4870362    1.9438184   -4.0141769 
H    -5.4778660    0.5790603   -4.6750134 
H    -5.8379642    1.2720004   -3.0416186 
