109
Energy =
C     2.6440738   -2.6813394   -0.5794706 
C     3.0380206   -1.7951505   -1.6079620 
C     3.5356733   -0.4928170   -1.2775737 
H     2.8048310   -2.0412466   -2.6513950 
Pd    1.4861004   -0.7193162   -0.4815587 
P     1.1131526    1.4586780    0.2828633 
P    -0.6894480   -1.4886808   -0.1246297 
H     3.0337095   -2.4672648    0.4288178 
H     4.1152662   -0.3961030   -0.3490054 
C     0.9727395   -6.6237006   -0.8856393 
C     1.2994833   -5.9204363   -2.0565733 
C     1.8347786   -4.6314955   -1.9816361 
C     2.0630039   -4.0209044   -0.7271644 
C     1.7263008   -4.7409748    0.4439405 
C     1.1840799   -6.0274254    0.3667564 
H     0.5560114   -7.6340209   -0.9509600 
H     1.1347283   -6.3810117   -3.0355586 
H     2.0891222   -4.1037047   -2.9053795 
H     1.8939696   -4.2801658    1.4235413 
H     0.9324322   -6.5686550    1.2845191 
C     4.1315858    2.7241815   -4.0758922 
C     4.8060741    2.7097947   -2.8466968 
C     4.6174535    1.6502718   -1.9509540 
C     3.7480193    0.5821001   -2.2655744 
C     3.0742765    0.6096997   -3.5107137 
C     3.2659189    1.6667909   -4.4046795 
H     4.2774523    3.5530609   -4.7761247 
H     5.4825566    3.5285087   -2.5802114 
H     5.1427718    1.6487713   -0.9898938 
H     2.3771581   -0.1944680   -3.7732320 
H     2.7341446    1.6720838   -5.3620438 
O    -3.3126615    0.5711592    2.7958111 
O    -3.0319654    2.9956314    0.8908034 
O     0.4280969    1.2528703    5.4240051 
O    -4.1404586    0.9831036   -3.1191319 
N    -1.4531212    0.9178535    4.1193666 
N    -3.6056294    1.9916929   -1.1071502 
C    -1.2840364    1.0262206    1.6907354 
C    -2.0123794    0.9305347    0.3991520 
C     0.0903489    1.3440888    1.8189015 
C    -1.9131823   -0.1565875   -0.5012916 
C    -1.9992109    0.8481005    2.9044510 
C    -2.9102303    1.9662874    0.0304189 
C     0.6749444    1.4339744    3.0900966 
C    -2.6479452   -0.1505455   -1.6950576 
C     2.6804470    2.2767658    0.7811419 
C     0.2325893    2.6271800   -0.8107051 
C    -1.0799163   -2.8207455   -1.3240874 
C    -1.1337485   -2.0741225    1.5490536 
C    -0.1494566    1.1943327    4.2091836 
C    -3.4680172    0.9673003   -1.9527978 
C     3.0351564    3.5677065    0.3463519 
C    -0.2537267    3.8570069   -0.3184772 
C    -0.7294421   -2.5910492   -2.6744719 
C    -0.1184825   -2.1906923    2.5195948 
C     3.5957001    1.5366247    1.5636889 
C     0.0454023    2.2860824   -2.1641706 
C    -1.6917078   -4.0357353   -0.9666965 
C    -2.4699059   -2.3669098    1.8928577 
C     4.2744602    4.1166055    0.7102521 
C    -0.9133903    4.7375227   -1.1846483 
C    -1.0461180   -3.5352741   -3.6583270 
C    -0.4327553   -2.6050460    3.8199798 
C     4.8264146    2.0925868    1.9328281 
C    -0.6277286    3.1665813   -3.0210885 
C    -1.9865759   -4.9870950   -1.9543143 
C    -2.7754935   -2.7958319    3.1909805 
C     5.1681433    3.3867590    1.5057550 
C    -1.1054537    4.3915658   -2.5321936 
C    -1.6827644   -4.7333540   -3.2991486 
C    -1.7605867   -2.9129660    4.1539757 
C    -4.0626303    0.4285939    4.0128740 
C    -3.9710924    4.0302689    0.5563358 
C    -0.4092718    1.0141787    6.5685788 
C    -4.9776947    2.1216496   -3.3854758 
H     1.7228307    1.6928650    3.2486649 
H    -2.6183677   -0.9662034   -2.4187504 
H     2.3553119    4.1417104   -0.2895445 
H    -0.1336445    4.1124873    0.7394026 
H    -0.2160208   -1.6615529   -2.9513561 
H     0.9117243   -1.9263391    2.2549770 
H     3.3432768    0.5170488    1.8798663 
H     0.4223465    1.3274746   -2.5356078 
H    -1.9334872   -4.2448915    0.0793619 
H    -3.2677919   -2.2404092    1.1536721 
H     4.5417525    5.1196601    0.3621979 
H    -1.2874662    5.6936220   -0.8042251 
H    -0.7886370   -3.3397127   -4.7044496 
H     0.3565671   -2.6774448    4.5751755 
H     5.5229253    1.5135232    2.5479068 
H    -0.7821074    2.8933614   -4.0698191 
H    -2.4582398   -5.9323542   -1.6670827 
H    -3.8127033   -3.0261562    3.4556683 
H     6.1334065    3.8196589    1.7875575 
H    -1.6307786    5.0801524   -3.2023782 
H    -1.9271139   -5.4755923   -4.0660499 
H    -2.0072031   -3.2377587    5.1702668 
H    -4.0254687    1.3592919    4.6037239 
H    -3.6622751   -0.3995857    4.6211824 
H    -5.0922228    0.2136092    3.6935396 
H    -4.9921102    3.6190572    0.4837808 
H    -3.7054789    4.5011873   -0.4047866 
H    -3.9043617    4.7572960    1.3780986 
H    -0.8491970    0.0029019    6.5255668 
H     0.2554182    1.1109427    7.4384916 
H    -1.2247627    1.7555811    6.6190776 
H    -4.3794200    3.0488064   -3.4043415 
H    -5.4240973    1.9283702   -4.3710201 
H    -5.7629682    2.2194588   -2.6166227 
