109
Energy =
C     2.6324337   -2.6148089   -0.6145529 
C     2.9576959   -1.8291721   -1.7587967 
C     3.4988930   -0.5300524   -1.6314389 
H     2.6336680   -2.1690569   -2.7508583 
Pd    1.4931140   -0.6922711   -0.5465277 
P     0.4829247    1.3936428   -0.9163688 
P     0.0234048   -1.3121963    1.1733098 
H     3.2455604   -2.4736440    0.2865589 
H     3.9400511   -0.2560259   -0.6593452 
C     0.5534371   -6.3822066   -0.7633399 
C     0.3765353   -5.4480263   -1.7984148 
C     1.0485754   -4.2233645   -1.7631817 
C     1.9144299   -3.9021071   -0.6907628 
C     2.0825878   -4.8512237    0.3411913 
C     1.4103957   -6.0790814    0.3038786 
H     0.0241568   -7.3401870   -0.7914041 
H    -0.2943155   -5.6757732   -2.6333910 
H     0.8851529   -3.4993638   -2.5695230 
H     2.7449030   -4.6180837    1.1817667 
H     1.5552541   -6.7991103    1.1158817 
C     4.6224346    2.0605448   -4.8673873 
C     4.4541320    2.5706307   -3.5701381 
C     4.0923022    1.7180293   -2.5237514 
C     3.8738328    0.3403307   -2.7557950 
C     4.0496052   -0.1603218   -4.0664485 
C     4.4261560    0.6921778   -5.1095652 
H     4.9122930    2.7272317   -5.6859042 
H     4.6018881    3.6376335   -3.3763759 
H     3.9510380    2.1207168   -1.5140282 
H     3.9229273   -1.2291707   -4.2666524 
H     4.5738710    0.2863765   -6.1157128 
O    -4.0337624    0.5550445    1.4858654 
O    -2.4941467    3.1138652    2.0425559 
O    -4.0977881    0.4581918   -3.1335682 
O     0.3489512    1.6900128    5.3962083 
N    -4.0820047    0.5281626   -0.8211884 
N    -1.0921483    2.4020342    3.7319668 
C    -2.0021113    0.9720401    0.3694385 
C    -1.3435171    1.0884837    1.6954551 
C    -1.3481367    1.1375398   -0.8753500 
C    -0.4523143    0.1274212    2.2294163 
C    -3.3935190    0.6904542    0.3088676 
C    -1.6337042    2.1992658    2.5304322 
C    -2.0611432    0.9763698   -2.0719643 
C     0.1181382    0.3215311    3.4951408 
C     0.8197515    2.7180730    0.3014185 
C     0.8038031    2.1114729   -2.5754431 
C    -1.5668786   -2.0446029    0.6450758 
C     0.8097726   -2.4917058    2.3422479 
C    -3.4296442    0.6507692   -1.9805443 
C    -0.2295678    1.4940177    4.1965684 
C     0.0238151    3.8823142    0.3587602 
C     0.8906436    1.2161762   -3.6633104 
C    -2.6042643   -2.2755445    1.5733913 
C     2.1140009   -2.1911239    2.7956999 
C     1.8996208    2.5654232    1.1934174 
C     0.9655287    3.4919129   -2.8037976 
C    -1.7563252   -2.3628501   -0.7134969 
C     0.1911057   -3.6818940    2.7663752 
C     0.3240654    4.8855646    1.2880788 
C     1.0944569    1.6972613   -4.9615538 
C    -3.8093467   -2.8421593    1.1400198 
C     2.7725513   -3.0506027    3.6834900 
C     2.1845447    3.5662793    2.1323882 
C     1.1778009    3.9675803   -4.1049526 
C    -2.9700338   -2.9146781   -1.1423510 
C     0.8579038   -4.5437077    3.6508425 
C     1.3996263    4.7278058    2.1766763 
C     1.2355104    3.0751129   -5.1846893 
C    -3.9941922   -3.1590353   -0.2155136 
C     2.1425556   -4.2300016    4.1147992 
C    -5.4490170    0.3117827    1.4457592 
C    -2.8470003    4.2132519    2.8974046 
C    -5.4945778    0.1281684   -3.0428928 
C    -0.0025455    2.8851516    6.1147035 
H    -1.6066899    1.1004784   -3.0564735 
H     0.7993000   -0.3925606    3.9598549 
H    -0.8448792    3.9871522   -0.2989867 
H     0.8070196    0.1369604   -3.4854226 
H    -2.4765459   -1.9930634    2.6235234 
H     2.6140732   -1.2775446    2.4504722 
H     2.5009071    1.6490709    1.1609487 
H     0.9368055    4.1987846   -1.9701042 
H    -0.9553964   -2.1566151   -1.4307540 
H    -0.8016845   -3.9508429    2.3953853 
H    -0.2926692    5.7893293    1.3273196 
H     1.1626542    0.9939874   -5.7971248 
H    -4.6122440   -3.0253916    1.8615820 
H     3.7791678   -2.8029496    4.0357692 
H     3.0150375    3.4353728    2.8335341 
H     1.3024620    5.0423620   -4.2728663 
H    -3.1177546   -3.1459536   -2.2021178 
H     0.3694084   -5.4701405    3.9698389 
H     1.6223412    5.5105005    2.9093950 
H     1.4038257    3.4507014   -6.1991427 
H    -4.9426394   -3.5923661   -0.5499906 
H     2.6582335   -4.9055871    4.8049111 
H    -5.7583252    0.2350669    2.4977965 
H    -5.6672909   -0.6243432    0.9052334 
H    -5.9722946    1.1447763    0.9467012 
H    -3.3339010    3.8483707    3.8175509 
H    -3.5439661    4.8254564    2.3076998 
H    -1.9521959    4.7956254    3.1738271 
H    -5.8342987    0.0202719   -4.0825494 
H    -5.6367191   -0.8146776   -2.4871737 
H    -6.0548717    0.9302725   -2.5330624 
H    -1.0850129    2.9113029    6.3265660 
H     0.5732909    2.8404452    7.0497643 
H     0.2690568    3.7830521    5.5333257 
