109
Energy =
C     2.5242794   -2.7356146   -0.5454733 
C     2.8801602   -1.9943937   -1.7100595 
C     3.4742932   -0.7157432   -1.6161552 
H     2.5412717   -2.3465209   -2.6928514 
Pd    1.4651618   -0.7672765   -0.5267758 
P     0.5410646    1.3488869   -0.9504218 
P    -0.0310121   -1.2832534    1.2046714 
H     3.1441404   -2.5963442    0.3513386 
H     3.9276826   -0.4354872   -0.6514417 
C     0.2954979   -6.4190089   -0.5981076 
C     0.1495398   -5.5016788   -1.6528898 
C     0.8701642   -4.3044362   -1.6486411 
C     1.7545824   -3.9943583   -0.5881948 
C     1.8908625   -4.9260709    0.4640361 
C     1.1701318   -6.1266337    0.4577076 
H    -0.2713806   -7.3556505   -0.6020552 
H    -0.5351224   -5.7207374   -2.4789254 
H     0.7309125   -3.5924297   -2.4700460 
H     2.5670591   -4.7010267    1.2957083 
H     1.2906543   -6.8334497    1.2851519 
C     4.7011113    1.7425446   -4.9172505 
C     4.5539189    2.2924757   -3.6338006 
C     4.1580406    1.4827229   -2.5659498 
C     3.8837658    0.1095139   -2.7622970 
C     4.0390339   -0.4317283   -4.0593269 
C     4.4495282    0.3774460   -5.1239661 
H     5.0174981    2.3755060   -5.7525271 
H     4.7449204    3.3572681   -3.4676066 
H     4.0339512    1.9167893   -1.5670660 
H     3.8694532   -1.4995016   -4.2317644 
H     4.5806258   -0.0601163   -6.1190433 
O    -4.0044507    0.7626530    1.4716347 
O    -2.3583602    3.2651030    1.9658106 
O    -4.0786255    0.5606655   -3.1442641 
O     0.4211621    1.8022843    5.3558026 
N    -4.0570809    0.6846299   -0.8341864 
N    -0.9877544    2.5351364    3.6731785 
C    -1.9582595    1.0652653    0.3451616 
C    -1.2943868    1.1852248    1.6682447 
C    -1.2991510    1.1724655   -0.9032359 
C    -0.4446664    0.2002779    2.2257591 
C    -3.3606580    0.8430432    0.2915620 
C    -1.5372345    2.3269189    2.4762149 
C    -2.0199700    1.0141600   -2.0955547 
C     0.1333054    0.4001534    3.4872190 
C     0.9338490    2.6889144    0.2330397 
C     0.8899938    2.0094635   -2.6274642 
C    -1.6514136   -1.9579550    0.6911199 
C     0.7023612   -2.4687203    2.4016956 
C    -3.4013223    0.7511005   -1.9962184 
C    -0.1645960    1.6026119    4.1602661 
C     0.1858178    3.8855376    0.2618059 
C     0.9391246    1.0833473   -3.6916020 
C    -2.6976360   -2.1237942    1.6234398 
C     0.0329487   -3.6222669    2.8493468 
C     2.0079073    2.5147271    1.1281396 
C     1.1072658    3.3757929   -2.8916912 
C    -1.8548896   -2.2968172   -0.6604359 
C     2.0171830   -2.2140334    2.8526236 
C     0.5273533    4.8982431    1.1663223 
C     1.1607511    1.5217396   -5.0019587 
C    -3.9262182   -2.6469089    1.2015787 
C     0.6604072   -4.4920172    3.7545320 
C     2.3341844    3.5259699    2.0421789 
C     1.3369940    3.8084102   -4.2048600 
C    -3.0914955   -2.8046080   -1.0781433 
C     2.6364881   -3.0810285    3.7611105 
C     1.5967163    4.7189319    2.0582900 
C     1.3574082    2.8864584   -5.2609310 
C    -4.1250398   -2.9844648   -0.1469554 
C     1.9559572   -4.2228481    4.2160625 
C    -5.4288642    0.5795338    1.4379272 
C    -2.6642103    4.3986787    2.7936643 
C    -5.4881980    0.2933867   -3.0454701 
C     0.1202893    3.0278372    6.0453846 
H    -1.5616833    1.0948522   -3.0827885 
H     0.7834012   -0.3309330    3.9697351 
H    -0.6784966    4.0093102   -0.3984019 
H     0.8120578    0.0134505   -3.4854568 
H    -2.5576305   -1.8245048    2.6673450 
H    -0.9693026   -3.8571934    2.4807402 
H     2.5715228    1.5742469    1.1181007 
H     1.1083568    4.1045938   -2.0765588 
H    -1.0461985   -2.1404057   -1.3815331 
H     2.5566443   -1.3304715    2.4890922 
H    -0.0524784    5.8267680    1.1836817 
H     1.1990617    0.7947943   -5.8189782 
H    -4.7361116   -2.7795288    1.9263935 
H     0.1322845   -5.3897914    4.0918014 
H     3.1597404    3.3789954    2.7459725 
H     1.5045779    4.8725387   -4.4008545 
H    -3.2494731   -3.0517939   -2.1328248 
H     3.6520472   -2.8688432    4.1108704 
H     1.8517578    5.5096770    2.7715672 
H     1.5400352    3.2283008   -6.2847933 
H    -5.0914869   -3.3833330   -0.4726758 
H     2.4406691   -4.9041927    4.9227579 
H    -5.7395258    0.5397651    2.4916258 
H    -5.6880218   -0.3582387    0.9187246 
H    -5.9167581    1.4228248    0.9206522 
H    -3.3348078    5.0254452    2.1888619 
H    -1.7454993    4.9492140    3.0566223 
H    -3.1659005    4.0770941    3.7219680 
H    -5.8337352    0.1763315   -4.0822156 
H    -5.6700978   -0.6294369   -2.4681188 
H    -6.0127416    1.1303828   -2.5540366 
H    -0.9600912    3.1044194    6.2557121 
H     0.6938566    2.9812460    6.9817516 
H     0.4292501    3.8995199    5.4431391 
