109
Energy =
C     2.5512949   -2.6589177   -0.7628987 
C     3.0857590   -1.7003880   -1.6732886 
C     3.6693762   -0.4967561   -1.2184133 
H     2.8958295   -1.8190942   -2.7478542 
Pd    1.5186045   -0.6995143   -0.4689272 
P     0.6827570    1.4917077   -0.5572973 
P    -0.2140605   -1.5090998    0.8879713 
H     3.0306737   -2.7431106    0.2223861 
H     3.9732809   -0.4466657   -0.1602098 
C     0.3048743   -6.1393316   -1.9373389 
C     0.3387856   -5.0153073   -2.7804337 
C     1.0680602   -3.8815673   -2.4124236 
C     1.7815218   -3.8435332   -1.1906844 
C     1.7389889   -4.9810114   -0.3549567 
C     1.0096676   -6.1175035   -0.7257124 
H    -0.2691984   -7.0256793   -2.2262381 
H    -0.2126396   -5.0231385   -3.7264610 
H     1.0684955   -3.0072707   -3.0731774 
H     2.2813505   -4.9681358    0.5965201 
H     0.9901377   -6.9873479   -0.0610491 
C     5.3857226    2.5622721   -3.6965684 
C     5.1684644    1.2807120   -4.2255846 
C     4.6012553    0.2784435   -3.4315429 
C     4.2509901    0.5379887   -2.0864628 
C     4.4928042    1.8287280   -1.5621114 
C     5.0458471    2.8327539   -2.3613788 
H     5.8251122    3.3469402   -4.3208227 
H     5.4487319    1.0596371   -5.2606706 
H     4.4596976   -0.7226822   -3.8515276 
H     4.2182318    2.0457348   -0.5233106 
H     5.2092855    3.8315443   -1.9448077 
O    -4.1697371    0.5898382    1.0285164 
O    -2.5901207    2.8647731    2.2690715 
O    -3.5785500    1.3636460   -3.4886391 
O    -0.3300483    0.6235743    5.6194866 
N    -3.8890867    0.9986873   -1.2252203 
N    -1.4798871    1.7442243    3.9535831 
C    -1.9791691    1.0398098    0.2884243 
C    -1.5104137    0.8547758    1.6855064 
C    -1.1461457    1.3795536   -0.8049157 
C    -0.7560178   -0.2559719    2.1327859 
C    -3.3611335    0.8896654   -0.0058414 
C    -1.8562834    1.8109526    2.6760981 
C    -1.6884112    1.5029077   -2.0920227 
C    -0.3609967   -0.3456158    3.4747992 
C     0.9102625    2.5429387    0.9238485 
C     1.2745848    2.4714695   -1.9930136 
C    -1.7509131   -1.9996156    0.0266218 
C     0.3307019   -2.9455495    1.8957516 
C    -3.0721281    1.2808943   -2.2437859 
C    -0.7415189    0.7003657    4.3400393 
C     1.8446000    2.1501158    1.9026660 
C     1.5288896    3.8555811   -1.9343171 
C    -1.7620609   -2.0475785   -1.3806644 
C    -0.4065541   -4.1398951    1.9925078 
C     0.1728292    3.7338250    1.0982465 
C     1.4786642    1.7822188   -3.2077675 
C    -2.9214283   -2.3102554    0.7509854 
C     1.5704409   -2.8424825    2.5662070 
C     2.0440284    2.9401396    3.0433041 
C     1.9500070    4.5407033   -3.0821659 
C    -2.9317544   -2.4088389   -2.0610735 
C     0.0774309   -5.2033415    2.7699654 
C     0.3885885    4.5266187    2.2319828 
C     1.8922360    2.4724670   -4.3527826 
C    -4.0827166   -2.6858249    0.0644173 
C     2.0459945   -3.9035906    3.3463104 
C     1.3194462    4.1301947    3.2055414 
C     2.1261563    3.8544041   -4.2920244 
C    -4.0901009   -2.7323732   -1.3390977 
C     1.2967699   -5.0875459    3.4510547 
C    -5.5761800    0.4775075    0.7583988 
C    -3.0014418    3.8107951    3.2690928 
C    -4.9902694    1.1393130   -3.6461940 
C    -0.7164904    1.6884224    6.5054359 
H    -1.0913031    1.7696666   -2.9657718 
H     0.2075596   -1.1856770    3.8760886 
H     2.3977452    1.2119684    1.7751560 
H     1.4103856    4.4015690   -0.9944624 
H    -0.8561759   -1.7819629   -1.9349036 
H    -1.3484245   -4.2528651    1.4487378 
H    -0.5882408    4.0210140    0.3657857 
H     1.3203338    0.6974599   -3.2485858 
H    -2.9286014   -2.2366698    1.8433847 
H     2.1645899   -1.9244976    2.4755233 
H     2.7601506    2.6225047    3.8079545 
H     2.1449292    5.6167535   -3.0273255 
H    -2.9396890   -2.4296473   -3.1555668 
H    -0.5018719   -6.1301691    2.8338567 
H    -0.1819888    5.4519176    2.3621027 
H     2.0504690    1.9274320   -5.2883472 
H    -4.9894127   -2.9306824    0.6272223 
H     3.0031882   -3.8090629    3.8693214 
H     1.4757613    4.7484077    4.0957267 
H     2.4586495    4.3929953   -5.1852731 
H    -5.0044246   -3.0163309   -1.8707105 
H     1.6695658   -5.9197608    4.0568828 
H    -5.7679099   -0.3195396    0.0208063 
H    -5.9741500    1.4298457    0.3693155 
H    -6.0369756    0.2317978    1.7256921 
H    -3.6309199    3.3207665    4.0309957 
H    -3.5759267    4.5741549    2.7254411 
H    -2.1250318    4.2602634    3.7652715 
H    -5.5716579    1.8761873   -3.0663320 
H    -5.1831696    1.2551602   -4.7219910 
H    -5.2633991    0.1245945   -3.3089946 
H    -0.3185588    2.6544956    6.1500091 
H    -1.8151696    1.7598097    6.5769127 
H    -0.2821007    1.4257907    7.4802291 
