109
Energy =
C     2.9047910   -2.4271802   -0.8991888 
C     2.7566202   -1.6342447   -2.0593587 
C     3.2180630   -0.2828299   -2.1063921 
H     2.1486722   -2.0156170   -2.8900041 
Pd    1.7169303   -0.5213508   -0.4722184 
P     0.9417343    1.6682530   -0.2323591 
P    -0.0029858   -1.4561209    0.8476632 
H     3.6896765   -2.1313066   -0.1852140 
H     4.1128942   -0.0273803   -1.5201335 
C     1.5778113   -6.4839541   -0.3924487 
C     0.9629879   -5.6716371   -1.3598773 
C     1.3768111   -4.3482661   -1.5349371 
C     2.4138261   -3.8052849   -0.7409445 
C     3.0119044   -4.6299827    0.2384850 
C     2.6034475   -5.9576207    0.4061100 
H     1.2540058   -7.5213874   -0.2598134 
H     0.1561078   -6.0728216   -1.9818482 
H     0.8801622   -3.7316596   -2.2890776 
H     3.8089750   -4.2223900    0.8690532 
H     3.0833645   -6.5805466    1.1673300 
C     2.3154456    2.3759710   -5.3728291 
C     3.5061242    2.5204728   -4.6460793 
C     3.7994131    1.6466928   -3.5921893 
C     2.9088597    0.6089299   -3.2419855 
C     1.7146259    0.4725672   -3.9888830 
C     1.4202252    1.3453127   -5.0412544 
H     2.0822820    3.0651091   -6.1908788 
H     4.2076518    3.3229463   -4.8948936 
H     4.7300302    1.7680245   -3.0286589 
H     0.9878371   -0.3017834   -3.7195040 
H     0.4779417    1.2337687   -5.5880694 
O    -4.0455839    0.3962858    0.3246470 
O    -2.8080416    2.7246980    1.9971717 
O    -2.5706450    1.2510979   -3.9729661 
O    -1.2160627    0.2775932    5.5795779 
N    -3.3347256    0.8741949   -1.8185650 
N    -2.0453269    1.4930163    3.7950343 
C    -1.7918923    1.0297424    0.0645219 
C    -1.5932395    0.7694387    1.5141964 
C    -0.7870472    1.4794025   -0.8249410 
C    -0.8860799   -0.3444624    2.0293148 
C    -3.0668041    0.7806003   -0.5152420 
C    -2.1571714    1.6474752    2.4749306 
C    -1.0494063    1.5591151   -2.2033390 
C    -0.7690293   -0.5264229    3.4134365 
C     0.8909992    2.3997768    1.4551535 
C     1.7541768    3.0428062   -1.1418596 
C    -1.3566222   -2.0381885   -0.2485639 
C     0.5439643   -2.8677579    1.8823718 
C    -2.3428667    1.2218432   -2.6435499 
C    -1.3648552    0.4384999    4.2516821 
C     1.5309431    1.7574217    2.5304107 
C     3.1323419    3.1981210   -0.8803965 
C    -2.5766568   -2.4961986    0.2917948 
C     1.6834546   -2.6602310    2.6906344 
C     0.2859121    3.6594829    1.6489398 
C     1.0897942    3.9962970   -1.9359791 
C    -1.1947096   -1.9784035   -1.6465398 
C    -0.1067376   -4.1142685    1.9113454 
C     1.5461207    2.3556779    3.7987377 
C     3.8344258    4.2899813   -1.4018612 
C    -3.6001949   -2.9253538   -0.5632490 
C     2.1309075   -3.6665637    3.5552115 
C     0.3043066    4.2514898    2.9164551 
C     1.8045233    5.0770050   -2.4749013 
C    -2.2264384   -2.3933815   -2.4975335 
C     0.3565690   -5.1247223    2.7666997 
C     0.9302443    3.5999467    3.9924829 
C     3.1721417    5.2285470   -2.2081558 
C    -3.4269881   -2.8760925   -1.9557542 
C     1.4620263   -4.8999171    3.5988161 
C    -5.3498903    0.1708344   -0.2346155 
C    -3.3936361    3.6230144    2.9540001 
C    -3.8918604    0.9057541   -4.4254694 
C    -1.8096892    1.2672516    6.4381631 
H    -0.2904713    1.8409401   -2.9337483 
H    -0.2348318   -1.3659336    3.8610661 
H     2.0044657    0.7816909    2.3728651 
H     3.6524228    2.4619216   -0.2553374 
H    -2.7314176   -2.4975870    1.3757697 
H     2.2176325   -1.7034736    2.6429349 
H    -0.2045217    4.1687685    0.8131077 
H     0.0162434    3.9131411   -2.1257142 
H    -0.2637580   -1.5728064   -2.0584527 
H    -0.9634579   -4.3064947    1.2595910 
H     2.0322650    1.8443464    4.6356847 
H     4.9019721    4.4035133   -1.1866275 
H    -4.5433654   -3.2859058   -0.1398209 
H     3.0059554   -3.4908185    4.1894311 
H    -0.1684385    5.2277793    3.0655933 
H     1.2816165    5.8100605   -3.0978535 
H    -2.0974363   -2.3254822   -3.5827464 
H    -0.1502708   -6.0949878    2.7768731 
H     0.9417880    4.0675462    4.9825822 
H     3.7215213    6.0790308   -2.6248218 
H    -4.2348589   -3.2028694   -2.6188657 
H     1.8129067   -5.6901255    4.2705252 
H    -5.9793362   -0.1301035    0.6147140 
H    -5.3132828   -0.6267280   -0.9951967 
H    -5.7383617    1.0931552   -0.6982497 
H    -2.6183092    4.0431427    3.6166085 
H    -4.1455617    3.1006548    3.5691379 
H    -3.8654411    4.4149940    2.3553704 
H    -4.6430474    1.5948729   -4.0038581 
H    -3.8558618    0.9964358   -5.5202415 
H    -4.1482070   -0.1258120   -4.1286930 
H    -1.3847740    2.2648401    6.2334587 
H    -2.9025012    1.3079554    6.2922521 
H    -1.5681634    0.9452086    7.4608130 
