109
Energy =
C     2.8621116   -2.4683225   -0.9273107 
C     2.7044607   -1.6823457   -2.0909570 
C     3.1809487   -0.3368840   -2.1558044 
H     2.0785472   -2.0626098   -2.9086722 
Pd    1.7037235   -0.5451863   -0.4960217 
P     0.9575961    1.6550863   -0.2606387 
P    -0.0050999   -1.4497026    0.8589177 
H     3.6618126   -2.1765101   -0.2282865 
H     4.0881570   -0.0878038   -1.5860211 
C     1.4943053   -6.5045295   -0.3673742 
C     0.8743480   -5.6924258   -1.3316982 
C     1.3015565   -4.3757254   -1.5240388 
C     2.3573032   -3.8391773   -0.7505887 
C     2.9606689   -4.6634267    0.2259844 
C     2.5386594   -5.9845299    0.4108187 
H     1.1600858   -7.5368564   -0.2213792 
H     0.0528828   -6.0885185   -1.9376337 
H     0.8009505   -3.7592249   -2.2756661 
H     3.7725791   -4.2607613    0.8405836 
H     3.0226480   -6.6071677    1.1696884 
C     2.2560988    2.3093392   -5.4262300 
C     3.4597503    2.4453991   -4.7195041 
C     3.7600540    1.5755729   -3.6643184 
C     2.8637410    0.5502433   -3.2928189 
C     1.6563391    0.4221412   -4.0197757 
C     1.3550048    1.2908996   -5.0734827 
H     2.0174344    2.9956757   -6.2450482 
H     4.1661655    3.2381549   -4.9850780 
H     4.7007737    1.6903735   -3.1164151 
H     0.9253521   -0.3420881   -3.7334811 
H     0.4030662    1.1860730   -5.6046801 
O    -4.0343083    0.4447179    0.3857101 
O    -2.7454168    2.7707482    2.0198248 
O    -2.6193906    1.2520323   -3.9411604 
O    -1.1215154    0.3351547    5.5957630 
N    -3.3527728    0.8990866   -1.7720772 
N    -1.9669926    1.5451018    3.8150903 
C    -1.7780677    1.0504197    0.0848192 
C    -1.5591797    0.7989653    1.5331457 
C    -0.7825292    1.4816133   -0.8240726 
C    -0.8558825   -0.3185168    2.0457976 
C    -3.0649017    0.8117210   -0.4725751 
C    -2.0983246    1.6904247    2.4957516 
C    -1.0662047    1.5544865   -2.1985953 
C    -0.7182606   -0.4907138    3.4292674 
C     0.9417712    2.4003671    1.4215623 
C     1.7708748    3.0133862   -1.1935748 
C    -1.3831659   -2.0245070   -0.2104523 
C     0.5420673   -2.8594842    1.8960096 
C    -2.3704635    1.2293278   -2.6154234 
C    -1.2902044    0.4871107    4.2691863 
C     1.5928744    1.7602119    2.4914077 
C     3.1546467    3.1550706   -0.9549805 
C    -2.5989061   -2.4653387    0.3534062 
C     1.6963552   -2.6587318    2.6847519 
C     0.3524660    3.6675992    1.6149177 
C     1.1046576    3.9684608   -1.9842523 
C    -1.2440226   -1.9763135   -1.6113286 
C    -0.1221287   -4.0982216    1.9449644 
C     1.6348552    2.3684679    3.7543807 
C     3.8603487    4.2355488   -1.4949593 
C    -3.6409757   -2.8898002   -0.4813537 
C     2.1461021   -3.6635245    3.5499455 
C     0.3974242    4.2694485    2.8771062 
C     1.8226986    5.0372731   -2.5421501 
C    -2.2942118   -2.3861221   -2.4420161 
C     0.3431679   -5.1073186    2.8008390 
C     1.0345390    3.6203256    3.9480265 
C     3.1958344    5.1757271   -2.2975385 
C    -3.4905059   -2.8523500   -1.8768593 
C     1.4642010   -4.8888585    3.6135799 
C    -5.3497974    0.2297230   -0.1510480 
C    -3.3069390    3.6822685    2.9786179 
C    -3.9515907    0.9188033   -4.3699171 
C    -1.6911620    1.3375867    6.4557933 
H    -0.3160259    1.8224319   -2.9431677 
H    -0.1859271   -1.3323849    3.8750389 
H     2.0539889    0.7785160    2.3341479 
H     3.6763549    2.4174252   -0.3330187 
H    -2.7356700   -2.4572574    1.4397887 
H     2.2402899   -1.7083884    2.6214655 
H    -0.1466649    4.1750417    0.7831110 
H     0.0274241    3.8958411   -2.1566870 
H    -0.3159597   -1.5834307   -2.0416303 
H    -0.9911162   -4.2856609    1.3082478 
H     2.1296127    1.8590040    4.5874096 
H     4.9322500    4.3389427   -1.2969307 
H    -4.5807300   -3.2371676   -0.0396872 
H     3.0329649   -3.4929174    4.1689717 
H    -0.0632145    5.2515533    3.0259868 
H     1.2982146    5.7715851   -3.1622959 
H    -2.1827235   -2.3270560   -3.5296874 
H    -0.1744076   -6.0716141    2.8265789 
H     1.0670376    4.0957289    4.9339363 
H     3.7478521    6.0172938   -2.7285825 
H    -4.3126841   -3.1753042   -2.5240674 
H     1.8169119   -5.6779938    4.2855956 
H    -5.9688754   -0.0579665    0.7104034 
H    -5.3341150   -0.5737374   -0.9061277 
H    -5.7354437    1.1529067   -0.6153310 
H    -2.5172185    4.0994256    3.6259184 
H    -4.0545116    3.1723457    3.6093145 
H    -3.7799210    4.4744759    2.3812123 
H    -4.6880072    1.6193022   -3.9410598 
H    -3.9322659    1.0016744   -5.4657325 
H    -4.2148012   -0.1077402   -4.0619104 
H    -1.2597255    2.3291771    6.2361156 
H    -2.7857566    1.3881346    6.3272979 
H    -1.4362248    1.0212738    7.4769762 
