109
Energy =
C     2.9691607   -0.5125238   -2.3331846 
C     3.0637936   -1.7336616   -1.6273679 
C     2.0162534   -2.7053262   -1.7330038 
H     3.8506910   -1.8608539   -0.8734295 
Pd    1.1874432   -0.8140014   -0.9429468 
P    -0.9875393   -1.5101695   -0.4422886 
P     1.0095212    1.2980481    0.0350155 
H     2.2663396   -0.4884666   -3.1815272 
H     1.4932584   -2.7801647   -2.6964901 
C     5.6577164    2.8344452   -2.3309202 
C     5.9627304    1.7043263   -1.5549521 
C     5.0976945    0.6067431   -1.5331423 
C     3.9084965    0.6146074   -2.2975943 
C     3.6139708    1.7610459   -3.0736077 
C     4.4769339    2.8610239   -3.0884065 
H     6.3403080    3.6903568   -2.3450536 
H     6.8819484    1.6797090   -0.9615126 
H     5.3569630   -0.2661655   -0.9270754 
H     2.6946757    1.7839744   -3.6688190 
H     4.2317584    3.7376895   -3.6966007 
C     1.5771419   -6.1631144    0.7944611 
C     2.3569496   -5.0774496    1.2289867 
C     2.5178222   -3.9545841    0.4124798 
C     1.9055180   -3.8916954   -0.8628765 
C     1.1276133   -4.9921577   -1.2869139 
C     0.9651081   -6.1149671   -0.4661875 
H     1.4493640   -7.0401182    1.4372327 
H     2.8367045   -5.1069909    2.2130180 
H     3.1098814   -3.1072914    0.7772577 
H     0.6415811   -4.9590843   -2.2679201 
H     0.3550247   -6.9548465   -0.8145135 
O    -2.9801189    3.1388702    0.6070740 
O    -3.4943694    0.7331720    2.4891679 
O    -4.2685169    1.2206284   -3.3963493 
O     0.2616202    1.0082992    5.1679398 
N    -3.6354993    2.1889654   -1.3926325 
N    -1.6272536    0.8864225    3.8379258 
C    -2.1334798    0.9985354    0.1123571 
C    -1.4189921    1.0244824    1.4148774 
C    -2.1220881   -0.0924298   -0.7910282 
C    -0.0248175    1.2148499    1.5640061 
C    -2.9419895    2.1060402   -0.2563016 
C    -2.1626796    0.8910613    2.6166232 
C    -2.8573483   -0.0249599   -1.9828579 
C     0.5511548    1.2250437    2.8419917 
C    -1.5295988   -2.8745039   -1.5463800 
C    -1.3635690   -2.0341117    1.2666794 
C     2.6566895    1.8439619    0.6305151 
C     0.2771192    2.6497158   -0.9539650 
C    -3.5881515    1.1546036   -2.2363809 
C    -0.3046150    1.0359269    3.9467059 
C    -2.1118672   -4.0596403   -1.0587149 
C    -2.6963288   -2.2118264    1.6950051 
C     3.1795433    3.1305227    0.4084091 
C    -0.0431748    3.8938647   -0.3719221 
C    -1.2666533   -2.7537179   -2.9299511 
C    -0.2994087   -2.2634256    2.1601153 
C     3.4235724    0.8973649    1.3480991 
C    -0.0087004    2.4177971   -2.3143394 
C    -2.4479668   -5.0946258   -1.9449794 
C    -2.9524096   -2.6254404    3.0080179 
C     4.4329922    3.4759777    0.9347058 
C    -0.6199916    4.9005331   -1.1570828 
C    -1.6133534   -3.7847156   -3.8113768 
C    -0.5646162   -2.6637023    3.4761861 
C     4.6643118    1.2551349    1.8887522 
C    -0.5999237    3.4228801   -3.0900457 
C    -2.2063429   -4.9593966   -3.3188462 
C    -1.8896008   -2.8456927    3.8993324 
C     5.1675925    2.5497680    1.6882230 
C    -0.9001453    4.6663117   -2.5126608 
C    -3.8238235    4.2523383    0.2719806 
C    -4.2685646    0.6437263    3.6962104 
C    -5.0185873    2.4196253   -3.6576450 
C    -0.6075545    0.8145039    6.2970999 
H    -2.9005222   -0.8414002   -2.7051596 
H     1.6172272    1.3778325    3.0152597 
H    -2.2894265   -4.1863575    0.0129312 
H    -3.5261691   -2.0082813    1.0103998 
H     2.6156178    3.8616477   -0.1779715 
H     0.1399609    4.0651558    0.6938978 
H    -0.7820810   -1.8487135   -3.3162064 
H     0.7311015   -2.1181010    1.8197233 
H     3.0358541   -0.1193430    1.4902919 
H     0.2088561    1.4359902   -2.7499975 
H    -2.8957560   -6.0138757   -1.5536235 
H    -3.9861408   -2.7673775    3.3398489 
H     4.8350953    4.4779635    0.7534248 
H    -0.8645680    5.8672889   -0.7049466 
H    -1.4142567   -3.6754437   -4.8824545 
H     0.2642518   -2.8289439    4.1718743 
H     5.2420654    0.5210013    2.4598685 
H    -0.8354833    3.2324658   -4.1421307 
H    -2.4709380   -5.7693001   -4.0063140 
H    -2.0966996   -3.1591342    4.9279678 
H     6.1397239    2.8308023    2.1061614 
H    -1.3613928    5.4531340   -3.1187173 
H    -4.8751629    3.9306266    0.1833903 
H    -3.5057165    4.7081015   -0.6806032 
H    -3.7052773    4.9637896    1.1015126 
H    -3.9440400   -0.2174537    4.3037338 
H    -5.3083978    0.5162301    3.3633817 
H    -4.1624704    1.5644008    4.2944817 
H    -4.3513209    3.2983114   -3.6853591 
H    -5.4886572    2.2589166   -4.6379848 
H    -5.7857628    2.5791246   -2.8809608 
H    -1.1348974   -0.1519802    6.2211363 
H     0.0524846    0.8277704    7.1758209 
H    -1.3544233    1.6240765    6.3606648 
