109
Energy =
C     2.5793015   -2.7381486   -0.6101472 
C     2.9713491   -1.8659566   -1.6512050 
C     3.5019718   -0.5722900   -1.3386034 
H     2.7127259   -2.1131579   -2.6883639 
Pd    1.4634447   -0.7522342   -0.5019882 
P     1.1472319    1.4373667    0.2549100 
P    -0.7206264   -1.4755454   -0.1032754 
H     2.9923368   -2.5265824    0.3893112 
H     4.1013547   -0.4817860   -0.4220492 
C     0.8138240   -6.6432337   -0.8611465 
C     1.0596077   -6.0437349    0.3833994 
C     1.6331111   -4.7699816    0.4426707 
C     1.9669973   -4.0657497   -0.7388195 
C     1.7047695   -4.6795211   -1.9850575 
C     1.1383967   -5.9560384   -2.0421657 
H     0.3720160   -7.6436598   -0.9125508 
H     0.8101863   -6.5726027    1.3089371 
H     1.8273804   -4.3066504    1.4161188 
H     1.9564272   -4.1641482   -2.9165251 
H     0.9474483   -6.4194169   -3.0150529 
C     4.1050264    2.6168902   -4.1670881 
C     4.8021019    2.5968712   -2.9506411 
C     4.6108407    1.5460844   -2.0452386 
C     3.7160732    0.4924723   -2.3371388 
C     3.0199894    0.5253992   -3.5697971 
C     3.2142501    1.5737242   -4.4734645 
H     4.2528648    3.4390439   -4.8747949 
H     5.4982840    3.4044755   -2.7015876 
H     5.1539104    1.5403862   -1.0941071 
H     2.3034890   -0.2672281   -3.8146772 
H     2.6649862    1.5833207   -5.4208705 
O    -3.2469739    0.6492705    2.8551629 
O    -2.9544306    3.0594719    0.9325236 
O     0.5550812    1.2713812    5.4090729 
O    -4.1724681    1.0531954   -3.0487243 
N    -1.3563817    0.9660096    4.1417083 
N    -3.5829004    2.0589395   -1.0506522 
C    -1.2311603    1.0596096    1.7098594 
C    -1.9852989    0.9721675    0.4325835 
C     0.1513257    1.3513371    1.8104777 
C    -1.9240748   -0.1207511   -0.4642260 
C    -1.9266082    0.9010960    2.9376592 
C    -2.8685423    2.0242379    0.0748615 
C     0.7613767    1.4362202    3.0700120 
C    -2.6794892   -0.1050225   -1.6449697 
C     2.7392406    2.2277491    0.7183082 
C     0.2696861    2.6163941   -0.8297223 
C    -1.1589882   -2.8038864   -1.2903548 
C    -1.1463742   -2.0447897    1.5808372 
C    -0.0462445    1.2179406    4.2056010 
C    -3.4807676    1.0283653   -1.8938485 
C     3.1108806    3.5085400    0.2678390 
C     0.0526227    2.2717136   -2.1777940 
C    -0.8256276   -2.5867992   -2.6471351 
C    -0.1162402   -2.1756690    2.5337638 
C     3.6546208    1.4748853    1.4884819 
C    -0.1837968    3.8582812   -0.3363702 
C    -1.7919747   -4.0035018   -0.9183810 
C    -2.4814777   -2.3099489    1.9501996 
C     4.3673436    4.0353511    0.6045538 
C    -0.6175299    3.1607529   -3.0282411 
C    -1.1792915   -3.5271018   -3.6220916 
C    -0.4148936   -2.5770543    3.8418546 
C     4.9027281    2.0089652    1.8305624 
C    -0.8406866    4.7469728   -1.1962615 
C    -2.1242173   -4.9513843   -1.8974423 
C    -2.7717452   -2.7263620    3.2559033 
C     5.2614702    3.2933816    1.3882698 
C    -1.0624997    4.3976194   -2.5383824 
C    -1.8367667   -4.7092589   -3.2480006 
C    -1.7421028   -2.8579146    4.2012104 
C    -3.9763768    0.5271806    4.0868540 
C    -3.8778386    4.1117692    0.6094446 
C    -0.2649785    1.0541613    6.5703508 
C    -4.9898912    2.2080372   -3.3063734 
H     1.8168196    1.6757363    3.2076121 
H    -2.6789241   -0.9242000   -2.3652736 
H     2.4305627    4.0915260   -0.3593153 
H     0.4043034    1.3039003   -2.5501067 
H    -0.2965986   -1.6697469   -2.9358941 
H     0.9138194   -1.9321121    2.2493475 
H     3.3885464    0.4624205    1.8161382 
H    -0.0405843    4.1170446    0.7178241 
H    -2.0211541   -4.2036270    0.1322690 
H    -3.2901263   -2.1714758    1.2249811 
H     4.6475637    5.0306086    0.2444916 
H    -0.7950679    2.8850009   -4.0726312 
H    -0.9346143   -3.3410113   -4.6730056 
H     0.3863346   -2.6604092    4.5832523 
H     5.5994239    1.4202848    2.4362348 
H    -1.1891600    5.7124120   -0.8151226 
H    -2.6122980   -5.8847571   -1.5989661 
H    -3.8082338   -2.9353276    3.5403981 
H     6.2400980    3.7091366    1.6490015 
H    -1.5852993    5.0929514   -3.2035627 
H    -2.1102917   -5.4484354   -4.0079763 
H    -1.9765264   -3.1726323    5.2235369 
H    -3.9093438    1.4595328    4.6724157 
H    -3.5811491   -0.3061730    4.6914269 
H    -5.0159419    0.3314899    3.7880955 
H    -3.6193712    4.5729215   -0.3583588 
H    -3.7819656    4.8408581    1.4264908 
H    -4.9081950    3.7213560    0.5565184 
H    -0.7242910    0.0510425    6.5410418 
H     0.4175846    1.1429690    7.4271742 
H    -1.0655340    1.8108323    6.6319671 
H    -4.3724558    3.1221129   -3.3402774 
H    -5.4572883    2.0196358   -4.2830898 
H    -5.7594498    2.3262147   -2.5246128 
