109
Energy =
C     2.7714448   -2.6128168    0.1305507 
C     3.1459625   -1.9918899   -1.0829035 
C     3.5794761   -0.6263475   -1.0837697 
H     2.9440859   -2.5002187   -2.0339621 
Pd    1.5264282   -0.7448956   -0.2732179 
P     1.0391728    1.5346852   -0.0860529 
P    -0.6185497   -1.5053602    0.2503547 
H     3.1323828   -2.1378090    1.0570838 
H     4.1356799   -0.2740103   -0.2040520 
C     1.2778010   -6.5816955    0.7985174 
C     1.5973929   -6.1759383   -0.5074852 
C     2.0753267   -4.8851464   -0.7502556 
C     2.2524236   -3.9731146    0.3153581 
C     1.9242061   -4.3957327    1.6256920 
C     1.4388328   -5.6848595    1.8655506 
H     0.9057868   -7.5948388    0.9823325 
H     1.4718973   -6.8716728   -1.3429097 
H     2.3244661   -4.5909826   -1.7739148 
H     2.0526623   -3.6994262    2.4615138 
H     1.1921183   -5.9929153    2.8867129 
C     4.0915002    1.8121207   -4.5949725 
C     4.7450025    2.1350583   -3.3971911 
C     4.5839689    1.3263076   -2.2655349 
C     3.7641990    0.1764755   -2.3078110 
C     3.1110216   -0.1375984   -3.5243527 
C     3.2748212    0.6695848   -4.6535536 
H     4.2153394    2.4451278   -5.4796029 
H     5.3830662    3.0230280   -3.3400429 
H     5.0921385    1.5884691   -1.3313906 
H     2.4516596   -1.0114156   -3.5811555 
H     2.7594877    0.4122217   -5.5849849 
O    -3.3806773    1.0864330    2.5511940 
O    -3.1843401    2.9692170    0.1021404 
O     0.2761015    2.6065547    4.9352965 
O    -4.1204860   -0.0268750   -3.2899073 
N    -1.5633205    1.8522263    3.7516016 
N    -3.6726738    1.4740458   -1.5874464 
C    -1.3583911    1.3516814    1.3754086 
C    -2.0605752    0.9000080    0.1462272 
C    -0.0031292    1.7609520    1.4244547 
C    -1.8955606   -0.3708709   -0.4536721 
C    -2.0844170    1.4492187    2.5917837 
C    -2.9985498    1.7661118   -0.4744715 
C     0.5543096    2.1999630    2.6336428 
C    -2.6078176   -0.6978961   -1.6159377 
C     2.5575093    2.5295217    0.1949434 
C     0.1229963    2.3440741   -1.4433593 
C    -0.9267612   -3.1105595   -0.5825402 
C    -1.0637984   -1.6766876    2.0149281 
C    -0.2767121    2.2102688    3.7733258 
C    -3.4719711    0.2797985   -2.1505380 
C     2.8596706    3.6822805   -0.5541701 
C    -0.4258100    3.6339518   -1.2811132 
C    -1.4920819   -4.2263887    0.0604341 
C    -2.3911188   -1.9363137    2.4149669 
C     3.4923594    2.0599789    1.1455203 
C    -0.0289648    1.6621432   -2.6660758 
C    -0.5621772   -3.2056660   -1.9453369 
C    -0.0599339   -1.5002150    2.9883547 
C     4.0654391    4.3666956   -0.3364193 
C    -1.1124528    4.2331788   -2.3441612 
C    -1.7282719   -5.4046860   -0.6629814 
C    -2.6980948   -2.0423134    3.7777185 
C     4.6889599    2.7523184    1.3668196 
C    -0.7293859    2.2629089   -3.7202286 
C    -0.8203393   -4.3772130   -2.6669281 
C    -0.3764011   -1.5913792    4.3495475 
C     4.9775741    3.9099157    0.6246213 
C    -1.2693728    3.5476222   -3.5598489 
C    -1.4115386   -5.4773239   -2.0266730 
C    -1.6945683   -1.8679735    4.7439473 
C    -4.1436879    1.2170140    3.7613125 
C    -4.1638618    3.8406271   -0.4855081 
C    -0.5679256    2.6234880    6.0995677 
C    -5.0020534    0.9678750   -3.8388804 
H     1.5852314    2.5447451    2.7256308 
H    -2.5279662   -1.6655644   -2.1130983 
H     2.1652836    4.0401157   -1.3194346 
H    -0.3323011    4.1551336   -0.3228271 
H    -1.7432718   -4.1816576    1.1241204 
H    -3.1820467   -2.0340676    1.6640881 
H     3.2823318    1.1436047    1.7104874 
H     0.3962732    0.6595611   -2.7804385 
H    -0.0847993   -2.3505969   -2.4403740 
H     0.9615762   -1.2627090    2.6703831 
H     4.2920445    5.2591903   -0.9287293 
H    -1.5348681    5.2356770   -2.2203659 
H    -2.1642588   -6.2702790   -0.1538782 
H    -3.7281986   -2.2476416    4.0868806 
H     5.4006563    2.3847340    2.1132318 
H    -0.8567655    1.7249913   -4.6650588 
H    -0.5530091   -4.4342852   -3.7272284 
H     0.4031864   -1.4367383    5.1025406 
H     5.9162532    4.4480010    0.7916255 
H    -1.8162386    4.0176031   -4.3840715 
H    -1.6101696   -6.3962920   -2.5876781 
H    -1.9428061   -1.9402213    5.8080484 
H    -4.1626153    2.2673914    4.0974371 
H    -3.7137662    0.5911129    4.5611205 
H    -5.1557622    0.8750561    3.5023661 
H    -5.1629149    3.3735751   -0.4617722 
H    -3.9014426    4.0721515   -1.5313146 
H    -4.1475215    4.7505745    0.1310062 
H    -0.9559309    1.6128465    6.3143939 
H     0.0759749    2.9735180    6.9185727 
H    -1.4201817    3.3092496    5.9559591 
H    -4.4452310    1.8885339   -4.0844268 
H    -5.4200641    0.5137757   -4.7482666 
H    -5.8055819    1.2168055   -3.1250398 
