109
Energy =
C     3.2392842   -2.0909454   -0.0635603 
C     2.8329134   -2.1065951   -1.4332357 
C     3.0055825   -0.9806016   -2.2693656 
H     2.2461792   -2.9577556   -1.8023058 
Pd    1.7380589   -0.4812187   -0.4339069 
P     0.0486288    0.7827236   -1.4924727 
P     0.8746715   -0.1538622    1.7107403 
H     4.1186259   -1.4860339    0.2020232 
H     3.7731833   -0.2480367   -1.9735293 
C     2.2502306   -5.2417477    2.7017690 
C     1.3977643   -4.9672866    1.6193825 
C     1.7206331   -3.9529796    0.7122969 
C     2.9014807   -3.1881793    0.8649400 
C     3.7493328   -3.4811737    1.9549607 
C     3.4274282   -4.4968001    2.8632740 
H     1.9942297   -6.0294880    3.4176060 
H     0.4659474   -5.5286351    1.4929668 
H     1.0256758   -3.7270186   -0.1040174 
H     4.6690110   -2.9029712    2.0898350 
H     4.0957341   -4.7012140    3.7056246 
C     1.8391536   -0.6595978   -6.3938849 
C     2.8376799    0.1692085   -5.8622175 
C     3.1938633    0.0619368   -4.5134381 
C     2.5696315   -0.8860824   -3.6715951 
C     1.5603537   -1.7110913   -4.2205261 
C     1.1985861   -1.5962721   -5.5655722 
H     1.5563826   -0.5743193   -7.4481586 
H     3.3370661    0.9070453   -6.4978592 
H     3.9699595    0.7158452   -4.1021693 
H     1.0443427   -2.4421585   -3.5921307 
H     0.4121037   -2.2411294   -5.9711105 
O    -2.9262152    2.0898788    2.5212659 
O    -4.0619816    0.3100053    0.2228894 
O    -1.2535076    5.5757377   -0.0096864 
O    -2.5955736   -3.9364837    1.3150544 
N    -2.1230927    3.8389133    1.2459064 
N    -3.3574293   -1.8057394    0.8181960 
C    -1.6322503    1.5324294    0.6380591 
C    -1.8329664    0.0938798    0.9527245 
C    -0.8841093    2.0044634   -0.4681220 
C    -0.8413242   -0.7679774    1.4790965 
C    -2.2351432    2.5258443    1.4514281 
C    -3.0938136   -0.5055228    0.6796651 
C    -0.7665269    3.3803789   -0.7039486 
C    -1.0982602   -2.1438350    1.6067207 
C     0.6443849    1.7600406   -2.9252385 
C    -1.2746817   -0.3477107   -2.0786284 
C     1.6384297   -0.9957988    3.1547137 
C     0.7843607    1.5629779    2.3664788 
C    -1.4033510    4.2548900    0.2007165 
C    -2.3748784   -2.6077413    1.2384487 
C     1.7701509    2.5850201   -2.7086398 
C    -2.4796933    0.1633781   -2.6048477 
C     3.0050870   -0.7071611    3.3571794 
C     1.4431659    2.6147619    1.7046766 
C     0.0428739    1.7304706   -4.1962271 
C    -1.1065013   -1.7406092   -1.9534183 
C     0.9451565   -1.7616829    4.1105660 
C     0.1291115    1.8052421    3.5922440 
C     2.2518456    3.4086569   -3.7333328 
C    -3.4811096   -0.7169075   -3.0351072 
C     3.6670471   -1.1733924    4.4979387 
C     1.4275868    3.9073038    2.2486534 
C     0.5406799    2.5448238   -5.2239988 
C    -2.1166251   -2.6163090   -2.3701489 
C     1.6205378   -2.2457974    5.2414230 
C     0.1171755    3.0966942    4.1302128 
C     1.6317594    3.3939478   -4.9925870 
C    -3.3014363   -2.1047039   -2.9199755 
C     2.9764585   -1.9516972    5.4397849 
C     0.7621491    4.1488508    3.4585307 
C    -3.5505252    3.0802003    3.3549574 
C    -5.3536014   -0.2677732   -0.0275110 
C    -1.8882769    6.4714970    0.9196440 
C    -3.8996165   -4.4131219    0.9382568 
H    -0.2016340    3.7956586   -1.5400251 
H    -0.3466072   -2.8560266    1.9482385 
H     2.2664856    2.5826790   -1.7305453 
H    -2.6409344    1.2450723   -2.6581316 
H     3.5475688   -0.1036687    2.6190332 
H     1.9558349    2.4196250    0.7559062 
H    -0.8020791    1.0648877   -4.3930521 
H    -0.1890865   -2.1279379   -1.4960527 
H    -0.1210582   -1.9715251    3.9901682 
H    -0.3760499    0.9879663    4.1169318 
H     3.1157855    4.0562026   -3.5513195 
H    -4.4125768   -0.3163735   -3.4483415 
H     4.7255468   -0.9366902    4.6476956 
H     1.9286578    4.7254586    1.7215573 
H     0.0722453    2.5095153   -6.2127987 
H    -1.9836736   -3.6966297   -2.2512746 
H     1.0754457   -2.8471547    5.9763450 
H    -0.3942413    3.2833938    5.0802141 
H     2.0098190    4.0332250   -5.7970275 
H    -4.0924273   -2.7872450   -3.2480618 
H     3.4946167   -2.3252227    6.3290190 
H     0.7497486    5.1578299    3.8838412 
H    -4.0506600    2.5125828    4.1523556 
H    -4.2837500    3.6686237    2.7781317 
H    -2.7949055    3.7641269    3.7768147 
H    -5.9762679    0.5637195   -0.3867413 
H    -5.7736217   -0.6957037    0.8982333 
H    -5.2827411   -1.0603736   -0.7908290 
H    -2.9813647    6.3220670    0.9237233 
H    -1.5020796    6.3101979    1.9406628 
H    -1.6376504    7.4811464    0.5651686 
H    -4.1170990   -4.1623152   -0.1142134 
H    -3.8608183   -5.5027530    1.0769523 
H    -4.6796168   -3.9682461    1.5790453 
