109
Energy =
C     2.5539464   -2.7469015   -0.6669195 
C     2.9472341   -1.8623851   -1.6970617 
C     3.4877383   -0.5767020   -1.3684751 
H     2.6827569   -2.0927576   -2.7366355 
Pd    1.4531141   -0.7546632   -0.5247744 
P     1.1588537    1.4259783    0.2652725 
P    -0.7334510   -1.4678583   -0.1190402 
H     2.9733227   -2.5526781    0.3334128 
H     4.0921927   -0.5039601   -0.4536408 
C     0.7642965   -6.6374701   -0.9673894 
C     1.0239523   -6.0600628    0.2847489 
C     1.6050254   -4.7905836    0.3601662 
C     1.9327786   -4.0686158   -0.8122994 
C     1.6563327   -4.6601131   -2.0662470 
C     1.0825020   -5.9324260   -2.1396152 
H     0.3167152   -7.6345814   -1.0315927 
H     0.7793410   -6.6028390    1.2034972 
H     1.8103199   -4.3445841    1.3394558 
H     1.9026358   -4.1305551   -2.9911456 
H     0.8806142   -6.3784971   -3.1183655 
C     4.1067842    2.6425224   -4.1591638 
C     4.8128635    2.5983895   -2.9485669 
C     4.6155835    1.5384810   -2.0551185 
C     3.7059637    0.4996333   -2.3536738 
C     3.0002735    0.5572837   -3.5799464 
C     3.2003759    1.6147228   -4.4716076 
H     4.2594476    3.4717744   -4.8575044 
H     5.5208111    3.3942007   -2.6947550 
H     5.1657895    1.5138324   -1.1083909 
H     2.2721018   -0.2233827   -3.8288190 
H     2.6434899    1.6435775   -5.4141597 
O    -3.2209846    0.6322219    2.8883296 
O    -2.9267152    3.0673544    0.9982902 
O     0.6044721    1.1945291    5.4209565 
O    -4.1907675    1.1262366   -3.0009732 
N    -1.3186180    0.9190585    4.1644218 
N    -3.5780599    2.0995326   -0.9937623 
C    -1.2113055    1.0449532    1.7331317 
C    -1.9761769    0.9808222    0.4608860 
C     0.1739195    1.3258504    1.8269799 
C    -1.9298020   -0.0996451   -0.4517709 
C    -1.8983937    0.8743324    2.9640285 
C    -2.8548506    2.0439883    0.1252695 
C     0.7940233    1.3895327    3.0828538 
C    -2.6947317   -0.0620719   -1.6258633 
C     2.7597405    2.1989670    0.7274342 
C     0.2808840    2.6258416   -0.7960635 
C    -1.1902822   -2.7768190   -1.3205001 
C    -1.1507501   -2.0580175    1.5598514 
C    -0.0063626    1.1613530    4.2215954 
C    -3.4899732    1.0802881   -1.8522336 
C     3.1373977    3.4828947    0.2910815 
C     0.0479261    2.3001782   -2.1462098 
C    -0.8684530   -2.5431769   -2.6773022 
C    -0.1143158   -2.2133499    2.5022084 
C     3.6748860    1.4300125    1.4818459 
C    -0.1588096    3.8644146   -0.2823327 
C    -1.8255218   -3.9783903   -0.9587011 
C    -2.4852726   -2.3169565    1.9357141 
C     4.3994057    3.9969264    0.6268462 
C    -0.6243241    3.2047347   -2.9784104 
C    -1.2357094   -3.4686789   -3.6613756 
C    -0.4063103   -2.6326522    3.8061982 
C     4.9284911    1.9514260    1.8234108 
C    -0.8177532    4.7687742   -1.1241362 
C    -2.1715770   -4.9114097   -1.9471996 
C    -2.7690034   -2.7512651    3.2370038 
C     5.2931090    3.2391235    1.3957504 
C    -1.0554386    4.4383295   -2.4683096 
C    -1.8954996   -4.6525710   -3.2970235 
C    -1.7331724   -2.9069136    4.1718429 
C    -3.9416942    0.4977399    4.1238486 
C    -3.8455313    4.1303538    0.6978600 
C    -0.2081612    0.9671914    6.5855364 
C    -5.0024063    2.2900267   -3.2356053 
H     1.8520478    1.6202116    3.2156218 
H    -2.7064489   -0.8712559   -2.3572938 
H     2.4572580    4.0785571   -0.3242446 
H     0.3886681    1.3346761   -2.5343846 
H    -0.3372010   -1.6251908   -2.9588431 
H     0.9156917   -1.9748589    2.2134287 
H     3.4042222    0.4150678    1.7978417 
H    -0.0036260    4.1084684    0.7736865 
H    -2.0459976   -4.1914411    0.0912794 
H    -3.2982577   -2.1602277    1.2191162 
H     4.6841962    4.9947530    0.2776572 
H    -0.8146348    2.9434778   -4.0242769 
H    -0.9997174   -3.2696591   -4.7119091 
H     0.4000322   -2.7352792    4.5395918 
H     5.6247059    1.3503442    2.4173501 
H    -1.1554692    5.7316381   -0.7271362 
H    -2.6617130   -5.8462196   -1.6566952 
H    -3.8050513   -2.9556056    3.5264168 
H     6.2759438    3.6450837    1.6560874 
H    -1.5798311    5.1458271   -3.1192553 
H    -2.1798643   -5.3800890   -4.0642377 
H    -1.9624339   -3.2351910    5.1910678 
H    -3.5469396   -0.3460854    4.7140315 
H    -4.9846729    0.3123324    3.8304772 
H    -3.8645278    1.4216464    4.7214217 
H    -3.7385112    4.8467039    1.5247369 
H    -4.8788503    3.7475358    0.6472169 
H    -3.5913706    4.6039726   -0.2650494 
H    -0.6742431   -0.0324643    6.5464611 
H     0.4814682    1.0401864    7.4381820 
H    -1.0032592    1.7281201    6.6632797 
H    -4.3791923    3.2004362   -3.2611235 
H    -5.4785113    2.1187931   -4.2112775 
H    -5.7651424    2.4018861   -2.4462740 
