109
Energy =
C     2.5653291   -2.7190747   -0.4177995 
C     2.9487322   -1.9964318   -1.5852568 
C     3.5273642   -0.7101502   -1.4991191 
H     2.6430211   -2.3708698   -2.5706744 
Pd    1.4865713   -0.7617747   -0.4692631 
P     0.5563730    1.3361105   -0.9603019 
P    -0.0534934   -1.2592642    1.2282016 
H     3.1559712   -2.5562443    0.4945860 
H     3.9487243   -0.4063723   -0.5270526 
C     0.3728812   -6.4243730   -0.4634125 
C     0.2532881   -5.5312386   -1.5420413 
C     0.9628050   -4.3273992   -1.5404994 
C     1.8092642   -3.9860983   -0.4588327 
C     1.9194627   -4.8938229    0.6171752 
C     1.2101826   -6.1012148    0.6134732 
H    -0.1854371   -7.3661459   -0.4653766 
H    -0.4021464   -5.7745357   -2.3848194 
H     0.8441965   -3.6346500   -2.3813985 
H     2.5657061   -4.6443263    1.4655280 
H     1.3103607   -6.7891840    1.4593213 
C     4.8294191    1.6953996   -4.8101554 
C     4.6415826    2.2680822   -3.5420717 
C     4.2211933    1.4754157   -2.4707605 
C     3.9628763    0.0966219   -2.6486813 
C     4.1588490   -0.4675103   -3.9304146 
C     4.5935556    0.3247694   -4.9980997 
H     5.1651377    2.3150460   -5.6478662 
H     4.8202010    3.3372260   -3.3906780 
H     4.0651252    1.9272174   -1.4843259 
H     4.0019417   -1.5395782   -4.0875318 
H     4.7556211   -0.1302164   -5.9807135 
O    -4.0545154    0.7459245    1.3341900 
O    -2.4505341    3.2767544    1.8281568 
O    -3.9854864    0.4532925   -3.2768668 
O     0.2386099    1.9107687    5.3295928 
N    -4.0356397    0.6214990   -0.9700560 
N    -1.1257065    2.5950334    3.5907494 
C    -1.9782003    1.0499361    0.2645321 
C    -1.3563715    1.2033386    1.6044461 
C    -1.2824992    1.1400797   -0.9652361 
C    -0.5134917    0.2392155    2.2067391 
C    -3.3757616    0.8103098    0.1728832 
C    -1.6359092    2.3576906    2.3818732 
C    -1.9647791    0.9499839   -2.1754182 
C     0.0237124    0.4699282    3.4808163 
C     0.8993546    2.7022085    0.2088315 
C     0.9497274    1.9691324   -2.6381633 
C    -1.6506510   -1.9631417    0.6818517 
C     0.6574377   -2.4112435    2.4704865 
C    -3.3455465    0.6730954   -2.1127787 
C    -0.3078414    1.6815404    4.1208228 
C     0.1394319    3.8915696    0.1910517 
C     1.0380346    1.0243776   -3.6832192 
C    -2.7220943   -2.1209465    1.5865025 
C     1.9558338   -2.1318507    2.9532619 
C     1.9466005    2.5560817    1.1399810 
C     1.1639260    3.3322755   -2.9208526 
C    -1.8102913   -2.3333353   -0.6673761 
C    -0.0123689   -3.5622214    2.9239805 
C     0.4432524    4.9250308    1.0854755 
C     1.2947427    1.4408969   -4.9942992 
C    -3.9319985   -2.6667922    1.1401980 
C     2.5577378   -2.9717773    3.8981210 
C     2.2346830    3.5880191    2.0436824 
C     1.4292122    3.7429827   -4.2343544 
C    -3.0284155   -2.8641499   -1.1099985 
C     0.5977714   -4.4048132    3.8659582 
C     1.4859391    4.7736565    2.0134792 
C     1.4880575    2.8023440   -5.2723390 
C    -4.0871307   -3.0355090   -0.2058965 
C     1.8764643   -4.1110195    4.3584263 
C    -5.4751497    0.5457858    1.2607623 
C    -2.7929845    4.4230466    2.6234989 
C    -5.3946516    0.1729435   -3.2157785 
C    -0.0975770    3.1453601    5.9859415 
H    -1.4775138    1.0164384   -3.1497477 
H     0.6668692   -0.2441755    3.9967745 
H    -0.7052844    3.9937671   -0.4976426 
H     0.9136837   -0.0426575   -3.4613105 
H    -2.6160152   -1.7981946    2.6274170 
H     2.4958182   -1.2502017    2.5859556 
H     2.5190762    1.6213266    1.1658869 
H     1.1349411    4.0757087   -2.1195768 
H    -0.9822333   -2.1834164   -1.3675862 
H    -1.0008906   -3.8164144    2.5318102 
H    -0.1454015    5.8479561    1.0664956 
H     1.3629953    0.6996893   -5.7964280 
H    -4.7615952   -2.7928538    1.8435861 
H     3.5602659   -2.7404373    4.2724613 
H     3.0391565    3.4629485    2.7755583 
H     1.5943186    4.8047437   -4.4447491 
H    -3.1523605   -3.1360304   -2.1631386 
H     0.0695870   -5.3007602    4.2079544 
H     1.7111764    5.5805239    2.7186923 
H     1.6980650    3.1271721   -6.2964859 
H    -5.0392191   -3.4521009   -0.5511250 
H     2.3477512   -4.7713071    5.0936161 
H    -5.7080109   -0.4049597    0.7527884 
H    -5.9560955    1.3730309    0.7120304 
H    -5.8175796    0.5232289    2.3050759 
H    -3.4507593    5.0307890    1.9860756 
H    -1.8883173    4.9882136    2.9035393 
H    -3.3198762    4.1144502    3.5421896 
H    -5.7071034    0.0324937   -4.2600913 
H    -5.5848677   -0.7406058   -2.6264751 
H    -5.9423646    1.0135260   -2.7568218 
H    -1.1848010    3.2128941    6.1611585 
H     0.4469812    3.1232669    6.9403369 
H     0.2200104    4.0092325    5.3769773 
