109
Energy =
C     2.6312159   -2.7018974   -0.5424065 
C     3.0310157   -1.8309287   -1.5816201 
C     3.5340081   -0.5266941   -1.2669467 
H     2.7985583   -2.0891380   -2.6222988 
Pd    1.4826476   -0.7337649   -0.4716987 
P     1.1193938    1.4563491    0.2627451 
P    -0.6968074   -1.4887271   -0.1049331 
H     3.0208867   -2.4768695    0.4634722 
H     4.1125776   -0.4213400   -0.3386648 
C     0.9375566   -6.6381478   -0.8008245 
C     1.2681370   -5.9509342   -1.9801896 
C     1.8110772   -4.6643999   -1.9208334 
C     2.0435741   -4.0403035   -0.6738039 
C     1.7036409   -4.7445426    0.5059404 
C     1.1535403   -6.0284933    0.4442950 
H     0.5141712   -7.6464176   -0.8539805 
H     1.1002410   -6.4221918   -2.9535420 
H     2.0675998   -4.1489260   -2.8509178 
H     1.8747526   -4.2731632    1.4798986 
H     0.8991966   -6.5572827    1.3685439 
C     4.1540815    2.6489467   -4.1068283 
C     4.8310466    2.6438558   -2.8789372 
C     4.6339818    1.5978982   -1.9691427 
C     3.7540453    0.5340270   -2.2685086 
C     3.0778552    0.5521259   -3.5124805 
C     3.2775056    1.5958646   -4.4202484 
H     4.3062547    3.4674541   -4.8178425 
H     5.5159160    3.4594028   -2.6244361 
H     5.1608357    1.6039431   -1.0089389 
H     2.3725629   -0.2487948   -3.7629859 
H     2.7434802    1.5941936   -5.3763726 
O    -3.3089731    0.6213557    2.7890671 
O    -3.0175947    3.0196159    0.8517299 
O     0.4339039    1.3310940    5.4068334 
O    -4.1348341    0.9607750   -3.1321200 
N    -1.4482118    0.9814271    4.1073307 
N    -3.5958859    1.9926216   -1.1330952 
C    -1.2789452    1.0531779    1.6773426 
C    -2.0083014    0.9431946    0.3874094 
C     0.0966724    1.3677977    1.8006393 
C    -1.9143172   -0.1560507   -0.4987414 
C    -1.9945689    0.8953793    2.8935760 
C    -2.9009053    1.9785362    0.0049256 
C     0.6815713    1.4747289    3.0703926 
C    -2.6490057   -0.1620052   -1.6925578 
C     2.6903395    2.2749349    0.7485471 
C     0.2429769    2.6130696   -0.8466748 
C    -1.0938553   -2.8343034   -1.2869853 
C    -1.1434135   -2.0501546    1.5762061 
C    -0.1436844    1.2551980    4.1929820 
C    -3.4631624    0.9566043   -1.9652344 
C     3.0512091    3.5570875    0.2932955 
C    -0.2354587    3.8529125   -0.3721645 
C    -0.7433700   -2.6234663   -2.6404268 
C    -0.1282251   -2.1591742    2.5477380 
C     3.6019628    1.5432492    1.5432222 
C     0.0506392    2.2525173   -2.1943785 
C    -1.7117301   -4.0414459   -0.9138397 
C    -2.4809016   -2.3311551    1.9245759 
C     4.2926818    4.1062486    0.6492730 
C    -0.8920835    4.7239197   -1.2501869 
C    -1.0661803   -3.5781150   -3.6121477 
C    -0.4440629   -2.5535938    3.8539168 
C     4.8348986    2.0995876    1.9042927 
C    -0.6193771    3.1237188   -3.0631573 
C    -2.0130211   -5.0032937   -1.8892804 
C    -2.7880948   -2.7405357    3.2286016 
C     5.1825347    3.3853682    1.4571318 
C    -1.0889653    4.3587422   -2.5919551 
C    -1.7092900   -4.7679728   -3.2374890 
C    -1.7734040   -2.8494892    4.1927766 
C    -4.0593051    0.4994474    4.0081387 
C    -3.9512033    4.0546817    0.5034311 
C    -0.4042995    1.1131830    6.5549242 
C    -4.9657457    2.1002718   -3.4138559 
H     1.7302736    1.7326695    3.2250745 
H    -2.6233604   -0.9870974   -2.4056169 
H     2.3744915    4.1238303   -0.3523675 
H    -0.1117172    4.1237373    0.6814716 
H    -0.2251994   -1.7003177   -2.9294355 
H     0.9032930   -1.9042668    2.2789418 
H     3.3449296    0.5299436    1.8754192 
H     0.4208221    1.2860059   -2.5518416 
H    -1.9534608   -4.2362511    0.1350012 
H    -3.2785006   -2.2103847    1.1841209 
H     4.5646082    5.1024221    0.2854024 
H    -1.2600611    5.6877131   -0.8834606 
H    -0.8084828   -3.3970384   -4.6608233 
H     0.3452911   -2.6199050    4.6096423 
H     5.5285318    1.5271634    2.5287702 
H    -0.7778086    2.8353652   -4.1072225 
H    -2.4898071   -5.9421846   -1.5898633 
H    -3.8263651   -2.9617747    3.4968659 
H     6.1493827    3.8185973    1.7329481 
H    -1.6117214    5.0401440   -3.2714293 
H    -1.9587580   -5.5182435   -3.9948689 
H    -2.0213205   -3.1584587    5.2136794 
H    -4.0191153    1.4387856    4.5849583 
H    -3.6615744   -0.3208106    4.6287610 
H    -5.0896172    0.2830340    3.6920915 
H    -4.9743279    3.6478891    0.4357789 
H    -3.6827680    4.5116916   -0.4636186 
H    -3.8810055    4.7919673    1.3157126 
H    -0.8471854    0.1026340    6.5280516 
H     0.2605706    1.2219034    7.4232889 
H    -1.2176091    1.8576956    6.5934295 
H    -4.3624805    3.0238859   -3.4441010 
H    -5.4123593    1.8966956   -4.3972319 
H    -5.7511508    2.2121649   -2.6470512 
