109
Energy =
C     3.5856436   -1.2955336   -0.0092234 
C     3.2370956   -1.6771066   -1.3248486 
C     2.9364686   -0.6757833   -2.3045283 
H     3.0341888   -2.7327325   -1.5442436 
Pd    1.5395557   -0.4808721   -0.6025129 
P     0.0997780    1.1535868   -1.4527948 
P     0.2871743   -0.9519209    1.3107689 
H     3.9276441   -0.2568618    0.1265746 
H     3.4860173    0.2735985   -2.2398917 
C     4.4551018   -3.7674449    3.3910932 
C     4.1417051   -4.3707626    2.1621645 
C     3.8457162   -3.5861386    1.0440209 
C     3.8657848   -2.1752657    1.1315529 
C     4.1818125   -1.5817509    2.3769452 
C     4.4703829   -2.3683438    3.4962714 
H     4.6878263   -4.3876378    4.2627924 
H     4.1272901   -5.4616754    2.0759355 
H     3.6110908   -4.0756734    0.0943920 
H     4.1982978   -0.4896947    2.4616492 
H     4.7140135   -1.8897601    4.4502559 
C     1.1323706   -1.4188358   -6.1423629 
C     1.8655463   -0.2462651   -5.9105294 
C     2.4625547   -0.0224751   -4.6638547 
C     2.3373519   -0.9673167   -3.6208884 
C     1.5951220   -2.1472904   -3.8699287 
C     1.0023866   -2.3702333   -5.1158765 
H     0.6638752   -1.5936525   -7.1162840 
H     1.9731980    0.5015494   -6.7030521 
H     3.0283595    0.8986286   -4.4878326 
H     1.4631798   -2.8886518   -3.0733475 
H     0.4299949   -3.2876901   -5.2890573 
O    -2.5656361    2.0521112    2.8795344 
O    -4.0232436    1.6470398    0.1759054 
O     0.4267781    5.3363091    1.6045057 
O    -4.3631030   -2.9621605    0.1581084 
N    -1.0790580    3.7026051    2.2499563 
N    -4.2089430   -0.6540325    0.1789605 
C    -1.3656753    1.7050522    0.8839910 
C    -2.0898174    0.4179713    0.7206893 
C    -0.4269965    2.2245865   -0.0408070 
C    -1.5201555   -0.8589624    0.9379245 
C    -1.6562816    2.5251815    2.0060582 
C    -3.4632809    0.4361623    0.3626809 
C     0.1780434    3.4669735    0.1957833 
C    -2.2947792   -2.0138720    0.7614722 
C     0.9626268    2.2650289   -2.6337674 
C    -1.4441906    0.6149927   -2.2667723 
C     0.5593136   -2.6950315    1.8138080 
C     0.5187102    0.1143410    2.7772835 
C    -0.1804084    4.1572412    1.3724994 
C    -3.6366620   -1.8468892    0.3613020 
C     2.2412995    2.7494725   -2.2755827 
C    -1.6014888   -0.7441208   -2.6001651 
C     0.5074136   -3.6718475    0.7928963 
C    -0.3348903    0.0186776    3.8959646 
C     0.4401263    2.5778734   -3.9028518 
C    -2.4688352    1.5385040   -2.5641637 
C     0.8164382   -3.0931184    3.1379780 
C     1.5460359    1.0791379    2.7598126 
C     2.9662499    3.5600353   -3.1573278 
C    -2.7778679   -1.1800927   -3.2235475 
C     0.6465683   -5.0295301    1.1046761 
C    -0.1399248    0.8670397    4.9936271 
C     1.1751134    3.3825051   -4.7871487 
C    -3.6357743    1.0970960   -3.1998607 
C     0.9762419   -4.4534275    3.4404166 
C     1.7255411    1.9352009    3.8536157 
C     2.4325691    3.8787184   -4.4173479 
C    -3.7933215   -0.2602404   -3.5243215 
C     0.8743836   -5.4225827    2.4325842 
C     0.8858486    1.8253282    4.9727725 
C    -2.9052903    2.8853005    3.9993816 
C    -5.4237670    1.6867789   -0.1421114 
C     0.0611640    6.0464015    2.8004604 
C    -5.7314801   -2.7959511   -0.2517414 
H     0.8925456    3.9236424   -0.4905849 
H    -1.9107622   -3.0215242    0.9262104 
H     2.6722427    2.4840370   -1.3024178 
H    -0.8027870   -1.4538169   -2.3605817 
H     0.3456379   -3.3617241   -0.2472371 
H    -1.1594542   -0.7017363    3.8976847 
H    -0.5315286    2.1825753   -4.2119724 
H    -2.3605412    2.5906716   -2.2813952 
H     0.8985016   -2.3459466    3.9326892 
H     2.1816828    1.1719537    1.8718342 
H     3.9515210    3.9374396   -2.8649039 
H    -2.9020962   -2.2392983   -3.4705017 
H     0.5851496   -5.7803669    0.3100548 
H    -0.8009812    0.7892152    5.8630191 
H     0.7608354    3.6154559   -5.7734796 
H    -4.4296183    1.8137517   -3.4345099 
H     1.1807129   -4.7545574    4.4728829 
H     2.5137564    2.6946059    3.8285088 
H     3.0017864    4.5064245   -5.1105663 
H    -4.7122587   -0.6008921   -4.0129098 
H     0.9880958   -6.4834135    2.6783294 
H     1.0257957    2.4939372    5.8286752 
H    -3.3276396    3.8447002    3.6561267 
H    -2.0151381    3.0853760    4.6188580 
H    -3.6531518    2.3140032    4.5673728 
H    -6.0193316    1.2378030    0.6706099 
H    -5.6258951    1.1400861   -1.0782885 
H    -5.6640075    2.7535667   -0.2541254 
H     0.2894403    5.4439357    3.6965940 
H     0.6642986    6.9650838    2.7872577 
H    -1.0151734    6.2887895    2.7988143 
H    -5.7871713   -2.2567183   -1.2130200 
H    -6.1281653   -3.8156246   -0.3558357 
H    -6.3024228   -2.2332358    0.5063169 
