109
Energy =
C     2.8312098   -2.4922530   -0.9576748 
C     2.6784035   -1.6950511   -2.1143451 
C     3.1700505   -0.3546713   -2.1697203 
H     2.0453486   -2.0613410   -2.9329381 
Pd    1.6961552   -0.5600788   -0.5061952 
P     0.9750456    1.6462170   -0.2506651 
P    -0.0180704   -1.4570922    0.8470351 
H     3.6366804   -2.2151150   -0.2593030 
H     4.0817449   -0.1206741   -1.6007142 
C     1.4186905   -6.5165155   -0.4232155 
C     0.8057342   -5.6904715   -1.3801305 
C     1.2476838   -4.3774717   -1.5642927 
C     2.3115105   -3.8586411   -0.7898608 
C     2.9079613   -4.6968297    0.1790842 
C     2.4712085   -6.0142552    0.3556389 
H     1.0727257   -7.5458265   -0.2834400 
H    -0.0217875   -6.0727123   -1.9867158 
H     0.7523129   -3.7499863   -2.3102977 
H     3.7259676   -4.3079154    0.7944287 
H     2.9501087   -6.6479134    1.1085888 
C     2.2664050    2.3290620   -5.4153250 
C     3.4733980    2.4455579   -4.7108357 
C     3.7666146    1.5635990   -3.6637748 
C     2.8596488    0.5455151   -3.2982822 
C     1.6488627    0.4372798   -4.0228064 
C     1.3546130    1.3181977   -5.0683744 
H     2.0335153    3.0246508   -6.2279784 
H     4.1879892    3.2325478   -4.9716424 
H     4.7101050    1.6630399   -3.1176280 
H     0.9100171   -0.3209525   -3.7408333 
H     0.3999943    1.2288360   -5.5975928 
O    -4.0275164    0.4851572    0.4032834 
O    -2.7076314    2.7837949    2.0511414 
O    -2.6188102    1.3115490   -3.9219651 
O    -1.0973544    0.3025982    5.6018283 
N    -3.3486682    0.9500600   -1.7531092 
N    -1.9356689    1.5359160    3.8338595 
C    -1.7658284    1.0685239    0.0992054 
C    -1.5446834    0.8031857    1.5446780 
C    -0.7686942    1.4958742   -0.8097189 
C    -0.8523858   -0.3262628    2.0459107 
C    -3.0572036    0.8487133   -0.4554333 
C    -2.0704143    1.6929416    2.5162152 
C    -1.0561683    1.5823565   -2.1826669 
C    -0.7118716   -0.5110020    3.4274708 
C     0.9728603    2.3782722    1.4374677 
C     1.7998892    3.0030362   -1.1755565 
C    -1.4058379   -2.0079383   -0.2224392 
C     0.5164830   -2.8810507    1.8712341 
C    -2.3655489    1.2755564   -2.5973557 
C    -1.2693664    0.4667471    4.2771317 
C     1.6191390    1.7218747    2.5003815 
C     3.1857183    3.1285507   -0.9398377 
C    -2.6246055   -2.4397948    0.3418336 
C    -0.1619244   -4.1123011    1.9134950 
C     0.3993890    3.6509111    1.6425260 
C     1.1415315    3.9707265   -1.9574482 
C    -1.2707942   -1.9495672   -1.6233267 
C     1.6754466   -2.6993525    2.6577095 
C     1.6715860    2.3193414    3.7680915 
C     3.9012257    4.2053743   -1.4741958 
C    -3.6742327   -2.8452628   -0.4928890 
C     0.2940912   -5.1327218    2.7608895 
C     0.4548616    4.2420136    2.9093670 
C     1.8692110    5.0358674   -2.5098398 
C    -2.3282002   -2.3407533   -2.4538374 
C     2.1159148   -3.7153037    3.5146036 
C     1.0868934    3.5767274    3.9733433 
C     3.2444737    5.1579369   -2.2685212 
C    -3.5279168   -2.7979427   -1.8885359 
C     1.4198136   -4.9329325    3.5719406 
C    -5.3472258    0.2892093   -0.1304255 
C    -3.2555957    3.6938640    3.0191329 
C    -3.9563944    0.9976199   -4.3485062 
C    -1.6521695    1.3047909    6.4717684 
H    -0.3054716    1.8471825   -2.9278307 
H    -0.1876611   -1.3622066    3.8646876 
H     2.0680960    0.7360504    2.3340452 
H     3.7013474    2.3810973   -0.3245601 
H    -2.7577479   -2.4391679    1.4287015 
H    -1.0348360   -4.2851928    1.2780456 
H    -0.0954505    4.1711261    0.8160725 
H     0.0631054    3.9107345   -2.1271797 
H    -0.3398739   -1.5633817   -2.0534694 
H     2.2302756   -1.7549823    2.5993530 
H     2.1621780    1.7972290    4.5957361 
H     4.9746078    4.2963843   -1.2781335 
H    -4.6164238   -3.1856063   -0.0509453 
H    -0.2345395   -6.0911312    2.7813644 
H     0.0063641    5.2283103    3.0673719 
H     1.3506599    5.7802430   -3.1229336 
H    -2.2195797   -2.2740421   -3.5413559 
H     3.0065764   -3.5594282    4.1320621 
H     1.1277965    4.0438461    4.9628964 
H     3.8042750    5.9962391   -2.6958730 
H    -4.3558847   -3.1060041   -2.5356208 
H     1.7650280   -5.7306417    4.2376957 
H    -5.7244719    1.2205903   -0.5851333 
H    -5.9662522    0.0006662    0.7307764 
H    -5.3430327   -0.5076834   -0.8925718 
H    -3.7225539    4.4955597    2.4297030 
H    -2.4588787    4.0976791    3.6663174 
H    -4.0059741    3.1870681    3.6490197 
H    -4.6828984    1.7033062   -3.9113280 
H    -3.9399990    1.0891012   -5.4436823 
H    -4.2306723   -0.0281871   -4.0477971 
H    -1.2100414    2.2929957    6.2581809 
H    -2.7465678    1.3690260    6.3477980 
H    -1.3971631    0.9775810    7.4894933 
