109
Energy =
C     2.5415439   -2.7212527   -0.5331905 
C     2.9128913   -1.9672415   -1.6844188 
C     3.5031229   -0.6884601   -1.5693747 
H     2.5896721   -2.3103859   -2.6756114 
Pd    1.4767509   -0.7544198   -0.5104132 
P     0.5566822    1.3643890   -0.9233855 
P    -0.0471429   -1.2947116    1.1883395 
H     3.1464045   -2.5887950    0.3748322 
H     3.9414226   -0.4167205   -0.5953145 
C     0.3269053   -6.4115093   -0.6577588 
C     0.1960095   -5.4851058   -1.7065949 
C     0.9122325   -4.2855459   -1.6790530 
C     1.7768278   -3.9819323   -0.6004895 
C     1.8980430   -4.9227182    0.4455117 
C     1.1821519   -6.1258321    0.4156130 
H    -0.2366842   -7.3498792   -0.6799444 
H    -0.4734395   -5.6989988   -2.5463368 
H     0.7850355   -3.5669112   -2.4966341 
H     2.5584164   -4.7027333    1.2911495 
H     1.2913772   -6.8400028    1.2382943 
C     4.7826051    1.8013945   -4.8265124 
C     4.6228992    2.3369802   -3.5385105 
C     4.2089821    1.5170819   -2.4853160 
C     3.9294712    0.1478079   -2.7011218 
C     4.0970117   -0.3787852   -4.0027131 
C     4.5250833    0.4404509   -5.0525692 
H     5.1132220    2.4421727   -5.6502454 
H     4.8186445    3.3984401   -3.3572216 
H     4.0753505    1.9400161   -1.4828910 
H     3.9231665   -1.4432809   -4.1903242 
H     4.6651185    0.0140181   -6.0512558 
O    -4.0338486    0.7298195    1.4008832 
O    -2.4098951    3.2334938    1.9583687 
O    -4.0156378    0.5862817   -3.2177088 
O     0.3019104    1.7376505    5.3886410 
N    -4.0403746    0.6804955   -0.9062407 
N    -1.0733190    2.4868072    3.6854460 
C    -1.9670104    1.0557228    0.3192775 
C    -1.3306883    1.1620661    1.6569720 
C    -1.2837370    1.1814120   -0.9143810 
C    -0.4876538    0.1741637    2.2192398 
C    -3.3670780    0.8278721    0.2349573 
C    -1.5958658    2.2921144    2.4742111 
C    -1.9802950    1.0351496   -2.1225770 
C     0.0627042    0.3601075    3.4950836 
C     0.9218720    2.6884148    0.2867308 
C     0.9370271    2.0507884   -2.5830248 
C    -1.6544907   -1.9713834    0.6375669 
C     0.6706522   -2.4893796    2.3855874 
C    -3.3620957    0.7648993   -2.0540932 
C    -0.2562007    1.5517073    4.1777415 
C     0.1701015    3.8826853    0.3163352 
C     1.0014680    1.1422718   -3.6614828 
C    -2.7164496   -2.1534443    1.5488077 
C    -0.0013065   -3.6498237    2.8109292 
C     1.9772802    2.5042850    1.2017139 
C     1.1649913    3.4203489   -2.8204502 
C    -1.8318986   -2.2948609   -0.7213959 
C     1.9761770   -2.2330205    2.8617974 
C     0.4893899    4.8832653    1.2421897 
C     1.2471634    1.6016349   -4.9602964 
C    -3.9346895   -2.6770635    1.0985128 
C     0.6139091   -4.5247258    3.7195535 
C     2.2810645    3.5032070    2.1368162 
C     1.4192984    3.8738118   -4.1220237 
C    -3.0582779   -2.8032175   -1.1674911 
C     2.5833393   -3.1054522    3.7732574 
C     1.5398415    4.6938091    2.1543305 
C     1.4536843    2.9696417   -5.1929605 
C    -4.1075369   -2.9991492   -0.2573569 
C     1.8999394   -4.2541184    4.2061628 
C    -5.4564071    0.5405753    1.3364261 
C    -2.7386068    4.3549108    2.7939614 
C    -5.4255184    0.3109701   -3.1503353 
C    -0.0212680    2.9516943    6.0884358 
H    -1.5030473    1.1302632   -3.0994765 
H     0.7063797   -0.3740963    3.9814253 
H    -0.6802628    4.0136926   -0.3604092 
H     0.8669296    0.0695844   -3.4756526 
H    -2.5965057   -1.8666466    2.5987128 
H    -0.9957406   -3.8858625    2.4224144 
H     2.5438051    1.5655686    1.1901974 
H     1.1551301    4.1353668   -1.9932752 
H    -1.0110793   -2.1258598   -1.4257509 
H     2.5177801   -1.3437937    2.5157018 
H    -0.0930959    5.8101179    1.2601300 
H     1.2968193    0.8882770   -5.7885968 
H    -4.7568707   -2.8221875    1.8069163 
H     0.0838172   -5.4275643    4.0397956 
H     3.0918185    3.3483070    2.8559503 
H     1.5949643    4.9402808   -4.2971352 
H    -3.1960421   -3.0383118   -2.2277643 
H     3.5916258   -2.8920186    4.1427490 
H     1.7770568    5.4747351    2.8843829 
H     1.6550497    3.3277448   -6.2077064 
H    -5.0660571   -3.3983798   -0.6053003 
H     2.3752023   -4.9396256    4.9152464 
H    -5.7878131    0.4862997    2.3831308 
H    -5.7005623   -0.3918897    0.8006478 
H    -5.9380002    1.3879515    0.8199249 
H    -3.3985032    4.9868554    2.1828100 
H    -1.8282519    4.9056435    3.0841936 
H    -3.2591296    4.0191712    3.7067658 
H    -5.7497842    0.2052065   -4.1951398 
H    -5.6141116   -0.6198865   -2.5882185 
H    -5.9639932    1.1391848   -2.6590942 
H    -1.1064971    3.0194143    6.2755831 
H     0.5315452    2.8949940    7.0366452 
H     0.2959827    3.8334965    5.5055387 
