109
Energy =
C     2.5936410   -2.7140931   -0.6489511 
C     2.9659893   -1.8366419   -1.6928033 
C     3.4889808   -0.5389698   -1.3838858 
H     2.6975594   -2.0841463   -2.7273991 
Pd    1.4624878   -0.7379633   -0.5234825 
P     1.1373329    1.4474881    0.2416266 
P    -0.7100017   -1.4808989   -0.0972064 
H     3.0167739   -2.5010762    0.3459702 
H     4.0983440   -0.4451648   -0.4742858 
C     0.8617386   -6.6349429   -0.8882189 
C     1.1181809   -6.0366509    0.3547493 
C     1.6801696   -4.7575943    0.4102522 
C     1.9917151   -4.0468515   -0.7734107 
C     1.7187032   -4.6594687   -2.0179100 
C     1.1637896   -5.9411543   -2.0713612 
H     0.4291815   -7.6395460   -0.9367700 
H     0.8860664   -6.5705327    1.2819154 
H     1.8829961   -4.2952518    1.3824234 
H     1.9528991   -4.1389983   -2.9510972 
H     0.9641310   -6.4034222   -3.0430293 
C     4.0357605    2.6577655   -4.2152743 
C     4.7484686    2.6405426   -3.0078919 
C     4.5749316    1.5876980   -2.1013128 
C     3.6829995    0.5289747   -2.3831322 
C     2.9706820    0.5593205   -3.6065456 
C     3.1470668    1.6098404   -4.5113189 
H     4.1698678    3.4814182   -4.9239770 
H     5.4432636    3.4518027   -2.7669912 
H     5.1298919    1.5843545   -1.1570516 
H     2.2557455   -0.2372640   -3.8430027 
H     2.5853705    1.6174793   -5.4514284 
O    -3.2134190    0.6149665    2.9006242 
O    -2.9694420    3.0314026    0.9804365 
O     0.6179489    1.2655040    5.4030910 
O    -4.2244656    1.0241293   -2.9888006 
N    -1.3080575    0.9455896    4.1615939 
N    -3.6164608    2.0300192   -0.9963498 
C    -1.2173586    1.0454719    1.7284419 
C    -1.9884424    0.9542656    0.4615942 
C     0.1637300    1.3495040    1.8105813 
C    -1.9300897   -0.1359969   -0.4386261 
C    -1.8942941    0.8781888    2.9653881 
C    -2.8861027    1.9991246    0.1189652 
C     0.7903083    1.4372726    3.0617848 
C    -2.7019767   -0.1242359   -1.6087387 
C     2.7281432    2.2520526    0.6842163 
C     0.2337889    2.6201767   -0.8284812 
C    -1.1522302   -2.8105183   -1.2813361 
C    -1.1080305   -2.0579066    1.5910517 
C     0.0005107    1.2091967    4.2079412 
C    -3.5167315    1.0025303   -1.8435934 
C     3.0816594    3.5365861    0.2298791 
C    -0.0000376    2.2753696   -2.1737292 
C    -0.8400818   -2.5871566   -2.6421578 
C    -0.0639769   -2.1824559    2.5295903 
C     3.6609108    1.5072680    1.4412587 
C    -0.2237574    3.8571611   -0.3266552 
C    -1.7676650   -4.0173556   -0.9032736 
C    -2.4357018   -2.3354006    1.9777458 
C     4.3375773    4.0749045    0.5499465 
C    -0.6916396    3.1589435   -3.0126182 
C    -1.1976732   -3.5290030   -3.6141831 
C    -0.3414668   -2.5897391    3.8405194 
C     4.9084226    2.0528338    1.7669561 
C    -0.9020413    4.7406373   -1.1752299 
C    -2.1038417   -4.9665227   -1.8797383 
C    -2.7047123   -2.7575599    3.2861593 
C     5.2491210    3.3408450    1.3209218 
C    -1.1410495    4.3908056   -2.5142629 
C    -1.8376201   -4.7186948   -3.2336048 
C    -1.6612681   -2.8827350    4.2170855 
C    -3.9245946    0.4839009    4.1419982 
C    -3.9069854    4.0758758    0.6731166 
C    -0.1840679    1.0388169    6.5751195 
C    -5.0558117    2.1721160   -3.2319723 
H     1.8452804    1.6863347    3.1854020 
H    -2.7042210   -0.9417284   -2.3309564 
H     2.3873646    4.1137454   -0.3872486 
H     0.3554312    1.3115521   -2.5528221 
H    -0.3244287   -1.6641844   -2.9361999 
H     0.9600133   -1.9294759    2.2318782 
H     3.4088325    0.4921341    1.7717251 
H    -0.0668033    4.1160638    0.7255513 
H    -1.9799461   -4.2220578    0.1500440 
H    -3.2552163   -2.2020841    1.2638474 
H     4.6035567    5.0729964    0.1869312 
H    -0.8824549    2.8828030   -4.0545617 
H    -0.9697926   -3.3381191   -4.6680128 
H     0.4704084   -2.6682380    4.5707790 
H     5.6186852    1.4702999    2.3627257 
H    -1.2537906    5.7022578   -0.7875046 
H    -2.5781956   -5.9054435   -1.5765904 
H    -3.7354268   -2.9761842    3.5840581 
H     6.2273375    3.7654993    1.5685333 
H    -1.6808190    5.0817976   -3.1703540 
H    -2.1138545   -5.4591799   -3.9913230 
H    -1.8791494   -3.2018965    5.2416875 
H    -3.8575918    1.4155624    4.7286546 
H    -3.5138251   -0.3472529    4.7392171 
H    -4.9664570    0.2797519    3.8572216 
H    -4.9343419    3.6760595    0.6337056 
H    -3.6664469    4.5417804   -0.2970175 
H    -3.8063583    4.8038216    1.4906145 
H    -0.6351511    0.0318600    6.5499616 
H     0.5094907    1.1317052    7.4226313 
H    -0.9901398    1.7884615    6.6494596 
H    -4.4473031    3.0919281   -3.2715635 
H    -5.5346998    1.9821740   -4.2028087 
H    -5.8157406    2.2810253   -2.4395203 
