109
Energy =
C     2.6121169   -2.6736873   -0.4186547 
C     2.9965196   -1.9330376   -1.5745418 
C     3.5538754   -0.6389196   -1.4687592 
H     2.7069767   -2.3017448   -2.5669844 
Pd    1.5039784   -0.7332096   -0.4593349 
P     0.5439097    1.3551230   -0.9402611 
P    -0.0475315   -1.2731110    1.2143794 
H     3.1912479   -2.5117437    0.5012732 
H     3.9602144   -0.3386603   -0.4892121 
C     0.4773521   -6.4111784   -0.5280230 
C     0.3543280   -5.5074103   -1.5973510 
C     1.0452357   -4.2929747   -1.5749469 
C     1.8760941   -3.9515756   -0.4812930 
C     1.9901884   -4.8701793    0.5850105 
C     1.2996061   -6.0881083    0.5604357 
H    -0.0668991   -7.3609811   -0.5459173 
H    -0.2891401   -5.7507380   -2.4492841 
H     0.9239405   -3.5922091   -2.4088025 
H     2.6246351   -4.6209271    1.4422885 
H     1.4026940   -6.7846159    1.3988973 
C     4.8513446    1.8209187   -4.7414894 
C     4.6403418    2.3777658   -3.4699821 
C     4.2218690    1.5675915   -2.4110863 
C     3.9884694    0.1865395   -2.6053903 
C     4.2077308   -0.3614986   -3.8902983 
C     4.6408197    0.4484458   -4.9453227 
H     5.1851705    2.4544156   -5.5695419 
H     4.7993444    3.4481847   -3.3062347 
H     4.0479523    2.0068054   -1.4219523 
H     4.0702755   -1.4343583   -4.0596605 
H     4.8217749    0.0058934   -5.9303117 
O    -4.0790998    0.6702915    1.3026574 
O    -2.5168980    3.2207303    1.8388802 
O    -3.9606878    0.4256846   -3.3101407 
O     0.1582497    1.8564650    5.3516904 
N    -4.0359026    0.5702972   -1.0024396 
N    -1.1989890    2.5396344    3.6068658 
C    -1.9974530    1.0174932    0.2566315 
C    -1.3906886    1.1657714    1.6040562 
C    -1.2914832    1.1315467   -0.9652532 
C    -0.5391683    0.2077840    2.2040716 
C    -3.3901922    0.7574116    0.1488297 
C    -1.6942608    2.3077228    2.3907403 
C    -1.9590076    0.9437667   -2.1840190 
C    -0.0175733    0.4327683    3.4856439 
C     0.8545885    2.7146830    0.2452881 
C     0.9441939    2.0099458   -2.6079578 
C    -1.6280313   -1.9941789    0.6430515 
C     0.6670903   -2.4286293    2.4513553 
C    -3.3357194    0.6444061   -2.1377604 
C    -0.3729907    1.6324647    4.1351932 
C     0.0767853    3.8924699    0.2319707 
C     1.0587155    1.0764956   -3.6606188 
C    -2.7059857   -2.1799653    1.5345506 
C     0.0101833   -3.5952307    2.8833402 
C     1.8952013    2.5752212    1.1849082 
C     1.1395202    3.3789077   -2.8758574 
C    -1.7680875   -2.3501387   -0.7121798 
C     1.9556678   -2.1355646    2.9519483 
C     0.3565340    4.9215524    1.1392134 
C     1.3230018    1.5092299   -4.9649311 
C    -3.9023116   -2.7396459    1.0692176 
C     0.6228203   -4.4399555    3.8217565 
C     2.1592910    3.6025326    2.1011126 
C     1.4122323    3.8060039   -4.1825786 
C    -2.9729505   -2.8948717   -1.1737727 
C     2.5599328   -2.9777003    3.8933189 
C     1.3928126    4.7768946    2.0754329 
C     1.4975846    2.8760949   -5.2283676 
C    -4.0377896   -3.0943794   -0.2827491 
C     1.8912365   -4.1327187    4.3322239 
C    -5.4957279    0.4493526    1.2130303 
C    -2.8835379    4.3534079    2.6428864 
C    -5.3657869    0.1227385   -3.2657941 
C    -0.2021913    3.0789585    6.0177503 
H    -1.4633993    1.0283327   -3.1527444 
H     0.6307007   -0.2774620    4.0005125 
H    -0.7629877    3.9886672   -0.4635972 
H     0.9489194    0.0055991   -3.4498568 
H    -2.6157092   -1.8681186    2.5802676 
H    -0.9699204   -3.8597443    2.4771577 
H     2.4812503    1.6488158    1.2073336 
H     1.0902574    4.1142347   -2.0681270 
H    -0.9355275   -2.1782736   -1.4019124 
H     2.4863381   -1.2416215    2.6011838 
H    -0.2458306    5.8356591    1.1235916 
H     1.4118659    0.7766690   -5.7729625 
H    -4.7367900   -2.8877337    1.7624573 
H     0.1049066   -5.3482245    4.1465222 
H     2.9590135    3.4825983    2.8390261 
H     1.5622739    4.8722008   -4.3815075 
H    -3.0818238   -3.1556390   -2.2313805 
H     3.5546530   -2.7357019    4.2814965 
H     1.5991029    5.5800475    2.7906089 
H     1.7136237    3.2137406   -6.2470961 
H    -4.9794070   -3.5220997   -0.6427543 
H     2.3643621   -4.7945785    5.0648077 
H    -5.8481781    0.4117307    2.2535634 
H    -5.7089143   -0.5000028    0.6939220 
H    -5.9837969    1.2742981    0.6671475 
H    -3.4139263    4.0274567    3.5535292 
H    -3.5445926    4.9579724    2.0058383 
H    -1.9899302    4.9289904    2.9369061 
H    -5.6657051   -0.0123887   -4.3144763 
H    -5.5473847   -0.7993623   -2.6872086 
H    -5.9311430    0.9501557   -2.8043137 
H    -1.2919755    3.1291335    6.1825362 
H     0.3330002    3.0542832    6.9773609 
H     0.1091116    3.9538029    5.4213237 
