109
Energy =
C     3.1761251   -2.1810014   -0.1625536 
C     2.7257798   -2.1867429   -1.5184561 
C     2.9025540   -1.0667541   -2.3618244 
H     2.1041350   -3.0217425   -1.8667751 
Pd    1.7094716   -0.5302365   -0.4876987 
P     0.0240677    0.7809584   -1.4942583 
P     0.9240351   -0.1771661    1.6828185 
H     4.0798390   -1.6002840    0.0735823 
H     3.6993398   -0.3555477   -2.0922949 
C     2.1915613   -5.3023914    2.6375075 
C     1.3117541   -5.0044820    1.5835891 
C     1.6325133   -3.9997160    0.6652156 
C     2.8385040   -3.2679674    0.7780585 
C     3.7133291   -3.5841048    1.8399014 
C     3.3935881   -4.5903286    2.7593537 
H     1.9376297   -6.0827186    3.3621490 
H     0.3610931   -5.5398228    1.4885832 
H     0.9176765   -3.7548114   -0.1280765 
H     4.6526275   -3.0315970    1.9437596 
H     4.0833930   -4.8130763    3.5794435 
C     1.6111231   -0.7160799   -6.4465834 
C     2.6487941    0.0853391   -5.9489773 
C     3.0460422   -0.0311280   -4.6124887 
C     2.4240997   -0.9613586   -3.7493793 
C     1.3754776   -1.7589468   -4.2640052 
C     0.9730110   -1.6348261   -5.5965973 
H     1.2961392   -0.6233053   -7.4910423 
H     3.1468917    0.8091283   -6.6015521 
H     3.8527975    0.6014365   -4.2277470 
H     0.8608773   -2.4758732   -3.6183346 
H     0.1566206   -2.2584397   -5.9753709 
O    -2.7869296    2.1718169    2.6083585 
O    -4.0413837    0.4241622    0.3484096 
O    -1.0944615    5.6091207    0.0246216 
O    -2.6623073   -3.8608213    1.4032122 
N    -1.9740949    3.8975579    1.3075833 
N    -3.3788650   -1.7099373    0.9261803 
C    -1.5669434    1.5781840    0.6872665 
C    -1.7979554    0.1459358    1.0096981 
C    -0.8407701    2.0288812   -0.4421842 
C    -0.8148937   -0.7431362    1.5060227 
C    -2.1166165    2.5881824    1.5176881 
C    -3.0830342   -0.4178889    0.7768735 
C    -0.6917776    3.4009257   -0.6827656 
C    -1.1063907   -2.1110772    1.6438504 
C     0.6009490    1.7404931   -2.9466148 
C    -1.3485708   -0.3117735   -2.0370161 
C     1.7094764   -1.0395161    3.1029028 
C     0.9024097    1.5418184    2.3387170 
C    -1.2752618    4.2930358    0.2404664 
C    -2.4066447   -2.5389697    1.3169246 
C     1.7553629    2.5341524   -2.7670170 
C    -2.5538318    0.2329857   -2.5276859 
C     3.0893649   -0.7887844    3.2616012 
C     1.5697655    2.5742756    1.6554066 
C    -0.0412413    1.7270243   -4.1978147 
C    -1.2166712   -1.7087532   -1.9138291 
C     1.0260708   -1.7861661    4.0808414 
C     0.2924424    1.8030404    3.5837945 
C     2.2266716    3.3438212   -3.8075466 
C    -3.5924140   -0.6187633   -2.9260804 
C     3.7741641   -1.2735319    4.3809555 
C     1.6075168    3.8670013    2.1978854 
C     0.4458042    2.5269517   -5.2419249 
C    -2.2634297   -2.5556729   -2.2984337 
C     1.7235495   -2.2893464    5.1897531 
C     0.3333654    3.0946181    4.1199751 
C     1.5666127    3.3458018   -5.0464016 
C    -3.4490055   -2.0110093   -2.8138239 
C     3.0927159   -2.0329556    5.3446272 
C     0.9867505    4.1278163    3.4273220 
C    -3.3589661    3.1792577    3.4588806 
C    -5.3558230   -0.1172524    0.1388476 
C    -1.6758139    6.5224273    0.9716331 
C    -3.9906159   -4.3007583    1.0689827 
H    -0.1419532    3.8001120   -1.5365545 
H    -0.3648215   -2.8440316    1.9628043 
H     2.2824576    2.5184114   -1.8052505 
H    -2.6856152    1.3188123   -2.5781940 
H     3.6244659   -0.2003067    2.5061933 
H     2.0470639    2.3643287    0.6914382 
H    -0.9098889    1.0847746   -4.3669390 
H    -0.2975961   -2.1215274   -1.4828922 
H    -0.0488595   -1.9662871    3.9946756 
H    -0.2191766    1.0006246    4.1249059 
H     3.1134563    3.9673989   -3.6539308 
H    -4.5240525   -0.1922195   -3.3120264 
H     4.8430258   -1.0662163    4.4968466 
H     2.1148619    4.6704566    1.6544407 
H    -0.0546048    2.5040400   -6.2153081 
H    -2.1579640   -3.6392211   -2.1813150 
H     1.1857645   -2.8757895    5.9419090 
H    -0.1431135    3.2962025    5.0849924 
H     1.9362377    3.9742554   -5.8631941 
H    -4.2685434   -2.6710202   -3.1169799 
H     3.6284675   -2.4211228    6.2170067 
H     1.0159575    5.1369398    3.8514769 
H    -3.8511047    2.6258989    4.2711361 
H    -4.0921964    3.7875993    2.9030818 
H    -2.5727783    3.8421968    3.8577695 
H    -5.9655023    0.7309529   -0.2031661 
H    -5.7593042   -0.5318003    1.0779469 
H    -5.3306146   -0.9126232   -0.6244493 
H    -2.7720834    6.4038427    1.0082886 
H    -1.2641339    6.3503568    1.9808676 
H    -1.4075280    7.5246091    0.6089880 
H    -4.7369344   -3.8335874    1.7335911 
H    -4.2344387   -4.0447002    0.0235774 
H    -3.9781208   -5.3909471    1.2081739 
