75
Energy =
C     0.6223023   -2.2767822   -1.8182348 
C     1.8168282   -1.5543441   -1.5970017 
C     2.4142670   -1.5231151   -0.2976634 
H     2.1926500   -0.8803845   -2.3776160 
Pd    0.3594387   -0.7008184   -0.1844393 
P     0.3908414    0.3968392    1.8631352 
P    -1.7541614    0.2284718   -0.4709340 
H     0.3644022   -3.0495318   -1.0758027 
H     2.3165996   -2.4344526    0.3095621 
C    -1.6435135   -2.5821646   -5.4612297 
C    -2.1082698   -3.1690368   -4.2734154 
C    -1.3481102   -3.0743236   -3.1021673 
C    -0.1163927   -2.3785835   -3.0876227 
C     0.3506721   -1.8165732   -4.2979984 
C    -0.4067913   -1.9164612   -5.4697963 
H    -2.2328540   -2.6590646   -6.3805302 
H    -3.0599644   -3.7104776   -4.2638191 
H    -1.7084154   -3.5421585   -2.1785404 
H     1.3175461   -1.3043194   -4.3304302 
H    -0.0273239   -1.4788072   -6.3987887 
C     5.6520032    1.0724199    0.8650693 
C     4.7852740    1.4567619   -0.1722379 
C     3.7384935    0.6161841   -0.5645585 
C     3.5381317   -0.6351315    0.0657649 
C     4.4212397   -1.0109378    1.1028268 
C     5.4660757   -0.1651106    1.4996709 
H     6.4679988    1.7334329    1.1740722 
H     4.9228097    2.4217771   -0.6711780 
H     3.0495039    0.9464876   -1.3505200 
H     4.2887959   -1.9793837    1.5973386 
H     6.1418723   -0.4772416    2.3026773 
C    -1.6628153    1.6081646   -1.7880182 
C     0.2704891   -0.8485601    3.3037902 
C    -2.1967275    1.1327774    1.0741726 
C    -1.1539044    1.3960243    1.9996061 
C    -0.6141390    2.6326452   -1.3028026 
C    -1.1786182    0.9453178   -3.0936692 
C    -3.0196796    2.3011853   -2.0104238 
C    -0.9263847   -1.7731133    2.9932474 
C     1.5808383   -1.6627188    3.3240250 
C     0.0639564   -0.1570952    4.6653831 
C    -3.2049271   -0.8211391   -0.8915317 
C     1.7791550    1.5407366    2.2420280 
C    -3.4692650    1.7004828    1.2856493 
C    -1.3741027    2.3111079    3.0488291 
C    -3.6887669    2.5717238    2.3612470 
C    -2.6320841    2.9040177    3.2219988 
H     0.3635822    2.1488271   -1.1185017 
H    -0.4718442    3.4032395   -2.0816944 
H    -0.9327590    3.1408729   -0.3763466 
H    -1.8563749    0.1486619   -3.4456896 
H    -0.1754238    0.5067372   -2.9652629 
H    -1.1189119    1.7091026   -3.8899618 
H    -3.3753831    2.8175435   -1.1035960 
H    -2.9005353    3.0671480   -2.7985101 
H    -3.7977327    1.5978715   -2.3531547 
H    -0.7855898   -2.3028024    2.0328116 
H    -1.0221539   -2.5311415    3.7913850 
H    -1.8746260   -1.2092155    2.9454837 
H     2.4620893   -1.0307371    3.5264385 
H     1.7407400   -2.1895760    2.3697953 
H     1.5208966   -2.4214818    4.1248199 
H    -0.9059856    0.3629629    4.7223592 
H     0.0719885   -0.9284822    5.4569586 
H     0.8704226    0.5593290    4.8996947 
H    -3.0158242   -1.3051895   -1.8635469 
H    -4.1403753   -0.2412205   -0.9490901 
H    -3.3034292   -1.6007826   -0.1186917 
H     1.6835762    1.9876177    3.2451325 
H     1.7851594    2.3371221    1.4809183 
H     2.7292537    0.9865499    2.1727961 
H    -4.2952010    1.4759946    0.6037459 
H    -0.5674627    2.5573124    3.7458831 
H    -4.6810670    3.0076452    2.5147278 
H    -2.7920030    3.6113635    4.0419727 
