75
Energy =
C     0.7436989   -2.0889577   -1.9890329 
C     1.8952554   -1.3161046   -1.7164518 
C     2.4985933   -1.3478522   -0.4198501 
H     2.2259615   -0.5644451   -2.4447123 
Pd    0.4002888   -0.6590999   -0.2391441 
P     0.3817626    0.2790305    1.8864507 
P    -1.7682587    0.1584540   -0.4460458 
H     0.5367312   -2.9296536   -1.3069357 
H     2.4588259   -2.3065637    0.1168635 
C    -1.5243627   -2.2535950   -5.6396861 
C    -1.9423509   -2.9595800   -4.5003365 
C    -1.1814411   -2.9077740   -3.3268757 
C     0.0038029   -2.1381347   -3.2607764 
C     0.4253447   -1.4547637   -4.4245501 
C    -0.3326245   -1.5113697   -5.5988729 
H    -2.1140948   -2.2963623   -6.5609516 
H    -2.8574294   -3.5601401   -4.5310513 
H    -1.5045225   -3.4683978   -2.4419303 
H     1.3570891   -0.8802239   -4.4188777 
H     0.0113496   -0.9789889   -6.4915172 
C     5.5880544    1.3377078    0.9272447 
C     5.4804691    0.0462842    1.4652062 
C     4.4838768   -0.8269398    1.0082724 
C     3.5715013   -0.4254922    0.0068033 
C     3.6927486    0.8801192   -0.5259630 
C     4.6917010    1.7485669   -0.0740582 
H     6.3662486    2.0202597    1.2833713 
H     6.1799079   -0.2859114    2.2394072 
H     4.4126559   -1.8366129    1.4272092 
H     2.9788669    1.2282920   -1.2815088 
H     4.7683550    2.7554334   -0.4976774 
C    -1.7750435    1.6367976   -1.6546263 
C     0.3467270   -1.0776023    3.2277907 
C    -2.2518806    0.9138950    1.1653222 
C    -1.2191341    1.1695143    2.1041049 
C    -3.1749884    2.2559773   -1.8203540 
C    -0.7904674    2.6868742   -1.0957314 
C    -1.2594600    1.1072745   -3.0083182 
C     0.1107625   -0.5057813    4.6391213 
C    -0.7960667   -2.0451109    2.8511449 
C     1.7026769   -1.8121549    3.1811045 
C    -3.1544354   -0.9456106   -0.9386890 
C     1.7026103    1.4715311    2.3473766 
C    -3.5548084    1.3846438    1.4245973 
C    -1.4855681    1.9871632    3.2208609 
C    -3.8176441    2.1567620    2.5642814 
C    -2.7757199    2.4871070    3.4435784 
H    -3.5567358    2.6780909   -0.8761320 
H    -3.1105204    3.0856136   -2.5480294 
H    -3.9089078    1.5322107   -2.2142431 
H     0.2172756    2.2543375   -0.9499485 
H    -1.1349529    3.1029522   -0.1332966 
H    -0.7025329    3.5210730   -1.8148577 
H    -1.8875656    0.2976839   -3.4181742 
H    -1.2546861    1.9315534   -3.7441984 
H    -0.2292397    0.7257348   -2.9166267 
H    -0.8878084   -0.0506071    4.7392571 
H     0.1710664   -1.3335147    5.3691618 
H     0.8752017    0.2375804    4.9246856 
H    -0.6317974   -2.4903482    1.8523025 
H    -1.7763199   -1.5365820    2.8501604 
H    -0.8407392   -2.8663402    3.5889265 
H     2.5470517   -1.1466403    3.4282038 
H     1.6935693   -2.6320882    3.9215713 
H     1.8855860   -2.2545189    2.1887824 
H    -2.9418464   -1.3460992   -1.9433469 
H    -4.1239887   -0.4217674   -0.9528942 
H    -3.2003330   -1.7831616   -0.2237008 
H     1.5829942    1.8419387    3.3786484 
H     1.6626553    2.3176834    1.6430805 
H     2.6826616    0.9784721    2.2424639 
H    -4.3715659    1.1621056    0.7309968 
H    -0.6895228    2.2288932    3.9315606 
H    -4.8333130    2.5179709    2.7545035 
H    -2.9712505    3.1193089    4.3155568 
