99
Energy =
C     2.4291090    1.5518031   -1.1148183 
C     1.6706444    1.6791475   -2.2980960 
C     0.4469379    2.4126864   -2.2990201 
H     1.9701635    1.1244620   -3.1957469 
Pd    0.3179148    0.6463748   -0.8872693 
P    -2.0202923    0.7534436   -0.3872085 
P     0.9811839   -1.1984177    0.4824231 
H     2.1970416    2.2524881   -0.2980822 
H     0.3692044    3.2305730   -1.5707885 
C     6.1631992   -0.4892896   -0.5428391 
C     5.5509706   -0.5148125   -1.8087295 
C     4.3449782    0.1582960   -2.0230109 
C     3.7174677    0.8639727   -0.9682481 
C     4.3600341    0.9054661    0.2921248 
C     5.5690808    0.2331618    0.5032068 
H     7.1085603   -1.0170406   -0.3806418 
H     6.0232853   -1.0579823   -2.6336730 
H     3.8881606    0.1310005   -3.0167451 
H     3.8924516    1.4574428    1.1142645 
H     6.0481301    0.2736245    1.4866754 
C    -2.0765771    2.9368364   -5.7510008 
C    -1.2103385    1.8327506   -5.6833229 
C    -0.3893686    1.6466245   -4.5661942 
C    -0.4100350    2.5645922   -3.4898519 
C    -1.2761573    3.6795310   -3.5809466 
C    -2.1036636    3.8615439   -4.6959622 
H    -2.7206445    3.0782570   -6.6247822 
H    -1.1798881    1.1095285   -6.5048833 
H     0.2595770    0.7652929   -4.5211570 
H    -1.2837301    4.4191442   -2.7720128 
H    -2.7637788    4.7336278   -4.7465649 
N    -0.2268802    1.0468373    2.1856516 
C    -2.9604945   -0.4639180   -1.4941854 
C    -2.7084363    2.5033086   -0.5268107 
C    -0.3760069   -2.3934492    1.0273067 
C     2.3538845   -2.1867428   -0.3466057 
C    -2.4237920    0.2838621    1.3485969 
C     1.6895862   -0.5296191    2.0513788 
C    -1.4679810    0.4245291    2.3982448 
C     0.9840210    0.5022026    2.7287413 
C    -4.4170695   -0.1383631   -1.8683848 
C    -2.1459946   -0.7205915   -2.7759370 
C    -4.1778406    2.6706178   -0.0994527 
C    -1.8261371    3.4436389    0.3194461 
C    -0.8391435   -3.2931081   -0.1325488 
C    -0.0695924   -3.1790778    2.3128647 
C     2.7048421   -3.5588470    0.2612538 
C     2.0783589   -2.3109765   -1.8589546 
C    -3.6658222   -0.3278162    1.6391665 
C     2.9205587   -0.9639540    2.5805117 
C    -1.7801792   -0.1027218    3.6714956 
C     1.5106181    1.0402160    3.9125982 
C    -3.9872454   -0.8343978    2.9067109 
C     3.4506025   -0.4363653    3.7732679 
C    -3.0059070   -0.7195271    3.9148375 
C     2.7210520    0.5692802    4.4355668 
C    -5.3336662   -1.4615510    3.1893298 
C     4.7583528   -0.9517528    4.3309304 
H    -2.9452089   -1.3801989   -0.8742592 
H    -2.5955313    2.7530815   -1.5981637 
H    -1.2032581   -1.7032723    1.2569322 
H     3.2240396   -1.5178242   -0.2212875 
H    -0.0960102    1.3222682    1.1977945 
H    -5.0779588   -0.0151270   -0.9963388 
H    -4.8191688   -0.9697869   -2.4744217 
H    -4.4751407    0.7754439   -2.4841817 
H    -1.0868395   -0.9491283   -2.5550565 
H    -2.5792801   -1.5737865   -3.3277078 
H    -2.1665265    0.1589089   -3.4402371 
H    -4.4415026    3.7423960   -0.1516537 
H    -4.3259989    2.3416321    0.9437895 
H    -4.8827270    2.1271406   -0.7423038 
H    -1.9505337    3.2346514    1.3965282 
H    -0.7542368    3.3531989    0.0791137 
H    -2.1265024    4.4916128    0.1431311 
H    -0.1159423   -4.0954314   -0.3520501 
H    -1.7931681   -3.7757893    0.1440807 
H    -1.0071707   -2.7213666   -1.0603694 
H    -0.9771278   -3.7328067    2.6136175 
H     0.2008006   -2.5047515    3.1418274 
H     0.7419731   -3.9121038    2.1791803 
H     2.8907298   -3.5191281    1.3458709 
H     1.9100894   -4.3006158    0.0811842 
H     3.6234019   -3.9352284   -0.2231527 
H     1.8246525   -1.3338901   -2.3063258 
H     1.2491926   -3.0070868   -2.0687436 
H     2.9802959   -2.6953341   -2.3661302 
H    -4.4075626   -0.4318668    0.8418008 
H     3.5012562   -1.7260211    2.0551141 
H    -1.0387606   -0.0245424    4.4720237 
H     0.9620106    1.8479187    4.4064589 
H    -3.2101390   -1.1170837    4.9154472 
H     3.1137457    1.0048854    5.3609173 
H    -5.8621050   -1.7240063    2.2576234 
H    -5.2299341   -2.3776447    3.7964475 
H    -5.9813123   -0.7668428    3.7564857 
H     5.3786680   -1.4138451    3.5448550 
H     5.3399343   -0.1434095    4.8054946 
H     4.5755475   -1.7210623    5.1045464 
