99
Energy =
C     0.5616848    1.1310299   -3.2810845 
C     1.6503246    1.3895234   -2.4245274 
C     2.4725667    0.3319096   -1.9187712 
H     1.8047335    2.4066479   -2.0430421 
Pd    0.3749013    0.0598443   -1.2121635 
P     0.9776057   -1.5203063    0.4526487 
P    -1.9287545    0.4570774   -0.6831295 
H     0.5271084    0.1416619   -3.7627243 
H     2.6254966   -0.5379023   -2.5723031 
C    -2.1694019    3.9775709   -4.9925200 
C    -2.2609255    2.6131024   -5.3097934 
C    -1.3479553    1.7057227   -4.7620001 
C    -0.3334076    2.1351113   -3.8721637 
C    -0.2304415    3.5195840   -3.5967313 
C    -1.1415676    4.4266913   -4.1462680 
H    -2.8818929    4.6912348   -5.4183904 
H    -3.0398266    2.2579143   -5.9922419 
H    -1.4138853    0.6447319   -5.0261481 
H     0.5661602    3.8950222   -2.9479218 
H    -1.0468651    5.4935275   -3.9192154 
C     5.6413762    1.0697333    0.9060593 
C     4.4810890    1.8603579    0.9336663 
C     3.4416033    1.6169464    0.0313888 
C     3.5442086    0.5860223   -0.9329142 
C     4.7135716   -0.2075753   -0.9413648 
C     5.7509941    0.0306699   -0.0298189 
H     6.4525520    1.2585765    1.6164153 
H     4.3790271    2.6597070    1.6740463 
H     2.5293331    2.2213963    0.0895547 
H     4.8184958   -1.0024298   -1.6892162 
H     6.6536782   -0.5884772   -0.0605308 
N    -0.0433517    1.0179238    1.7618806 
C    -0.4315492   -2.4628481    1.2837673 
C     2.2202170   -2.7602212   -0.2233682 
C    -2.4283191    2.2216384   -1.1282526 
C    -3.0323440   -0.8229875   -1.5403539 
C     1.8093417   -0.6208549    1.8300108 
C    -2.3269415    0.3542742    1.1144975 
C     1.1460370    0.5126897    2.3767917 
C    -1.3324076    0.5898532    2.1109093 
C    -1.0287240   -3.5343140    0.3548460 
C    -0.1115574   -3.0000066    2.6887977 
C     2.5579708   -3.9645276    0.6781596 
C     1.8174124   -3.2410935   -1.6337050 
C    -3.8240955    2.6548319   -0.6481138 
C    -1.3612053    3.1668588   -0.5414555 
C    -4.4336224   -0.3721349   -1.9878998 
C    -2.2736210   -1.4353193   -2.7342446 
C     3.0644118   -0.9871841    2.3488005 
C    -3.6170371   -0.0536630    1.5266756 
C     1.7201091    1.1936124    3.4597432 
C    -1.6615174    0.3528739    3.4644422 
C     3.6475520   -0.3069714    3.4342296 
C    -3.9535584   -0.2709054    2.8704311 
C     2.9445224    0.7757733    3.9949329 
C    -2.9377388   -0.0705505    3.8302989 
C     4.9871661   -0.7425989    3.9822605 
C    -5.3472567   -0.6899617    3.2805342 
H    -1.1910877   -1.6732478    1.4008165 
H     3.1209261   -2.1262475   -0.3243235 
H    -2.3791720    2.2592851   -2.2318397 
H    -3.1333509   -1.5990891   -0.7581254 
H     0.0793863    1.0771692    0.7365673 
H    -1.2099557   -3.1482715   -0.6620581 
H    -1.9975207   -3.8681814    0.7664348 
H    -0.3814513   -4.4233112    0.2744268 
H    -1.0397112   -3.4035835    3.1317921 
H     0.6335376   -3.8113868    2.6722168 
H     0.2567219   -2.2012276    3.3529322 
H     2.8158217   -3.6785344    1.7093701 
H     3.4236230   -4.5007104    0.2494918 
H     1.7199055   -4.6789948    0.7237961 
H     1.5104203   -2.4050616   -2.2851590 
H     2.6752586   -3.7495883   -2.1082798 
H     0.9843386   -3.9617693   -1.5957801 
H    -3.9066467    2.5767802    0.4498420 
H    -3.9798379    3.7136495   -0.9227039 
H    -4.6394182    2.0741903   -1.1012791 
H    -0.3407672    2.8803359   -0.8491960 
H    -1.3996801    3.1698582    0.5623278 
H    -1.5454172    4.1964067   -0.8932941 
H    -4.3722734    0.4342190   -2.7390665 
H    -4.9513568   -1.2264094   -2.4594178 
H    -5.0633106   -0.0233027   -1.1543496 
H    -1.2597256   -1.7730505   -2.4522041 
H    -2.1713308   -0.7021903   -3.5511041 
H    -2.8321693   -2.3033382   -3.1269426 
H     3.6240163   -1.8116036    1.9004588 
H    -4.3890303   -0.2246190    0.7700349 
H     1.2077831    2.0761462    3.8547850 
H    -0.8936331    0.5007366    4.2293287 
H     3.3782785    1.3248118    4.8379835 
H    -3.1545805   -0.2446879    4.8903724 
H     5.6113444   -1.1979738    3.1953813 
H     5.5398718    0.1077302    4.4151190 
H     4.8567056   -1.4940987    4.7836194 
H    -5.9537692   -0.9871810    2.4088965 
H    -5.3190014   -1.5397472    3.9852337 
H    -5.8752216    0.1372753    3.7904850 
