99
Energy =
C     0.1116539    2.0797226   -2.5482075 
C     0.0046930    0.7728302   -3.1142713 
C    -1.0694388   -0.0723583   -2.7681884 
H     0.8114084    0.3934977   -3.7528122 
Pd    0.2013575    0.5288857   -0.9353005 
P     0.0193387   -1.6109821    0.1848387 
P     0.7289801    2.0187274    0.8240225 
H    -0.8297443    2.5797277   -2.2820592 
H    -1.9401739    0.3950857   -2.2838625 
C     3.3189694    4.7959336   -3.4993495 
C     2.0631005    5.2823070   -3.1069800 
C     1.0278106    4.3893185   -2.8014978 
C     1.2281157    2.9916198   -2.8689771 
C     2.4992285    2.5178215   -3.2709123 
C     3.5291332    3.4094443   -3.5873024 
H     4.1283542    5.4919009   -3.7419275 
H     1.8850880    6.3612495   -3.0503801 
H     0.0401925    4.7773792   -2.5260297 
H     2.6915392    1.4399794   -3.3118419 
H     4.5062175    3.0226076   -3.8948249 
C    -1.9117098   -4.0097606   -4.2612931 
C    -0.7294599   -3.3601388   -4.6587078 
C    -0.4425494   -2.0728940   -4.1966805 
C    -1.3298877   -1.4094205   -3.3152461 
C    -2.5279230   -2.0645176   -2.9457674 
C    -2.8143339   -3.3526866   -3.4117339 
H    -2.1325680   -5.0180516   -4.6262670 
H    -0.0316498   -3.8609794   -5.3376286 
H     0.4819809   -1.5849088   -4.5191963 
H    -3.2284989   -1.5588814   -2.2727906 
H    -3.7442893   -3.8449320   -3.1101825 
N    -1.9283652    0.5441611    1.0833816 
C     0.8391182   -1.9230789    1.8645756 
C     0.5245705   -3.0136492   -0.9761870 
C     2.5248970    2.3760628    1.2397034 
C    -0.0108229    3.7429393    0.6117179 
C    -1.7991305   -1.8253004    0.4461811 
C    -0.0201118    1.4077730    2.3943960 
C    -2.5765507   -0.6803081    0.7717861 
C    -1.2273670    0.6671155    2.3319151 
C     0.0908354   -2.9425177    2.7395653 
C     2.3335340   -2.2693905    1.7272214 
C     1.7986825   -2.6179485   -1.7496481 
C     0.6553297   -4.4435644   -0.4143838 
C     3.2928468    1.0725007    1.4960981 
C     3.1957460    3.1967415    0.1252404 
C    -1.5316400    3.6947930    0.3942343 
C     0.3424836    4.6915893    1.7702229 
C    -2.4737454   -3.0304895    0.1687656 
C     0.6256661    1.5394923    3.6421309 
C    -3.9807110   -0.7614458    0.7359336 
C    -1.7142410    0.0333969    3.4891867 
C    -3.8772882   -3.1311817    0.1602166 
C     0.1441666    0.9148161    4.8070650 
C    -4.6215700   -1.9654050    0.4239204 
C    -1.0318136    0.1441642    4.7034285 
C    -4.5605794   -4.4479900   -0.1320643 
C     0.8568854    1.0717267    6.1308735 
H     0.7658668   -0.9381073    2.3537828 
H    -0.3145472   -3.0065868   -1.6938487 
H     2.5147304    2.9790177    2.1665039 
H     0.4638253    4.1070175   -0.3173307 
H    -2.5098034    1.3609444    0.8884080 
H    -0.9664906   -2.6644021    2.8766959 
H     0.5638562   -2.9760584    3.7377531 
H     0.1295049   -3.9595730    2.3158434 
H     2.8536425   -1.6159317    1.0105798 
H     2.8249147   -2.1490330    2.7088691 
H     2.4845440   -3.3135273    1.4112708 
H     1.9527156   -3.3193349   -2.5881788 
H     2.6950428   -2.6561465   -1.1080174 
H     1.7193153   -1.5971595   -2.1636461 
H     1.5468816   -4.5574916    0.2219866 
H    -0.2178272   -4.7691089    0.1719842 
H     0.7648919   -5.1437123   -1.2618023 
H     3.3131813    0.4550261    0.5811827 
H     4.3359674    1.3012029    1.7770849 
H     2.8453372    0.4770127    2.3079351 
H     4.2408758    3.4090966    0.4112237 
H     2.6989981    4.1622037   -0.0641502 
H     3.2114362    2.6363483   -0.8228475 
H    -1.8141564    2.9938656   -0.4098016 
H    -2.0534651    3.4052533    1.3257357 
H    -1.9010022    4.6972735    0.1152306 
H     1.4270430    4.8645506    1.8605101 
H    -0.0314966    4.3014492    2.7338511 
H    -0.1335281    5.6738788    1.5988491 
H    -1.8996217   -3.9217426   -0.0929765 
H     1.5507660    2.1199694    3.7149837 
H    -4.5722379    0.1303767    0.9725724 
H    -2.6372848   -0.5517356    3.4253688 
H    -5.7164585   -2.0010900    0.4026994 
H    -1.4263309   -0.3647710    5.5898769 
H    -4.9171352   -4.9215132    0.8018054 
H    -5.4414448   -4.3082469   -0.7822083 
H    -3.8748647   -5.1573297   -0.6243728 
H     0.2948283    1.7522555    6.7972402 
H     0.9450607    0.1040722    6.6543272 
H     1.8687092    1.4892584    6.0009074 
