99
Energy =
C     0.4575335    1.1741914   -3.3083218 
C     1.5358526    1.3899989   -2.4306748 
C     2.3678944    0.3246399   -1.9639923 
H     1.6942671    2.3945383   -2.0197619 
Pd    0.2713417    0.0090266   -1.2518169 
P     0.9744115   -1.5642003    0.4041002 
P    -2.0106850    0.4746479   -0.6625677 
H     0.4152521    0.2046664   -3.8281021 
H     2.5150855   -0.5299747   -2.6387285 
C    -2.0754869    4.1779527   -5.0558151 
C    -2.1432293    2.8432150   -5.4834780 
C    -1.3062058    1.8805185   -4.9086612 
C    -0.3891058    2.2257298   -3.8875700 
C    -0.3115023    3.5837569   -3.4911346 
C    -1.1485385    4.5444872   -4.0647374 
H    -2.7297163    4.9334174   -5.5025921 
H    -2.8460952    2.5529730   -6.2709782 
H    -1.3576981    0.8422345   -5.2529537 
H     0.4042279    3.8948646   -2.7250217 
H    -1.0753217    5.5883236   -3.7427310 
C     5.6142728    1.0917647    0.7632531 
C     4.4399537    1.8579809    0.8399142 
C     3.3737829    1.6002382   -0.0264680 
C     3.4624507    0.5799781   -1.0034537 
C     4.6469610   -0.1888256   -1.0615773 
C     5.7113039    0.0629686   -0.1854390 
H     6.4468962    1.2917213    1.4451430 
H     4.3481806    2.6487153    1.5908088 
H     2.4523610    2.1853697    0.0704771 
H     4.7422964   -0.9732549   -1.8216125 
H     6.6250064   -0.5365283   -0.2546606 
N    -0.0885829    0.9170393    1.7481960 
C    -0.3736594   -2.5598588    1.2845401 
C     2.2554085   -2.7585261   -0.2858732 
C    -2.4122845    2.2769410   -1.0350289 
C    -3.3463995   -0.4958664   -1.5528182 
C     1.8180758   -0.6417607    1.7623773 
C    -2.3889875    0.3137876    1.1369689 
C     1.1204326    0.4506229    2.3455938 
C    -1.3728794    0.5021463    2.1216160 
C    -0.8148313   -3.7796963    0.4557079 
C    -0.0321338   -2.9441548    2.7339818 
C     2.6872525   -3.9283732    0.6224831 
C     1.8549019   -3.2767110   -1.6831751 
C    -3.8689105    2.6539383   -0.7235739 
C    -1.4222121    3.1970556   -0.3014791 
C    -3.2623830   -0.2375748   -3.0653336 
C    -3.2579785   -1.9956284   -1.2425881 
C     3.0968421   -0.9655360    2.2515018 
C    -3.6866242   -0.0501824    1.5671201 
C     1.6810754    1.1305382    3.4369827 
C    -1.6849875    0.2575536    3.4774357 
C     3.6673621   -0.2884071    3.3449661 
C    -4.0068331   -0.2759139    2.9136571 
C     2.9285599    0.7495851    3.9443834 
C    -2.9686380   -0.1280860    3.8586623 
C     5.0328333   -0.6776985    3.8633631 
C    -5.4073738   -0.6522274    3.3421918 
H    -1.2145122   -1.8456500    1.3101491 
H     3.1173834   -2.0777860   -0.4127219 
H    -2.2348923    2.3711657   -2.1211559 
H    -4.3103923   -0.1034776   -1.1814733 
H     0.0167007    0.9703594    0.7207946 
H    -0.9602230   -3.5365034   -0.6081172 
H    -1.7767823   -4.1533758    0.8476608 
H    -0.0886425   -4.6052186    0.5247175 
H    -0.9036726   -3.4567864    3.1792859 
H     0.8288138   -3.6308463    2.7893459 
H     0.1890206   -2.0598081    3.3518307 
H     3.5862631   -4.4020320    0.1888725 
H     1.9064596   -4.7029413    0.6832712 
H     2.9334511   -3.6172245    1.6489291 
H     1.4580757   -2.4719318   -2.3259900 
H     2.7390591   -3.7114865   -2.1822117 
H     1.0888276   -4.0663281   -1.6201208 
H    -4.0996651    2.5138202    0.3470446 
H    -4.0288510    3.7195596   -0.9672661 
H    -4.5920003    2.0704298   -1.3180446 
H    -1.5869716    4.2429542   -0.6142610 
H    -0.3743670    2.9366936   -0.5347600 
H    -1.5540553    3.1411629    0.7931190 
H    -2.2870347   -0.5715084   -3.4618309 
H    -4.0520650   -0.8109115   -3.5821417 
H    -3.3927964    0.8253439   -3.3244536 
H    -3.2822507   -2.2028161   -0.1603857 
H    -2.3272695   -2.4172811   -1.6579912 
H    -4.1068705   -2.5240821   -1.7110572 
H     3.6862451   -1.7507887    1.7731867 
H    -4.4808237   -0.1790680    0.8247461 
H     1.1405050    1.9829435    3.8595757 
H    -0.9016664    0.3751210    4.2319220 
H     3.3522236    1.2946031    4.7951935 
H    -3.1740313   -0.3104566    4.9196225 
H     5.6357129   -1.1632222    3.0782727 
H     5.5871803    0.2016863    4.2321173 
H     4.9435886   -1.3876971    4.7070108 
H    -6.0457533   -0.8903754    2.4752493 
H    -5.3985640   -1.5296194    4.0129704 
H    -5.8881494    0.1752384    3.8963900 
