99
Energy =
C     1.4563486    2.2137300   -2.0198032 
C     0.3936701    1.6505241   -2.7893839 
C    -0.9374044    1.6891217   -2.3285205 
H     0.6307893    1.1002738   -3.7081587 
Pd    0.4760038    0.5271222   -0.8796347 
P    -1.1755176   -1.1182211   -0.2768688 
P     1.9461038    0.5866970    1.0083600 
H     1.1973957    3.0531931   -1.3606954 
H    -1.1616928    2.3862413   -1.5068851 
C     5.5655367    2.1913875   -3.3098633 
C     5.0869186    3.2048801   -2.4660759 
C     3.7479352    3.2031766   -2.0551723 
C     2.8609029    2.1835108   -2.4704714 
C     3.3577049    1.1732903   -3.3280212 
C     4.6924989    1.1797969   -3.7445628 
H     6.6114312    2.1917109   -3.6329960 
H     5.7564796    4.0051444   -2.1342798 
H     3.3747336    4.0142773   -1.4192638 
H     2.6999493    0.3586445   -3.6513877 
H     5.0590770    0.3870190   -4.4048348 
C    -4.4674333    0.2099750   -4.2714412 
C    -4.5535493    0.9177415   -3.0631638 
C    -3.3925202    1.4057179   -2.4529393 
C    -2.1211122    1.1896966   -3.0360017 
C    -2.0528520    0.5011877   -4.2718608 
C    -3.2133501    0.0128520   -4.8775940 
H    -5.3737480   -0.1741220   -4.7506449 
H    -5.5271510    1.0892211   -2.5929370 
H    -3.4620159    1.9473511   -1.5038250 
H    -1.0877214    0.3406171   -4.7613095 
H    -3.1446475   -0.5201978   -5.8313592 
N    -1.0238939    1.0620982    1.8458907 
C    -1.8608155   -1.9738824   -1.8105108 
C    -0.6722526   -2.4338983    0.9863987 
C     3.5153283   -0.4397712    0.9359284 
C     2.5564748    2.3423034    1.3333785 
C    -2.6196735   -0.2597720    0.4958472 
C     1.1245368    0.1194057    2.5944697 
C    -2.3665756    0.7019447    1.5090323 
C    -0.2687216    0.3576971    2.7949382 
C    -0.7321468   -2.2482069   -2.8241091 
C    -2.7336734   -3.2283429   -1.6038749 
C    -1.8333017   -2.9801700    1.8329150 
C     0.1533434   -3.5582836    0.3345217 
C     3.1975815   -1.9306629    0.7606727 
C     4.4536236    0.0592997   -0.1740928 
C     1.3771353    3.3034226    1.5615508 
C     3.5597537    2.4167811    2.4966992 
C    -3.9555760   -0.5035928    0.1197929 
C     1.8472222   -0.5445118    3.6125217 
C    -3.4395176    1.3565375    2.1340421 
C    -0.8811514   -0.1320825    3.9691486 
C    -5.0383664    0.1418600    0.7450500 
C     1.2476234   -1.0157587    4.7905561 
C    -4.7591027    1.0693978    1.7678238 
C    -0.1397214   -0.8078932    4.9372326 
C    -6.4622169   -0.1601701    0.3345229 
C     2.0618766   -1.6960492    5.8681657 
H    -2.4986590   -1.1780854   -2.2350865 
H    -0.0026270   -1.8664587    1.6553881 
H     4.0119721   -0.2877787    1.9113390 
H     3.0674423    2.6171685    0.3930771 
H    -0.4771337    1.2640608    0.9918687 
H    -0.1020650   -1.3543699   -2.9795041 
H    -1.1716327   -2.5304014   -3.7967780 
H    -0.0786351   -3.0735033   -2.4959743 
H    -3.2221446   -3.4792068   -2.5623029 
H    -2.1325835   -4.1008843   -1.3032705 
H    -3.5253720   -3.0898997   -0.8515014 
H    -1.4253134   -3.6699493    2.5935040 
H    -2.5628945   -3.5411502    1.2258327 
H    -2.3665963   -2.1745027    2.3621087 
H    -0.4829859   -4.2645088   -0.2219108 
H     0.9205443   -3.1702893   -0.3533970 
H     0.6702930   -4.1320128    1.1235327 
H     2.7328002   -2.1088840   -0.2240808 
H     4.1318661   -2.5175927    0.8053400 
H     2.5189203   -2.3100307    1.5416930 
H     5.3877202   -0.5289108   -0.1486988 
H     4.7247190    1.1222565   -0.0686546 
H     3.9968781   -0.0738348   -1.1675745 
H     0.6501737    3.2802634    0.7307929 
H     0.8358102    3.0605871    2.4919376 
H     1.7545170    4.3376474    1.6487754 
H     4.4742443    1.8315045    2.3052375 
H     3.1052399    2.0618688    3.4384654 
H     3.8668943    3.4673810    2.6469579 
H    -4.1771207   -1.2054281   -0.6873257 
H     2.9197502   -0.7199201    3.4819431 
H    -3.2192402    2.1081923    2.8981371 
H    -1.9541367    0.0257163    4.1127491 
H    -5.5827055    1.5914071    2.2673979 
H    -0.6496515   -1.1768037    5.8343225 
H    -6.9670265   -0.7796421    1.0988764 
H    -7.0524810    0.7663813    0.2265489 
H    -6.4999631   -0.7098071   -0.6204052 
H     2.3867594   -0.9684246    6.6359059 
H     1.4744047   -2.4745084    6.3838980 
H     2.9694626   -2.1669068    5.4539194 
