99
Energy =
C     2.3633893    1.5240040   -1.1075617 
C     1.6315751    1.6358800   -2.3067590 
C     0.3864492    2.3332658   -2.3464711 
H     1.9761726    1.1026372   -3.2011802 
Pd    0.2476113    0.5619875   -0.9494488 
P    -2.0703833    0.8323425   -0.4037176 
P     0.9662173   -1.2580651    0.4510300 
H     2.0858727    2.2039962   -0.2877372 
H     0.2536590    3.1481810   -1.6221370 
C     6.1574281   -0.3818498   -0.4762950 
C     5.5589135   -0.4425523   -1.7479666 
C     4.3318738    0.1839160   -1.9804431 
C     3.6697308    0.8785381   -0.9388156 
C     4.2974384    0.9546681    0.3273520 
C     5.5275309    0.3280110    0.5569342 
H     7.1193024   -0.8739579   -0.2997213 
H     6.0582476   -0.9774191   -2.5623038 
H     3.8847372    0.1276973   -2.9773124 
H     3.8025213    1.4978148    1.1391834 
H     5.9937487    0.3925737    1.5452987 
C    -1.9525090    2.7692622   -5.9363592 
C    -1.1136891    1.6525239   -5.7817429 
C    -0.3536918    1.4972160   -4.6183046 
C    -0.4091480    2.4597910   -3.5823777 
C    -1.2458208    3.5854685   -3.7601202 
C    -2.0128839    3.7367801   -4.9221881 
H    -2.5506252    2.8862305   -6.8456756 
H    -1.0605741    0.8946757   -6.5701970 
H     0.2695686    0.6036438   -4.5008874 
H    -1.2781385    4.3591049   -2.9842401 
H    -2.6524206    4.6175543   -5.0407067 
N    -0.2707978    0.9473922    2.1439095 
C    -3.3403147    0.0055199   -1.5103510 
C    -2.5536280    2.6562527   -0.4257291 
C    -0.3602906   -2.4791194    1.0242424 
C     2.3730909   -2.2169605   -0.3578227 
C    -2.4943403    0.2983378    1.3123483 
C     1.6745663   -0.5711347    2.0148310 
C    -1.5280795    0.3655579    2.3601409 
C     0.9338382    0.4223424    2.7072909 
C    -3.3053281    0.5920931   -2.9302390 
C    -3.1475206   -1.5165293   -1.5372080 
C    -4.0500716    2.8789176   -0.1497419 
C    -1.6866515    3.4682643    0.5518572 
C    -0.6968310   -3.5040587   -0.0742164 
C    -0.0679534   -3.1491279    2.3765906 
C     2.7789922   -3.5633341    0.2753434 
C     2.1220326   -2.3718119   -1.8708535 
C    -3.7678259   -0.2446243    1.6049823 
C     2.9159653   -0.9754627    2.5452108 
C    -1.8573641   -0.1670265    3.6264887 
C     1.4262224    0.9467956    3.9129790 
C    -4.1066877   -0.7574184    2.8654854 
C     3.4159535   -0.4595879    3.7548745 
C    -3.1133782   -0.7199040    3.8675005 
C     2.6435721    0.5002132    4.4383523 
C    -5.4818335   -1.3196603    3.1477125 
C     4.7447112   -0.9253399    4.3067106 
H    -4.3212448    0.2380000   -1.0576411 
H    -2.3227647    2.9724537   -1.4590468 
H    -1.2371364   -1.8215610    1.1536452 
H     3.2143055   -1.5115316   -0.2341659 
H    -0.1279229    1.1961115    1.1506362 
H    -3.4689808    1.6815869   -2.9539302 
H    -4.0993964    0.1204983   -3.5354363 
H    -2.3401592    0.3864580   -3.4195438 
H    -3.1584805   -1.9591348   -0.5280505 
H    -3.9581645   -1.9834466   -2.1238373 
H    -2.1894482   -1.7716692   -2.0212099 
H    -4.2661633    3.9623386   -0.1629804 
H    -4.3338571    2.4919558    0.8447444 
H    -4.6955312    2.4060976   -0.9083277 
H    -1.8862484    3.1808843    1.5983645 
H    -0.6065946    3.3358293    0.3644614 
H    -1.9168546    4.5431180    0.4454625 
H     0.0688783   -4.2924356   -0.1481649 
H    -1.6541357   -3.9963968    0.1705763 
H    -0.8059712   -3.0357552   -1.0648439 
H    -0.9355365   -3.7715998    2.6602738 
H     0.0872793   -2.4060024    3.1750182 
H     0.8173597   -3.8049332    2.3335709 
H     2.9253362   -3.5061248    1.3650415 
H     2.0345912   -4.3502814    0.0766279 
H     3.7331100   -3.8909363   -0.1745688 
H     1.8270144   -1.4125017   -2.3322880 
H     1.3300488   -3.1095873   -2.0810591 
H     3.0471933   -2.7182566   -2.3636378 
H    -4.5270731   -0.2865924    0.8178706 
H     3.5282019   -1.7043255    2.0096090 
H    -1.1089905   -0.1393653    4.4239133 
H     0.8479747    1.7258254    4.4189890 
H    -3.3328907   -1.1247558    4.8619597 
H     3.0108342    0.9221700    5.3804170 
H    -6.0745306   -1.4232962    2.2237378 
H    -5.4174224   -2.3125950    3.6270640 
H    -6.0446562   -0.6625886    3.8364819 
H     5.2925753   -1.5422302    3.5756714 
H     5.3830217   -0.0682460    4.5850580 
H     4.6002788   -1.5316843    5.2197201 
