99
Energy =
C     0.4806700    1.1607848   -3.3115438 
C     1.5478207    1.3881257   -2.4236643 
C     2.3815604    0.3307731   -1.9407698 
H     1.6960653    2.3962867   -2.0178020 
Pd    0.2830527    0.0043339   -1.2459554 
P     0.9824344   -1.5583352    0.4191011 
P    -2.0055188    0.4606695   -0.6778088 
H     0.4487429    0.1872417   -3.8244872 
H     2.5436510   -0.5261422   -2.6091548 
C    -2.0507711    4.1381048   -5.1054504 
C    -2.1008523    2.8016972   -5.5302388 
C    -1.2652072    1.8474759   -4.9394782 
C    -0.3665531    2.2032924   -3.9056898 
C    -0.3067341    3.5629687   -3.5116343 
C    -1.1428049    4.5150472   -4.1007552 
H    -2.7042956    4.8868379   -5.5644300 
H    -2.7888115    2.5035307   -6.3278698 
H    -1.3031907    0.8077015   -5.2811806 
H     0.3940237    3.8819327   -2.7349752 
H    -1.0835912    5.5602701   -3.7803722 
C     5.5910458    1.1449787    0.8165694 
C     4.4071805    1.8976991    0.8783535 
C     3.3530739    1.6242958    0.0020893 
C     3.4634597    0.6013490   -0.9698576 
C     4.6568717   -0.1545130   -1.0122568 
C     5.7093064    0.1132123   -0.1264637 
H     6.4143996    1.3574771    1.5058856 
H     4.2986479    2.6902984    1.6250427 
H     2.4240188    2.1992102    0.0870307 
H     4.7688307   -0.9412202   -1.7676667 
H     6.6304216   -0.4761128   -0.1838170 
N    -0.1099775    0.9147488    1.7502877 
C    -0.3689436   -2.5599194    1.2868951 
C     2.2762373   -2.7466328   -0.2573068 
C    -2.4083264    2.2610754   -1.0582518 
C    -3.3296762   -0.5150136   -1.5796059 
C     1.8076912   -0.6292441    1.7839330 
C    -2.4018213    0.3027195    1.1182753 
C     1.0960469    0.4578663    2.3603663 
C    -1.3959742    0.4958723    2.1127405 
C    -0.7964759   -3.7806204    0.4521988 
C    -0.0392048   -2.9436470    2.7391723 
C     2.7066936   -3.9118616    0.6574478 
C     1.8905946   -3.2704973   -1.6568698 
C    -3.8685926    2.6351954   -0.7609540 
C    -1.4272378    3.1859950   -0.3186605 
C    -3.2308115   -0.2591993   -3.0916842 
C    -3.2405295   -2.0139968   -1.2656147 
C     3.0848418   -0.9420082    2.2838648 
C    -3.7023174   -0.0646132    1.5359888 
C     1.6412596    1.1427437    3.4562669 
C    -1.7202783    0.2511437    3.4654933 
C     3.6402259   -0.2595298    3.3819941 
C    -4.0352448   -0.2890064    2.8798884 
C     2.8874722    0.7721130    3.9746758 
C    -3.0066563   -0.1379207    3.8345555 
C     5.0041322   -0.6387033    3.9119543 
C    -5.4407856   -0.6622944    3.2944734 
H    -1.2132610   -1.8495565    1.3050752 
H     3.1351572   -2.0609461   -0.3783461 
H    -2.2213872    2.3526676   -2.1430044 
H    -4.2983977   -0.1244620   -1.2187823 
H     0.0048073    0.9661259    0.7238284 
H    -0.9312424   -3.5365682   -0.6128692 
H    -1.7610255   -4.1587751    0.8333076 
H    -0.0676239   -4.6032335    0.5278868 
H    -0.9119615   -3.4617810    3.1756487 
H     0.8252597   -3.6251843    2.8024643 
H     0.1706971   -2.0584197    3.3597275 
H     3.6080259   -4.3859048    0.2290765 
H     1.9269427   -4.6874367    0.7186906 
H     2.9486699   -3.5958229    1.6834005 
H     1.4794646   -2.4729360   -2.2998030 
H     2.7846579   -3.6867733   -2.1539823 
H     1.1402411   -4.0753519   -1.5970563 
H    -4.1083643    2.4978955    0.3080485 
H    -4.0293120    3.6995777   -1.0095286 
H    -4.5848709    2.0477563   -1.3597780 
H    -1.5926010    4.2306855   -0.6351968 
H    -0.3766008    2.9282938   -0.5424520 
H    -1.5679477    3.1323501    0.7749338 
H    -2.2504415   -0.5908791   -3.4775204 
H    -4.0134138   -0.8358216   -3.6155653 
H    -3.3615966    0.8028188   -3.3543402 
H    -3.2727524   -2.2190650   -0.1831974 
H    -2.3058107   -2.4346499   -1.6728617 
H    -4.0846925   -2.5450995   -1.7395983 
H     3.6847742   -1.7225706    1.8109463 
H    -4.4885566   -0.1976428    0.7858628 
H     1.0904338    1.9911589    3.8735917 
H    -0.9445520    0.3709534    4.2274357 
H     3.2992200    1.3209111    4.8288763 
H    -3.2216596   -0.3206848    4.8935234 
H     5.6314195   -1.0818979    3.1207823 
H     5.5325194    0.2373920    4.3236897 
H     4.9150432   -1.3824080    4.7261189 
H    -6.0488003   -0.9749067    2.4291880 
H    -5.4365379   -1.4877653    4.0276781 
H    -5.9532125    0.1939203    3.7718266 
