99
Energy =
C     1.9106242    1.9983108   -1.9114552 
C     0.7090561    1.8182413   -2.6592510 
C    -0.5375627    2.1881224   -2.1104199 
H     0.7434253    1.2942086   -3.6223390 
Pd    0.5140227    0.5688624   -0.8463583 
P    -1.4759816   -0.6216523   -0.2570418 
P     2.0052109   -0.1849725    0.8685027 
H     1.9119468    2.8205417   -1.1841213 
H    -0.5163147    2.8590509   -1.2378755 
C     5.8428652    0.9496599   -3.3236680 
C     5.6734147    1.9354931   -2.3397017 
C     4.3889120    2.2665183   -1.8909394 
C     3.2451387    1.6137185   -2.4077528 
C     3.4335887    0.6272912   -3.4042590 
C     4.7162092    0.3023172   -3.8579201 
H     6.8457182    0.6915408   -3.6785571 
H     6.5440437    2.4566752   -1.9283443 
H     4.2619974    3.0555978   -1.1407635 
H     2.5702968    0.0928513   -3.8153522 
H     4.8400304   -0.4646975   -4.6294974 
C    -4.4347263    1.8979883   -3.8888476 
C    -4.2617053    2.4765847   -2.6221814 
C    -2.9807411    2.5800008   -2.0684359 
C    -1.8475864    2.0979232   -2.7662034 
C    -2.0336631    1.5466368   -4.0568050 
C    -3.3141766    1.4442154   -4.6075759 
H    -5.4356061    1.8150870   -4.3246372 
H    -5.1267898    2.8467228   -2.0625088 
H    -2.8505645    3.0207366   -1.0744448 
H    -1.1746155    1.1922250   -4.6343001 
H    -3.4424741    1.0139893   -5.6060729 
N    -0.5681268    1.2067555    2.0345986 
C    -2.4488518   -1.0998588   -1.7980030 
C    -1.2707202   -2.1557608    0.8247916 
C     2.7844510   -1.8330019    0.3511740 
C     3.3145423    1.0989653    1.3071813 
C    -2.5587603    0.5143062    0.7167140 
C     1.1679420   -0.4960769    2.4802885 
C    -1.9744641    1.2815087    1.7604739 
C    -0.0364913    0.1811423    2.8338520 
C    -1.4854592   -1.5576620   -2.9119201 
C    -3.6029782   -2.1064103   -1.6240226 
C    -2.5143856   -2.5440254    1.6409126 
C    -0.6789325   -3.3340837    0.0307126 
C     2.7763840   -1.9395862   -1.1854364 
C     4.1866205   -2.1778997    0.8827554 
C     2.6072176    2.4361925    1.6074214 
C     4.2246570    0.7334530    2.4938128 
C    -3.9281677    0.6921477    0.4352318 
C     1.6597148   -1.5022086    3.3448608 
C    -2.7716832    2.1709976    2.4974672 
C    -0.7167416   -0.2175647    4.0065193 
C    -4.7354371    1.5766613    1.1737743 
C     0.9966869   -1.8886007    4.5182598 
C    -4.1358045    2.3085714    2.2172921 
C    -0.2139861   -1.2291753    4.8221156 
C    -6.2043721    1.7396466    0.8537710 
C     1.5580885   -2.9564454    5.4295839 
H    -2.8774737   -0.1299435   -2.1074159 
H    -0.5019201   -1.8242368    1.5406133 
H     2.0566826   -2.5583759    0.7611474 
H     3.9162804    1.1968902    0.3846675 
H    -0.0170256    1.3503002    1.1715894 
H    -0.6528733   -0.8449970   -3.0456611 
H    -2.0347304   -1.6250326   -3.8670020 
H    -1.0537325   -2.5498071   -2.6987388 
H    -4.1716372   -2.1584574   -2.5696022 
H    -3.2314658   -3.1208608   -1.4071088 
H    -4.3072504   -1.8263767   -0.8252265 
H    -2.2406808   -3.3564235    2.3379369 
H    -3.3401161   -2.9080731    1.0088054 
H    -2.8816323   -1.6966684    2.2428553 
H    -1.4237842   -3.8077116   -0.6296959 
H     0.1806259   -3.0278662   -0.5885057 
H    -0.3277973   -4.1058813    0.7382615 
H     3.5134320   -1.2527746   -1.6334589 
H     3.0420469   -2.9679867   -1.4884421 
H     1.7864212   -1.6943881   -1.6129881 
H     4.4630217   -3.1839588    0.5201680 
H     4.2478900   -2.1941825    1.9821127 
H     4.9427893   -1.4711623    0.5000340 
H     1.9163996    2.7423550    0.8051767 
H     2.0291438    2.3721577    2.5460238 
H     3.3606339    3.2342697    1.7302620 
H     4.8570872   -0.1436076    2.3037128 
H     3.6299912    0.5487427    3.4053192 
H     4.8957493    1.5865666    2.7008735 
H    -4.3914985    0.1426158   -0.3876773 
H     2.5873637   -2.0208055    3.0854830 
H    -2.2971249    2.7652236    3.2842531 
H    -1.6558014    0.2793842    4.2671573 
H    -4.7385475    3.0094391    2.8054400 
H    -0.7719036   -1.5111979    5.7222246 
H    -6.8319793    1.3622811    1.6816212 
H    -6.4637028    2.8037251    0.7105817 
H    -6.4831854    1.1900460   -0.0600900 
H     1.9578018   -2.5117144    6.3600018 
H     0.7791907   -3.6812146    5.7249235 
H     2.3783761   -3.5120686    4.9453134 
