99
Energy =
C     0.4685539    1.1884718   -3.2741789 
C     1.5704941    1.4569882   -2.4378115 
C     2.4244329    0.4091948   -1.9654638 
H     1.7126481    2.4714537   -2.0447044 
Pd    0.3478458    0.0848423   -1.2191489 
P     1.0170914   -1.5064618    0.4099352 
P    -1.9514541    0.4278085   -0.6365557 
H     0.4437093    0.2057730   -3.7698647 
H     2.5803213   -0.4480581   -2.6347287 
C    -2.3552440    4.0033876   -4.8846130 
C    -2.4274789    2.6417381   -5.2185775 
C    -1.4849273    1.7452596   -4.7039467 
C    -0.4590515    2.1825320   -3.8311425 
C    -0.3768006    3.5649091   -3.5388514 
C    -1.3174954    4.4612194   -4.0553296 
H    -3.0907316    4.7085797   -5.2847154 
H    -3.2145983    2.2804528   -5.8882805 
H    -1.5364025    0.6867800   -4.9810465 
H     0.4266982    3.9472020   -2.9026749 
H    -1.2383691    5.5265657   -3.8156647 
C     5.6372759    1.1701641    0.8028960 
C     4.4625765    1.9371089    0.8661787 
C     3.4091446    1.6856996   -0.0175624 
C     3.5115069    0.6706917   -0.9986619 
C     4.6957641   -0.0992614   -1.0430444 
C     5.7473551    0.1466836   -0.1499598 
H     6.4594626    1.3651109    1.4987925 
H     4.3606249    2.7238367    1.6199704 
H     2.4866225    2.2709789    0.0684296 
H     4.8004409   -0.8812335   -1.8044048 
H     6.6610627   -0.4540239   -0.2083412 
N    -0.0259538    0.9921353    1.7764246 
C    -0.3544369   -2.4890757    1.2573519 
C     2.2692081   -2.7111489   -0.3106695 
C    -2.4954474    2.1881426   -1.0452564 
C    -3.0472022   -0.8625151   -1.4886305 
C     1.8600617   -0.6096828    1.7822092 
C    -2.3090988    0.2916372    1.1673374 
C     1.1860347    0.5024694    2.3590400 
C    -1.2985813    0.5332504    2.1460505 
C    -0.9504668   -3.5591921    0.3261511 
C     0.0069906   -3.0396851    2.6470686 
C     2.6508461   -3.9210763    0.5653378 
C     1.8451506   -3.1799814   -1.7188440 
C    -3.8894332    2.5861032   -0.5305059 
C    -1.4355588    3.1462803   -0.4664129 
C    -4.4657196   -0.4333211   -1.9017515 
C    -2.3014499   -1.4446716   -2.7055695 
C     3.1329487   -0.9577334    2.2691793 
C    -3.5817656   -0.1482304    1.6003983 
C     1.7692081    1.1795609    3.4395055 
C    -1.5942860    0.2708292    3.5026020 
C     3.7252392   -0.2812204    3.3519813 
C    -3.8853139   -0.3913365    2.9475658 
C     3.0127732    0.7790565    3.9429074 
C    -2.8537013   -0.1836770    3.8888271 
C     5.0845733   -0.6973572    3.8655345 
C    -5.2612762   -0.8447288    3.3804075 
H    -1.1268122   -1.7167609    1.4023707 
H     3.1545578   -2.0575858   -0.4218285 
H    -2.4699939    2.2427185   -2.1489358 
H    -3.1173083   -1.6505148   -0.7149544 
H     0.0738978    1.0680008    0.7497319 
H    -1.1622903   -3.1624388   -0.6806510 
H    -1.9028383   -3.9186814    0.7541611 
H    -0.2873402   -4.4334340    0.2183833 
H    -0.9029748   -3.4683258    3.1040166 
H     0.7675615   -3.8355019    2.6023793 
H     0.3737515   -2.2432631    3.3148149 
H     2.9261467   -3.6447038    1.5946588 
H     3.5170838   -4.4335376    0.1097030 
H     1.8283030   -4.6527857    0.6191863 
H     1.5079921   -2.3411088   -2.3514716 
H     2.7020754   -3.6649510   -2.2189869 
H     1.0270920   -3.9172359   -1.6734419 
H    -3.9480861    2.4901656    0.5676016 
H    -4.0714632    3.6455534   -0.7857369 
H    -4.7022284    1.9960900   -0.9760292 
H    -0.4161328    2.8850162   -0.7991736 
H    -1.4511305    3.1325896    0.6378280 
H    -1.6476294    4.1767880   -0.7991717 
H    -4.4352104    0.3839396   -2.6429994 
H    -4.9763757   -1.2912419   -2.3743457 
H    -5.0848573   -0.1079303   -1.0510125 
H    -1.2754776   -1.7656734   -2.4488035 
H    -2.2305656   -0.6996464   -3.5149385 
H    -2.8509024   -2.3186729   -3.0978041 
H     3.6993100   -1.7641421    1.7971811 
H    -4.3660159   -0.3239795    0.8576054 
H     1.2478679    2.0458866    3.8579571 
H    -0.8135694    0.4237004    4.2533732 
H     3.4532608    1.3248202    4.7845930 
H    -3.0445039   -0.3770641    4.9505753 
H     5.6279732    0.1570869    4.3020193 
H     4.9862244   -1.4650378    4.6560452 
H     5.7020675   -1.1259152    3.0585505 
H    -5.8794788   -1.1430921    2.5174136 
H    -5.2008994   -1.7029083    4.0727862 
H    -5.7955017   -0.0354479    3.9121820 
