99
Energy =
C    -0.6424008    0.5413751   -3.0961657 
C     0.4828968    1.4132585   -2.9464625 
C     1.8014856    0.9136425   -2.9060970 
H     0.3018624    2.4728206   -2.7262129 
Pd    0.4858502    0.0242898   -1.2340749 
P     1.9994968    0.3048833    0.6111528 
P    -1.2658935   -1.3513011   -0.3723425 
H    -0.5123383   -0.3466125   -3.7292029 
H     1.9622440   -0.1095158   -3.2817573 
C    -4.6838453    1.9929399   -2.7391946 
C    -3.6629738    2.5637354   -1.9619581 
C    -2.3519857    2.0896796   -2.0652912 
C    -2.0269394    1.0418398   -2.9601083 
C    -3.0669616    0.4713028   -3.7283291 
C    -4.3824832    0.9415035   -3.6178726 
H    -5.7111634    2.3611789   -2.6539735 
H    -3.8937360    3.3690967   -1.2578272 
H    -1.5737941    2.5198486   -1.4244361 
H    -2.8340601   -0.3331507   -4.4358299 
H    -5.1723315    0.4936055   -4.2299180 
C     5.4396283    3.1139637   -2.2777174 
C     5.4643740    1.7236559   -2.4693828 
C     4.2722091    1.0298581   -2.7059219 
C     3.0276335    1.7050540   -2.7345022 
C     3.0260552    3.1122125   -2.5834767 
C     4.2181320    3.8053653   -2.3528582 
H     6.3698359    3.6609731   -2.0938359 
H     6.4151144    1.1814836   -2.4441821 
H     4.2972240   -0.0527440   -2.8764501 
H     2.0888513    3.6724284   -2.6472134 
H     4.1977910    4.8937831   -2.2366785 
N    -0.8504024    0.9921925    1.5039433 
C     3.5487678   -0.7238238    0.3375934 
C     2.5971614    2.0944581    0.7507552 
C    -2.0554004   -2.3738567   -1.7416762 
C    -0.8375613   -2.5094419    1.0611003 
C     1.2516903   -0.0339360    2.2535431 
C    -2.5990362   -0.2566029    0.2868023 
C    -0.1072987    0.3319277    2.4932519 
C    -2.2318980    0.7376668    1.2345410 
C     4.8306087   -0.3845565    1.1181725 
C     3.2072550   -2.2227633    0.3502991 
C     1.4877282    3.0963600    0.3827184 
C     3.1666897    2.4275153    2.1419403 
C    -0.9915067   -3.0223111   -2.6533440 
C    -3.1033291   -3.4208176   -1.3114433 
C    -2.0189616   -2.8406245    1.9883886 
C    -0.1054611   -3.7740712    0.5773805 
C     1.9706378   -0.6879101    3.2781358 
C    -3.9462400   -0.3444413   -0.1099144 
C    -0.6918286   -0.0001585    3.7342203 
C    -3.2201909    1.5486182    1.8106038 
C     1.3952643   -1.0188482    4.5143875 
C    -4.9435754    0.4698763    0.4577928 
C     0.0437223   -0.6645465    4.7152752 
C    -4.5626290    1.4009303    1.4428628 
C     2.1932509   -1.7081891    5.5982942 
C    -6.3854808    0.3353458    0.0245611 
H     3.7431547   -0.4385193   -0.7136703 
H     3.3981010    2.1555824   -0.0105502 
H    -2.5640507   -1.5834527   -2.3242756 
H    -0.1130549   -1.9101792    1.6358158 
H    -0.3305527    1.0539434    0.6125350 
H     5.6492227   -1.0205654    0.7356544 
H     4.7454671   -0.5759878    2.2003530 
H     5.1348831    0.6638843    0.9704461 
H     4.0882770   -2.8097764    0.0365037 
H     2.9033467   -2.5743744    1.3507428 
H     2.3843486   -2.4394490   -0.3514114 
H     1.0023046    2.8400326   -0.5736210 
H     1.9190548    4.1080222    0.2858943 
H     0.7082334    3.1300415    1.1627920 
H     3.9497308    1.7284992    2.4717091 
H     3.6058189    3.4412256    2.1198331 
H     2.3662504    2.4183126    2.9012782 
H    -0.1591656   -2.3331265   -2.8772688 
H    -0.5632258   -3.9286559   -2.1963181 
H    -1.4576664   -3.3210641   -3.6089455 
H    -3.8640468   -3.0208488   -0.6240611 
H    -2.6291150   -4.2874305   -0.8234526 
H    -3.6242041   -3.7950431   -2.2111303 
H    -2.7900038   -3.4447349    1.4831024 
H    -1.6412972   -3.4232150    2.8477265 
H    -2.4958490   -1.9302724    2.3849573 
H     0.3728685   -4.2643152    1.4433500 
H     0.6854816   -3.5471716   -0.1549623 
H    -0.7961718   -4.5039236    0.1246667 
H     3.0149871   -0.9599593    3.1045307 
H    -4.2440632   -1.0455720   -0.8926818 
H    -1.7382360    0.2630073    3.9153163 
H    -2.9148408    2.3193527    2.5248617 
H    -0.4430073   -0.9109400    5.6657984 
H    -5.3202280    2.0470142    1.9000234 
H     1.6371314   -2.5620428    6.0238355 
H     3.1565626   -2.0836639    5.2148445 
H     2.4110565   -1.0145196    6.4316707 
H    -6.9420699   -0.3250843    0.7157857 
H    -6.8959632    1.3131292    0.0231976 
H    -6.4612234   -0.0966055   -0.9869410 
