99
Energy =
C    -2.5105008   -2.3584919   -0.6926254 
C    -1.7034255   -2.0824076   -1.8145900 
C    -0.3367708   -2.5046158   -1.8767719 
H    -2.0907485   -1.4311598   -2.6083389 
Pd   -0.6160767   -1.0976037   -0.1673445 
P     1.7123193   -0.7260379    0.1061950 
P    -1.5399091    0.5390016    1.3175436 
H    -2.1525338   -3.1318982    0.0042952 
H    -0.0822622   -3.4489152   -1.3760063 
C    -6.6201495   -1.2507745   -0.0796230 
C    -5.9341830   -2.0224200    0.8715902 
C    -4.6050852   -2.3939623    0.6429039 
C    -3.9239368   -1.9903070   -0.5311872 
C    -4.6439486   -1.2486986   -1.4978964 
C    -5.9731639   -0.8795868   -1.2703082 
H    -7.6602015   -0.9574572    0.0952341 
H    -6.4395365   -2.3419932    1.7886922 
H    -4.0798782   -3.0094705    1.3810707 
H    -4.1650611   -0.9551631   -2.4364970 
H    -6.5122798   -0.3034269   -2.0292736 
C     2.2200335   -1.4413963   -5.1782812 
C     1.2136241   -0.5561156   -4.7590806 
C     0.3907491   -0.8865033   -3.6784311 
C     0.5436418   -2.1192514   -2.9999311 
C     1.5676111   -2.9947821   -3.4268920 
C     2.3986594   -2.6585148   -4.5041076 
H     2.8665475   -1.1793943   -6.0218524 
H     1.0810188    0.4043135   -5.2664462 
H    -0.3671038   -0.1691231   -3.3435160 
H     1.6937643   -3.9606047   -2.9235782 
H     3.1785518   -3.3562473   -4.8267131 
N     0.3603345    1.8277517   -0.8208095 
C    -3.2079106    1.1593227    0.6888487 
C    -1.6679326   -0.1603801    3.0741275 
C     2.2565616    0.1810296    1.6705100 
C     2.6634646   -2.3442547   -0.0177704 
C    -0.5489634    2.0880450    1.4554652 
C     2.2912584    0.3474007   -1.2762549 
C     0.3169389    2.5126351    0.4024727 
C     1.5765243    1.5525730   -1.5236237 
C    -3.7939226    2.3621756    1.4480145 
C    -3.0374678    1.5190803   -0.8004816 
C    -2.8434452    0.3146374    3.9455816 
C    -1.6479325   -1.7005380    3.0163450 
C     2.1616165   -0.7177042    2.9158072 
C     3.6065433    0.9094318    1.5607972 
C     4.1643369   -2.2947497    0.3319766 
C     1.9626595   -3.4646116    0.7799322 
C    -0.5688966    2.8300239    2.6584574 
C     3.3839193    0.0260950   -2.1016609 
C     1.1599833    3.6232522    0.6270608 
C     2.0154743    2.4217016   -2.5324247 
C     0.2515377    3.9467958    2.8778597 
C     3.8291679    0.8932472   -3.1171005 
C     1.1289375    4.3164930    1.8363755 
C     3.1400332    2.1059840   -3.3046431 
C     0.1803901    4.7343989    4.1667027 
C     5.0227178    0.5265085   -3.9689188 
H    -3.8845242    0.2896368    0.7770132 
H    -0.7182876    0.1816444    3.5272364 
H     1.4756498    0.9523768    1.7651354 
H     2.5553058   -2.5734071   -1.0944547 
H    -0.2507274    0.9932982   -0.8186717 
H    -4.0177785    2.1448257    2.5015137 
H    -4.7410243    2.6593102    0.9628558 
H    -3.1092014    3.2268987    1.4070453 
H    -4.0219575    1.7572528   -1.2382505 
H    -2.3851474    2.4018729   -0.9219576 
H    -2.6011753    0.6867679   -1.3791666 
H    -2.8418744    1.4023195    4.1183972 
H    -2.7802679   -0.1778572    4.9323111 
H    -3.8120125    0.0345171    3.4964721 
H    -1.5352453   -2.1113972    4.0352505 
H    -2.5907716   -2.0894001    2.5982204 
H    -0.8179319   -2.0816664    2.3940109 
H     2.9834724   -1.4512586    2.9631599 
H     2.2299057   -0.0878285    3.8203352 
H     1.2070787   -1.2680012    2.9600202 
H     3.7516030    1.5211102    2.4692855 
H     3.6306612    1.5882685    0.6928523 
H     4.4577852    0.2141544    1.4841756 
H     4.3199824   -2.1710142    1.4161409 
H     4.6311907   -3.2526621    0.0403224 
H     4.7056505   -1.4859793   -0.1824638 
H     2.3740534   -4.4441961    0.4785058 
H     0.8734641   -3.4806291    0.6035235 
H     2.1264213   -3.3552337    1.8643527 
H    -1.2387951    2.5180331    3.4658301 
H     3.9054275   -0.9257609   -1.9756972 
H     1.8505499    3.9319477   -0.1630783 
H     1.4421083    3.3338176   -2.7239426 
H     1.8000640    5.1718387    1.9741957 
H     3.4637040    2.7968772   -4.0909193 
H    -0.1932091    4.1152780    4.9998582 
H     1.1697243    5.1323675    4.4495760 
H    -0.5027467    5.5987390    4.0635402 
H     5.1013023   -0.5662498   -4.0957637 
H     4.9608426    0.9886172   -4.9680626 
H     5.9610376    0.8774345   -3.4995867 
