99
Energy =
C    -2.4026638   -2.5238921   -0.6053411 
C    -1.6233157   -2.2772522   -1.7552334 
C    -0.2382210   -2.6338872   -1.8105046 
H    -2.0461931   -1.6817596   -2.5741792 
Pd   -0.5908934   -1.1750515   -0.1490828 
P     1.7350919   -0.7201296    0.1486198 
P    -1.7071877    0.5184666    1.1357949 
H    -2.0072730   -3.2501322    0.1226607 
H     0.0687845   -3.5489447   -1.2862663 
C    -6.5094372   -1.4561159    0.0785567 
C    -5.7689912   -2.1314464    1.0613160 
C    -4.4430177   -2.4997206    0.8069950 
C    -3.8207383   -2.1832699   -0.4251120 
C    -4.5953214   -1.5416035   -1.4205629 
C    -5.9215834   -1.1787302   -1.1676796 
H    -7.5473649   -1.1674615    0.2726787 
H    -6.2291209   -2.3798013    2.0231537 
H    -3.8742962   -3.0459681    1.5684406 
H    -4.1620428   -1.3241405   -2.4009445 
H    -6.5051774   -0.6811937   -1.9489708 
C     2.2616471   -1.4565216   -5.1170934 
C     1.2238216   -0.6133485   -4.6880732 
C     0.4169432   -0.9846219   -3.6086695 
C     0.6190740   -2.2162512   -2.9403810 
C     1.6739276   -3.0491001   -3.3773938 
C     2.4877154   -2.6722178   -4.4542884 
H     2.8962371   -1.1628853   -5.9592864 
H     1.0551280    0.3468615   -5.1852037 
H    -0.3644499   -0.2983736   -3.2622180 
H     1.8396992   -4.0124002   -2.8809298 
H     3.2927095   -3.3368021   -4.7850669 
N     0.3414284    1.8259291   -0.7333029 
C    -3.1853838    1.2391822    0.2009007 
C    -2.4213957   -0.2279471    2.7058439 
C     2.2600965    0.1703320    1.7337873 
C     2.7489333   -2.2990386   -0.0046744 
C    -0.6646133    1.9844746    1.5030328 
C     2.2909737    0.3876216   -1.2203162 
C     0.2632837    2.4476027    0.5216915 
C     1.5667038    1.5924660   -1.4344603 
C    -3.6276794    2.6084410    0.7490520 
C    -2.9103572    1.3408367   -1.3104146 
C    -1.2943325   -0.7333052    3.6213083 
C    -3.5319538    0.5205930    3.4632452 
C     2.3116214   -0.7844999    2.9400940 
C     3.5442935    1.0058265    1.5990205 
C     4.2557699   -2.1930542    0.3080882 
C     2.1153936   -3.4588793    0.7933860 
C    -0.7177704    2.6413874    2.7520612 
C     3.3756162    0.0941690   -2.0674187 
C     1.1124666    3.5274792    0.8455766 
C     1.9914025    2.4933719   -2.4213843 
C     0.1245818    3.7147830    3.0797530 
C     3.8044549    0.9893373   -3.0649777 
C     1.0456094    4.1385127    2.0975201 
C     3.1100758    2.2052489   -3.2119288 
C     0.0381378    4.4058605    4.4220732 
C     4.9870351    0.6521490   -3.9440560 
H    -3.9818281    0.4890230    0.3674619 
H    -2.9016995   -1.1158660    2.2526976 
H     1.4203059    0.8642386    1.9003961 
H     2.6262267   -2.5211925   -1.0809975 
H    -0.2485524    0.9781861   -0.7779054 
H    -3.8147218    2.6046266    1.8333327 
H    -4.5622169    2.9153662    0.2457087 
H    -2.8608897    3.3746002    0.5428462 
H    -3.8486230    1.5747078   -1.8431904 
H    -2.1838915    2.1418577   -1.5289651 
H    -2.5121714    0.3977035   -1.7204032 
H    -0.6132917   -1.4006990    3.0665842 
H    -1.7238482   -1.3051762    4.4625792 
H    -0.6950894    0.0917502    4.0422844 
H    -3.8934074   -0.1283116    4.2813566 
H    -3.1888722    1.4632398    3.9201225 
H    -4.3946216    0.7392306    2.8141003 
H     3.2145587   -1.4165000    2.9296062 
H     2.3370628   -0.1869676    3.8682840 
H     1.4300803   -1.4427640    2.9923250 
H     3.4747055    1.7334192    0.7749141 
H     4.4354950    0.3785533    1.4342468 
H     3.6970960    1.5723527    2.5350232 
H     4.4355089   -2.0834794    1.3896681 
H     4.7534017   -3.1252148   -0.0147001 
H     4.7507129   -1.3533018   -0.2030438 
H     1.0172837   -3.4855870    0.6871031 
H     2.3472173   -3.3864719    1.8680611 
H     2.5200516   -4.4202863    0.4305440 
H    -1.4336643    2.2977467    3.5032406 
H     3.9015673   -0.8588867   -1.9764790 
H     1.8357774    3.8749872    0.1018509 
H     1.4101291    3.4065198   -2.5818585 
H     1.7240601    4.9706763    2.3173757 
H     3.4237410    2.9192350   -3.9815018 
H    -0.5820914    3.8341665    5.1323328 
H     1.0388760    4.5382790    4.8697673 
H    -0.4084530    5.4126447    4.3214418 
H     5.1425275   -0.4376182   -4.0055325 
H     4.8494912    1.0411144   -4.9670288 
H     5.9141747    1.1029128   -3.5428846 
