99
Energy =
C    -2.4278510   -2.4934488   -0.6244668 
C    -1.6511508   -2.2410852   -1.7750365 
C    -0.2696066   -2.6092607   -1.8400597 
H    -2.0721522   -1.6328189   -2.5855216 
Pd   -0.6037286   -1.1659811   -0.1602856 
P     1.7278186   -0.7361481    0.1350201 
P    -1.6994753    0.5225499    1.1475656 
H    -2.0360251   -3.2314553    0.0935745 
H     0.0316212   -3.5326021   -1.3271209 
C    -6.5230259   -1.3998657    0.0878826 
C    -5.7842375   -2.0921457    1.0600287 
C    -4.4623159   -2.4682449    0.7962561 
C    -3.8422892   -2.1429493   -0.4346776 
C    -4.6154417   -1.4836817   -1.4196640 
C    -5.9377551   -1.1130837   -1.1574400 
H    -7.5578391   -1.1051306    0.2893502 
H    -6.2425796   -2.3475762    2.0208666 
H    -3.8951245   -3.0277325    1.5491796 
H    -4.1842390   -1.2585986   -2.3992445 
H    -6.5203410   -0.6021040   -1.9307704 
C     2.2283674   -1.4155137   -5.1421466 
C     1.1988840   -0.5688259   -4.7001739 
C     0.3927345   -0.9455212   -3.6221257 
C     0.5870961   -2.1861298   -2.9682910 
C     1.6336241   -3.0225926   -3.4182551 
C     2.4468019   -2.6402992   -4.4936941 
H     2.8624637   -1.1176159   -5.9832135 
H     1.0361902    0.3981062   -5.1861483 
H    -0.3819487   -0.2569266   -3.2654694 
H     1.7932281   -3.9926867   -2.9331388 
H     3.2453017   -3.3076013   -4.8346001 
N     0.3533691    1.8318078   -0.7164738 
C    -3.1746431    1.2673051    0.2270042 
C    -2.4142353   -0.2346486    2.7121435 
C     2.2684171    0.1310790    1.7278340 
C     2.7247942   -2.3236182   -0.0396469 
C    -0.6407314    1.9737738    1.5265746 
C     2.2891422    0.3810731   -1.2240397 
C     0.2876689    2.4383473    0.5466490 
C     1.5739284    1.5936732   -1.4246551 
C    -3.6014733    2.6346079    0.7920756 
C    -2.9050239    1.3828231   -1.2843062 
C    -1.2883723   -0.7623270    3.6163519 
C    -3.5134728    0.5164090    3.4834398 
C     2.3158233   -0.8374861    2.9232986 
C     3.5604737    0.9548912    1.5961188 
C     4.2339115   -2.2373514    0.2680903 
C     2.0821872   -3.4854898    0.7481958 
C    -0.6814160    2.6167134    2.7835332 
C     3.3686154    0.0869190   -2.0774024 
C     1.1498562    3.5053955    0.8792954 
C     2.0020660    2.4997271   -2.4052573 
C     0.1743901    3.6763729    3.1201981 
C     3.8011115    0.9875977   -3.0684884 
C     1.0954856    4.1019973    2.1386017 
C     3.1155559    2.2098867   -3.2025439 
C     0.1072684    4.3485357    4.4731833 
C     4.9786616    0.6489598   -3.9537303 
H    -3.9775050    0.5229496    0.3887969 
H    -2.9058563   -1.1121200    2.2508577 
H     1.4365168    0.8315591    1.9059882 
H     2.5955655   -2.5325495   -1.1178358 
H    -0.2458810    0.9910461   -0.7690798 
H    -3.7839046    2.6206123    1.8770664 
H    -4.5351197    2.9560037    0.2961991 
H    -2.8282055    3.3956062    0.5909776 
H    -3.8434159    1.6304550   -1.8106004 
H    -2.1726034    2.1799071   -1.4973331 
H    -2.5165896    0.4407672   -1.7059467 
H    -0.6166658   -1.4299053    3.0505719 
H    -1.7199021   -1.3398070    4.4527513 
H    -0.6789149    0.0515585    4.0443283 
H    -3.8777970   -0.1381940    4.2957140 
H    -3.1585061    1.4501022    3.9495165 
H    -4.3768629    0.7514801    2.8410276 
H     3.2119183   -1.4788185    2.9013551 
H     2.3521749   -0.2504218    3.8577826 
H     1.4276359   -1.4869433    2.9728672 
H     3.4940451    1.6928287    0.7810265 
H     4.4442800    0.3204955    1.4191032 
H     3.7241559    1.5086453    2.5379119 
H     4.7361228   -1.3977725   -0.2361938 
H     4.4191191   -2.1410825    1.3499919 
H     4.7199928   -3.1714561   -0.0664732 
H     2.4748217   -4.4470553    0.3727861 
H     0.9833804   -3.4991366    0.6465653 
H     2.3194095   -3.4277239    1.8225718 
H    -1.3981486    2.2725015    3.5336202 
H     3.8875147   -0.8708898   -1.9966679 
H     1.8727268    3.8545173    0.1358888 
H     1.4274652    3.4188405   -2.5553592 
H     1.7835062    4.9245477    2.3648915 
H     3.4319846    2.9281084   -3.9670178 
H     1.1032481    4.3898110    4.9492087 
H    -0.2518631    5.3902327    4.3815975 
H    -0.5757807    3.8163731    5.1558355 
H     5.1178043   -0.4417652   -4.0349386 
H     4.8473899    1.0585659   -4.9693950 
H     5.9123810    1.0781220   -3.5441811 
