99
Energy =
C    -2.4595787   -2.4056298   -0.7071959 
C    -1.6369901   -2.1302301   -1.8179830 
C    -0.2629358   -2.5312120   -1.8508683 
H    -2.0202684   -1.4948162   -2.6263918 
Pd   -0.5950539   -1.1089167   -0.1638256 
P     1.7219401   -0.6973831    0.1467949 
P    -1.5707994    0.5311779    1.2835937 
H    -2.1021175   -3.1649201    0.0053635 
H    -0.0023963   -3.4653735   -1.3344590 
C    -6.5971924   -1.3582989   -0.1823270 
C    -5.9164756   -2.1075232    0.7903284 
C    -4.5774544   -2.4596087    0.5904806 
C    -3.8814194   -2.0584225   -0.5756879 
C    -4.5953449   -1.3397950   -1.5640276 
C    -5.9343752   -0.9900450   -1.3651869 
H    -7.6448767   -1.0800060   -0.0299169 
H    -6.4335717   -2.4251694    1.7015339 
H    -4.0560394   -3.0578789    1.3453265 
H    -4.1040430   -1.0492495   -2.4971284 
H    -6.4687455   -0.4318642   -2.1407622 
C     2.3299815   -1.4684750   -5.1241635 
C     1.3043148   -0.5933482   -4.7311031 
C     0.4698479   -0.9231001   -3.6591789 
C     0.6305032   -2.1451938   -2.9634492 
C     1.6744076   -3.0098719   -3.3633520 
C     2.5166637   -2.6742777   -4.4320582 
H     2.9848955   -1.2073042   -5.9614831 
H     1.1652321    0.3587557   -5.2522367 
H    -0.3039287   -0.2134011   -3.3449223 
H     1.8071376   -3.9675544   -2.8463564 
H     3.3119626   -3.3638528   -4.7339036 
N     0.3480504    1.8234529   -0.8359540 
C    -3.2363156    1.1173679    0.6167206 
C    -1.7203658   -0.1484739    3.0461873 
C     2.2227818    0.2371728    1.7094688 
C     2.7004439   -2.3016071    0.0598861 
C    -0.6066796    2.0971547    1.4199427 
C     2.3092716    0.3678317   -1.2384666 
C     0.2716987    2.5224329    0.3776934 
C     1.5806546    1.5586331   -1.5137313 
C    -3.8551503    2.3200032    1.3497096 
C    -3.0440278    1.4613758   -0.8736562 
C    -2.9193579    0.3180560    3.8898054 
C    -1.6746259   -1.6887543    3.0082517 
C     2.1197057   -0.6478184    2.9639235 
C     3.5623052    0.9867154    1.6152906 
C     4.1936182   -2.2235468    0.4364094 
C     2.0026864   -3.4234483    0.8581518 
C    -0.6604502    2.8534124    2.6130357 
C     3.4205116    0.0526648   -2.0409848 
C     1.0931548    3.6488922    0.6037643 
C     2.0233204    2.4210530   -2.5265727 
C     0.1383441    3.9854817    2.8334149 
C     3.8695237    0.9131153   -3.0605701 
C     1.0290465    4.3562300    1.8035254 
C     3.1652821    2.1123795   -3.2758922 
C     0.0318317    4.7877510    4.1107152 
C     5.0828492    0.5529772   -3.8868831 
H    -3.9008120    0.2382079    0.7033962 
H    -0.7849294    0.2144199    3.5124370 
H     1.4277109    0.9964941    1.7804500 
H     2.6159042   -2.5453076   -1.0157552 
H    -0.2501846    0.9797549   -0.8344698 
H    -4.0940822    2.1124605    2.4018556 
H    -4.7981793    2.5953393    0.8441439 
H    -3.1838757    3.1952386    1.3094991 
H    -4.0238354    1.6784581   -1.3324018 
H    -2.4034725    2.3528624   -0.9942277 
H    -2.5841013    0.6290779   -1.4337130 
H    -2.9376650    1.4075295    4.0499196 
H    -2.8672745   -0.1621155    4.8832343 
H    -3.8748302    0.0177849    3.4259615 
H    -1.5726259   -2.0850381    4.0340329 
H    -2.6039386   -2.0980132    2.5794009 
H    -0.8282506   -2.0641034    2.4047259 
H     2.9521974   -1.3673480    3.0351754 
H     2.1615518   -0.0059515    3.8616005 
H     1.1733651   -1.2128157    2.9979417 
H     3.5914159    1.6548273    0.7391990 
H     4.4261584    0.3048597    1.5634360 
H     3.6802038    1.6121878    2.5183239 
H     4.3272903   -2.0854808    1.5218054 
H     4.6813646   -3.1767022    0.1640364 
H     4.7309768   -1.4115420   -0.0770871 
H     0.9176767   -3.4599002    0.6605081 
H     2.1430762   -3.2976535    1.9440907 
H     2.4362344   -4.3997018    0.5776542 
H    -1.3404048    2.5408130    3.4117138 
H     3.9542214   -0.8893394   -1.8937061 
H     1.7931205    3.9588495   -0.1775743 
H     1.4393951    3.3215318   -2.7399870 
H     1.6842513    5.2235780    1.9429393 
H     3.4914642    2.7975670   -4.0661009 
H    -0.3670807    4.1788427    4.9395880 
H     1.0136157    5.1868591    4.4175697 
H    -0.6457468    5.6523868    3.9780268 
H     5.1673152   -0.5392354   -4.0153050 
H     5.0418878    1.0181013   -4.8856122 
H     6.0095049    0.9045002   -3.3953650 
