99
Energy =
C    -2.5271575   -2.4001195   -0.6429276 
C    -1.6614482   -2.1204183   -1.7157072 
C    -0.2947424   -2.5433289   -1.7277452 
H    -2.0177543   -1.4835132   -2.5347918 
Pd   -0.6178339   -1.1161677   -0.0395537 
P     1.7261134   -0.7381948    0.2077776 
P    -1.6223241    0.6029972    1.3043220 
H    -2.2033868   -3.1629278    0.0817997 
H    -0.0541427   -3.4781865   -1.2028637 
C    -6.7168636   -1.4640856   -0.4043290 
C    -6.1087395   -2.2878575    0.5551239 
C    -4.7454256   -2.5871659    0.4580145 
C    -3.9561110   -2.0646564   -0.5940234 
C    -4.5935727   -1.2613210   -1.5716746 
C    -5.9546963   -0.9613257   -1.4730428 
H    -7.7828190   -1.2262794   -0.3300095 
H    -6.6998842   -2.7027587    1.3778303 
H    -4.2784829   -3.2375861    1.2051868 
H    -4.0230057   -0.8617140   -2.4147719 
H    -6.4282968   -0.3362648   -2.2369969 
C     2.2750400   -1.5902871   -5.0530213 
C     1.2768891   -0.6849802   -4.6577790 
C     0.4542592   -0.9772638   -3.5660910 
C     0.5986791   -2.1908370   -2.8521523 
C     1.6148908   -3.0865410   -3.2552966 
C     2.4460224   -2.7884312   -4.3436079 
H     2.9208428   -1.3588878   -5.9060185 
H     1.1507875    0.2614078   -5.1924335 
H    -0.2970124   -0.2441799   -3.2511640 
H     1.7335611   -4.0391707   -2.7257040 
H     3.2192788   -3.5016731   -4.6476076 
N     0.3899783    1.7867018   -0.7569176 
C    -3.2235084    1.1842723    0.5002022 
C    -2.1161264    0.1512642    3.0566425 
C     2.2926215    0.2093147    1.7456296 
C     2.6946430   -2.3487554    0.0975665 
C    -0.6262777    2.1504918    1.4481291 
C     2.3028798    0.3012833   -1.2045000 
C     0.2987419    2.5269847    0.4281874 
C     1.6050715    1.5146143   -1.4537213 
C    -3.9587625    2.2608851    1.3134292 
C    -2.9478255    1.6539883   -0.9379932 
C    -3.1418096   -0.9929531    3.0343504 
C    -0.8960896   -0.2163369    3.9108497 
C     2.4075604   -0.7135086    2.9724985 
C     3.5632904    1.0506284    1.5387458 
C     4.2067532   -2.2816023    0.3969241 
C     2.0283756   -3.4700328    0.9224641 
C    -0.7264388    2.9627382    2.6017610 
C     3.3909952   -0.0343376   -2.0302212 
C     1.1222076    3.6552067    0.6386944 
C     2.0561390    2.3818546   -2.4593962 
C     0.0743937    4.0957215    2.8069611 
C     3.8504124    0.8296882   -3.0417520 
C     1.0146514    4.4131205    1.8032753 
C     3.1793464    2.0531306   -3.2276018 
C    -0.0707920    4.9529390    4.0442280 
C     5.0405634    0.4490836   -3.8923905 
H    -3.8455176    0.2725398    0.4547786 
H    -2.5999538    1.0496782    3.4810119 
H     1.4500733    0.9008231    1.9192389 
H     2.5604457   -2.5912324   -0.9728543 
H    -0.2066536    0.9423935   -0.7325891 
H    -4.2532064    1.9051838    2.3151980 
H    -4.8841110    2.5488531    0.7829914 
H    -3.3400652    3.1679226    1.4303991 
H    -3.9027724    1.8828336   -1.4425109 
H    -2.3245091    2.5649126   -0.9529751 
H    -2.4323066    0.8759893   -1.5289127 
H    -4.0618831   -0.7313412    2.4872762 
H    -3.4266906   -1.2533127    4.0689959 
H    -2.7074522   -1.8938631    2.5658439 
H    -0.4364340   -1.1479244    3.5399357 
H    -0.1294348    0.5754417    3.9100524 
H    -1.2099221   -0.3872718    4.9556507 
H     3.3277980   -1.3186550    2.9445104 
H     2.4471379   -0.0956383    3.8864649 
H     1.5489158   -1.3958791    3.0683291 
H     3.4446692    1.7796161    0.7217686 
H     4.4442887    0.4246379    1.3203426 
H     3.7695807    1.6145172    2.4661560 
H     4.4008920   -2.1610566    1.4744455 
H     4.6735682   -3.2327815    0.0838475 
H     4.7214878   -1.4650664   -0.1316919 
H     2.4146442   -4.4503357    0.5914867 
H     0.9308526   -3.4751775    0.8049206 
H     2.2517750   -3.3714832    1.9970189 
H    -1.4461046    2.6974335    3.3829249 
H     3.8976948   -0.9943445   -1.9095584 
H     1.8516776    3.9305053   -0.1285801 
H     1.4940343    3.3004906   -2.6530134 
H     1.6715817    5.2806140    1.9335864 
H     3.5148799    2.7412628   -4.0113384 
H    -0.6704904    4.4470478    4.8191014 
H     0.9138435    5.1998904    4.4784965 
H    -0.5704847    5.9105295    3.8059373 
H     5.1174838   -0.6453553   -4.0042803 
H     4.9760775    0.8973248   -4.8977612 
H     5.9809314    0.8056108   -3.4314312 
