99
Energy =
C    -2.4190556   -2.5087738   -0.6010380 
C    -1.6347072   -2.2728092   -1.7498056 
C    -0.2519273   -2.6390493   -1.7994585 
H    -2.0511391   -1.6781123   -2.5726431 
Pd   -0.6001938   -1.1699692   -0.1449906 
P     1.7279861   -0.7319739    0.1607814 
P    -1.7076868    0.5393705    1.1242979 
H    -2.0307000   -3.2342807    0.1314569 
H     0.0475118   -3.5538156   -1.2704059 
C    -6.5197200   -1.4089714    0.0682969 
C    -5.7862796   -2.0849551    1.0558335 
C    -4.4623754   -2.4637478    0.8062193 
C    -3.8351408   -2.1573905   -0.4259419 
C    -4.6029564   -1.5150005   -1.4261379 
C    -5.9271830   -1.1415928   -1.1779080 
H    -7.5559880   -1.1120405    0.2587672 
H    -6.2502737   -2.3255187    2.0177958 
H    -3.8991580   -3.0104618    1.5714169 
H    -4.1660053   -1.3053220   -2.4065925 
H    -6.5055587   -0.6436997   -1.9628435 
C     2.2667709   -1.4888835   -5.1013165 
C     1.2319676   -0.6383474   -4.6795729 
C     0.4190006   -1.0009429   -3.6018154 
C     0.6118344   -2.2309925   -2.9278201 
C     1.6637918   -3.0712926   -3.3575163 
C     2.4836693   -2.7031386   -4.4328381 
H     2.9061456   -1.2019680   -5.9422051 
H     1.0703459    0.3207242   -5.1811992 
H    -0.3600334   -0.3090979   -3.2612265 
H     1.8224577   -4.0335262   -2.8566761 
H     3.2863311   -3.3733682   -4.7578515 
N     0.3568780    1.8194585   -0.7471032 
C    -3.1753210    1.2682565    0.1789767 
C    -2.4375550   -0.1906289    2.6947076 
C     2.2557108    0.1634224    1.7422233 
C     2.7272898   -2.3216069    0.0214686 
C    -0.6527100    1.9978581    1.4872075 
C     2.2987266    0.3622303   -1.2129330 
C     0.2822973    2.4477345    0.5051297 
C     1.5833568    1.5699945   -1.4411105 
C    -3.6051598    2.6459092    0.7159093 
C    -2.8956315    1.3558272   -1.3323369 
C    -1.3211183   -0.7098080    3.6154837 
C    -3.5395128    0.5763244    3.4463043 
C     2.2900351   -0.7831802    2.9555728 
C     3.5500688    0.9831423    1.6076419 
C     4.2334675   -2.2294672    0.3415986 
C     2.0779933   -3.4700990    0.8233296 
C    -0.7003136    2.6584498    2.7333201 
C     3.3864352    0.0552386   -2.0509868 
C     1.1425978    3.5181616    0.8271284 
C     2.0187939    2.4592953   -2.4336202 
C     0.1531975    3.7251196    3.0589122 
C     3.8266266    0.9393323   -3.0537118 
C     1.0803234    4.1343588    2.0778663 
C     3.1400362    2.1575213   -3.2156759 
C     0.0563216    4.4253758    4.3959592 
C     5.0137182    0.5869838   -3.9206804 
H    -3.9796622    0.5272842    0.3489534 
H    -2.9294577   -1.0727491    2.2425845 
H     1.4234543    0.8683098    1.8998071 
H     2.6078753   -2.5489070   -1.0541573 
H    -0.2408152    0.9770441   -0.7891385 
H    -3.7938901    2.6521468    1.7998948 
H    -4.5358131    2.9581796    0.2086685 
H    -2.8305358    3.4028997    0.5051640 
H    -3.8305626    1.5933162   -1.8693527 
H    -2.1619223    2.1489935   -1.5552609 
H    -2.5043326    0.4062201   -1.7338561 
H    -0.6485797   -1.3895976    3.0653452 
H    -1.7618747   -1.2718174    4.4575800 
H    -0.7106478    0.1076268    4.0352174 
H    -3.9122058   -0.0643366    4.2658620 
H    -3.1845955    1.5158198    3.9005620 
H    -4.3973425    0.8044945    2.7940527 
H     3.1848927   -1.4266598    2.9535799 
H     2.3192901   -0.1792189    3.8794887 
H     1.3999312   -1.4297154    3.0087348 
H     3.4931392    1.7043715    0.7769841 
H     4.4351254    0.3445994    1.4533567 
H     3.7039047    1.5559812    2.5396048 
H     4.7402365   -1.3989368   -0.1729651 
H     4.4086468   -2.1138526    1.4232907 
H     4.7226463   -3.1693276    0.0283457 
H     2.4765708   -4.4376269    0.4701414 
H     0.9804274   -3.4878606    0.7096921 
H     2.3030667   -3.3920136    1.8990525 
H    -1.4196164    2.3233516    3.4852325 
H     3.9063482   -0.8999585   -1.9485665 
H     1.8727205    3.8540279    0.0847267 
H     1.4441770    3.3746848   -2.6048768 
H     1.7686171    4.9585156    2.2968804 
H     3.4621958    2.8627942   -3.9897382 
H    -0.3053187    3.7438339    5.1847204 
H     1.0337523    4.8282627    4.7105351 
H    -0.6488622    5.2766689    4.3457596 
H     5.1372377   -0.5055010   -4.0047991 
H     4.9066069    1.0035095   -4.9362416 
H     5.9468894    0.9988866   -3.4925085 
