99
Energy =
C    -0.5565387   -1.2941822   -2.6152573 
C    -1.6210547   -1.9528433   -1.9668046 
C    -2.7138526   -1.2097990   -1.4248911 
H    -1.5675807   -3.0348418   -1.7969946 
Pd   -0.8018218   -0.6168265   -0.4203005 
P    -1.7931439    0.7743979    1.2164493 
P     1.5679717   -0.4002066    0.0240612 
H    -0.7251711   -0.2518957   -2.9257719 
H    -2.9692963   -0.2682995   -1.9302517 
C     2.8778483   -3.0587205   -4.4952545 
C     1.9609329   -3.8844218   -3.8205310 
C     0.8288500   -3.3331453   -3.2144017 
C     0.5942376   -1.9375988   -3.2608683 
C     1.5109671   -1.1232158   -3.9661055 
C     2.6427478   -1.6778649   -4.5744143 
H     3.7628484   -3.4952186   -4.9694601 
H     2.1294843   -4.9652248   -3.7735916 
H     0.1272209   -3.9932933   -2.6960940 
H     1.3366285   -0.0432514   -4.0189324 
H     3.3430377   -1.0301135   -5.1110796 
C    -6.0336763   -3.0637655    0.6026686 
C    -6.1959756   -1.8391327   -0.0619877 
C    -5.1099733   -1.2471098   -0.7198157 
C    -3.8356971   -1.8588241   -0.7169584 
C    -3.6902567   -3.0962068   -0.0461927 
C    -4.7773637   -3.6930799    0.6001647 
H    -6.8816023   -3.5296037    1.1148563 
H    -7.1748276   -1.3486818   -0.0785032 
H    -5.2524449   -0.3056670   -1.2632249 
H    -2.7098267   -3.5834589   -0.0075419 
H    -4.6436839   -4.6499116    1.1154044 
N     0.1084451    2.1593150   -0.7241763 
C     2.4789623   -1.9889951   -0.4418966 
C     2.2062262    0.1611656    1.7176872 
C    -3.3587925    1.6486833    0.6245722 
C    -2.3103905    0.0532120    2.8712954 
C     2.1435124    0.8660019   -1.1950032 
C    -0.6442819    2.1568602    1.6291243 
C     1.2818205    1.9556999   -1.4975519 
C     0.2349371    2.6358743    0.6255847 
C     3.9673234   -2.1377318   -0.0678068 
C     1.6750984   -3.2131509    0.0412907 
C     2.2451287   -0.9934218    2.7362204 
C     3.5421761    0.9201301    1.6567612 
C    -3.9795302    2.5551651    1.7015818 
C    -3.1246594    2.4333407   -0.6762055 
C    -3.5206191   -0.8826745    2.7132439 
C    -1.1358861   -0.6789099    3.5339753 
C     3.3143723    0.7104849   -1.9629321 
C    -0.5160221    2.6694121    2.9377285 
C     1.5782672    2.7930978   -2.5886159 
C     1.2449006    3.5533569    0.9667497 
C     3.6375470    1.5612043   -3.0363747 
C     0.4871765    3.5909386    3.2887999 
C     2.7326615    2.5924295   -3.3533478 
C     1.3770686    4.0124882    2.2797255 
C     4.9116227    1.3661393   -3.8270824 
C     0.6055008    4.1203378    4.6997485 
H     2.4071460   -1.9588101   -1.5435034 
H     1.4282266    0.8706414    2.0435726 
H    -4.0470950    0.8115125    0.4089022 
H    -2.6063847    0.9103156    3.5040947 
H    -0.6241602    2.6521639   -1.2375931 
H     4.1078932   -2.2921800    1.0134904 
H     4.5852850   -1.2766496   -0.3657476 
H     4.3702455   -3.0284441   -0.5821573 
H     2.0748138   -4.1264470   -0.4330705 
H     1.7441449   -3.3422005    1.1345895 
H     0.6066635   -3.1256331   -0.2245377 
H     1.3368663   -1.6142024    2.7045316 
H     2.3303565   -0.5751087    3.7547218 
H     3.1149695   -1.6502508    2.5781971 
H     3.7797206    1.3127198    2.6621667 
H     4.3752017    0.2681604    1.3462836 
H     3.4944263    1.7751705    0.9634082 
H    -3.2726725    3.3447616    2.0138403 
H    -4.8772924    3.0518080    1.2913677 
H    -4.2952643    1.9952146    2.5967238 
H    -4.0897398    2.7914982   -1.0756356 
H    -2.6446153    1.8146516   -1.4539672 
H    -2.4999738    3.3269147   -0.4893068 
H    -3.2735812   -1.7439355    2.0727969 
H    -3.8098228   -1.2701042    3.7059609 
H    -4.4025830   -0.3842950    2.2796850 
H    -0.2641366   -0.0213711    3.6810320 
H    -0.8240042   -1.5387142    2.9156702 
H    -1.4431710   -1.0626992    4.5227499 
H     3.9880325   -0.1237466   -1.7561518 
H    -1.1944193    2.3239351    3.7240974 
H     0.8996106    3.6205880   -2.8251436 
H     1.9300537    3.9025129    0.1876239 
H     2.9400618    3.2594328   -4.1975101 
H     2.1761377    4.7215383    2.5231801 
H     4.7409920    1.5134197   -4.9075204 
H     5.6822021    2.0964852   -3.5167174 
H     5.3293414    0.3569689   -3.6761037 
H     1.6508195    4.0847521    5.0526456 
H     0.2816225    5.1765229    4.7482386 
H    -0.0174702    3.5446575    5.4036243 
