99
Energy =
C    -1.6328742   -1.5853406   -2.4714935 
C    -2.4875503   -1.7060675   -1.3356635 
C    -2.9637685   -0.5534297   -0.6747618 
H    -2.6908527   -2.6974304   -0.9125148 
Pd   -0.6591252   -0.6782104   -0.6400116 
P    -0.3913731    0.2329834    1.5565869 
P     1.5317542   -0.3185600   -1.5339954 
H    -1.7541180   -0.6767815   -3.0756472 
H    -2.8879410    0.3989985   -1.2216416 
C    -0.0225466   -4.9127400   -4.6830148 
C    -0.1848681   -3.6586696   -5.2909608 
C    -0.7101546   -2.5862600   -4.5595635 
C    -1.0773198   -2.7398402   -3.2019566 
C    -0.9143667   -4.0128562   -2.6068657 
C    -0.3959325   -5.0856844   -3.3396840 
H     0.3852500   -5.7533107   -5.2534851 
H     0.0883158   -3.5179874   -6.3418832 
H    -0.8568421   -1.6156967   -5.0473583 
H    -1.1770258   -4.1622510   -1.5539046 
H    -0.2769052   -6.0626521   -2.8597912 
C    -5.5595250   -0.3042177    2.7362863 
C    -5.1239493    0.8547006    2.0757458 
C    -4.2937076    0.7513105    0.9540307 
C    -3.8746390   -0.5130748    0.4755201 
C    -4.3480643   -1.6742575    1.1324683 
C    -5.1768474   -1.5683068    2.2529318 
H    -6.2087669   -0.2268819    3.6143895 
H    -5.4300980    1.8422750    2.4356495 
H    -3.9453620    1.6579420    0.4481708 
H    -4.0655273   -2.6670689    0.7697959 
H    -5.5335964   -2.4752829    2.7516451 
N     0.1540116    2.3546711   -0.5932628 
C     2.6659603   -1.7452017   -1.0141002 
C     1.5257532   -0.0736652   -3.4032962 
C    -1.4193165   -0.7281876    2.8090567 
C     1.3698856    0.3900640    2.2208714 
C     2.3286382    1.2225540   -0.9132302 
C    -1.0559497    1.9561414    1.5416019 
C     1.5522615    2.3308074   -0.4620732 
C    -0.6854935    2.8181734    0.4741372 
C     1.8134135   -2.9957626   -0.7280925 
C     3.8380364   -2.1223207   -1.9368174 
C     0.5058465    1.0312184   -3.7464436 
C     2.8867681    0.2855965   -4.0266102 
C    -1.3417423   -2.2391072    2.5096322 
C    -1.1580270   -0.4510092    4.3023717 
C     1.5586339    1.4633751    3.3054804 
C     1.9514542   -0.9780229    2.6201080 
C     3.7355121    1.2775201   -0.7733716 
C    -1.9547116    2.4364832    2.5149341 
C     2.2167995    3.4146930    0.1551108 
C    -1.1961237    4.1247236    0.4287674 
C     4.3997713    2.3587273   -0.1771348 
C    -2.4662280    3.7467245    2.4797207 
C     3.6028103    3.4231784    0.2972306 
C    -2.0645173    4.5879104    1.4236666 
C     5.9064074    2.3932610   -0.0555622 
C    -3.4213704    4.2369032    3.5447915 
H     3.0708776   -1.3654658   -0.0572712 
H     1.1710891   -1.0420125   -3.8022055 
H    -2.4441415   -0.3942364    2.5677440 
H     1.9173652    0.7304186    1.3276531 
H    -0.2126293    1.4746713   -0.9937512 
H     0.9529899   -2.7693249   -0.0713020 
H     2.4347972   -3.7652246   -0.2361847 
H     1.4167137   -3.4259207   -1.6625269 
H     4.5349569   -1.2904708   -2.1237530 
H     4.4135397   -2.9362069   -1.4606649 
H     3.4752869   -2.5004683   -2.9078708 
H    -0.4876461    0.8454182   -3.3066742 
H     0.3853629    1.0965739   -4.8422569 
H     0.8568233    2.0146094   -3.3873316 
H     2.7419517    0.4781890   -5.1050054 
H     3.2973293    1.2060089   -3.5761948 
H     3.6332677   -0.5141618   -3.9333302 
H    -0.3575168   -2.6599685    2.7749572 
H    -2.1078741   -2.7701567    3.1008511 
H    -1.5266483   -2.4507061    1.4419058 
H    -1.1870309    0.6198699    4.5571636 
H    -0.1837446   -0.8498099    4.6277519 
H    -1.9378415   -0.9587942    4.8975310 
H     1.0561744    1.2041017    4.2509905 
H     2.6383336    1.5676634    3.5153187 
H     1.1869696    2.4452102    2.9694311 
H     3.0450608   -0.8832423    2.7415504 
H     1.7626464   -1.7493889    1.8551710 
H     1.5441286   -1.3405054    3.5780299 
H     4.3387613    0.4353192   -1.1250740 
H    -2.2850337    1.7797493    3.3232629 
H     1.6233178    4.2543214    0.5287003 
H    -0.9120949    4.7653770   -0.4115526 
H     4.0809458    4.2812184    0.7832347 
H    -2.4511272    5.6115336    1.3672789 
H     6.3418720    3.1391378   -0.7462999 
H     6.2192732    2.6751272    0.9652670 
H     6.3545628    1.4143555   -0.2938892 
H    -2.9496057    5.0199794    4.1661685 
H    -4.3250521    4.6831513    3.0931364 
H    -3.7365665    3.4192604    4.2135312 
