99
Energy =
C    -1.2210084   -2.1971183   -2.2315529 
C    -2.1268243   -2.2541606   -1.1308483 
C    -2.8028888   -1.0926365   -0.6996017 
H    -2.2187942   -3.1813560   -0.5520652 
Pd   -0.5120955   -0.8646563   -0.5429529 
P    -0.5241472    0.4152566    1.4779774 
P     1.6575996   -0.3215847   -1.3967069 
H    -1.4253551   -1.4300039   -2.9899613 
H    -2.8234999   -0.2418503   -1.3978673 
C     0.9895009   -5.5681926   -3.7505630 
C     0.5468167   -5.5702041   -2.4171836 
C    -0.1667368   -4.4800367   -1.9081889 
C    -0.4604587   -3.3613558   -2.7229831 
C    -0.0207694   -3.3818911   -4.0675342 
C     0.6998303   -4.4702154   -4.5747909 
H     1.5502269   -6.4213373   -4.1455710 
H     0.7645070   -6.4256085   -1.7692429 
H    -0.4812930   -4.4904360   -0.8589545 
H    -0.2650939   -2.5386030   -4.7238390 
H     1.0266952   -4.4662301   -5.6197913 
C    -5.6359223   -0.6825480    2.5009062 
C    -5.0480592   -1.9368611    2.2577485 
C    -4.1377218   -2.0983004    1.2095507 
C    -3.7866940   -1.0015718    0.3860162 
C    -4.4095728    0.2470264    0.6232766 
C    -5.3217841    0.4056933    1.6725565 
H    -6.3487351   -0.5615985    3.3230116 
H    -5.3082853   -2.7939666    2.8872626 
H    -3.6954379   -3.0834851    1.0340647 
H    -4.1572795    1.1014848   -0.0135579 
H    -5.7874638    1.3815340    1.8442475 
N    -0.1439764    2.2271752   -0.9683843 
C     1.7323866   -0.3805219   -3.2795726 
C     2.9496906   -1.4595412   -0.6045861 
C    -1.4856292   -0.4777444    2.8294711 
C     1.1514418    0.9360976    2.1767467 
C     2.1857914    1.4014161   -1.0114610 
C    -1.4219460    1.9956297    1.1507804 
C     1.2323867    2.4374339   -0.7828419 
C    -1.1068798    2.7242741   -0.0281578 
C     0.5872655    0.4869464   -3.8408197 
C     3.0636749    0.0784290   -3.9017357 
C     2.2687184   -2.7642374   -0.1500471 
C     4.2196955   -1.7950704   -1.4057601 
C    -1.1778194   -1.9884688    2.7885687 
C    -1.3628590    0.0682851    4.2654698 
C     1.1184383    2.1837774    3.0745257 
C     1.8919504   -0.2497410    2.8209131 
C     3.5589166    1.6906541   -0.8302376 
C    -2.4406122    2.4839583    1.9929148 
C     1.6953317    3.6947820   -0.3334267 
C    -1.7914312    3.9164364   -0.3102215 
C     4.0233540    2.9421561   -0.4014499 
C    -3.1262395    3.6823872    1.7210660 
C     3.0543992    3.9361467   -0.1439462 
C    -2.7788302    4.3964371    0.5578748 
C     5.4990711    3.2239681   -0.2317646 
C    -4.2010034    4.1903842    2.6557718 
H     1.5469303   -1.4427755   -3.5241056 
H     3.2345327   -0.8769823    0.2918115 
H    -2.5295288   -0.3424616    2.4943317 
H     1.7016032    1.2076597    1.2616997 
H    -0.3547675    1.2485324   -1.2274058 
H     0.7700223    1.5569678   -3.6382355 
H    -0.3946261    0.2247981   -3.4140365 
H     0.5270601    0.3574970   -4.9359128 
H     2.9610396    0.0706410   -5.0019354 
H     3.3070344    1.1112232   -3.5972954 
H     3.9106800   -0.5716643   -3.6460752 
H     1.3451250   -2.5706664    0.4266875 
H     2.9616798   -3.3438951    0.4854780 
H     1.9969603   -3.3908728   -1.0155080 
H     4.8001866   -0.9071406   -1.7007555 
H     4.8747259   -2.4263934   -0.7792274 
H     3.9768494   -2.3727765   -2.3139527 
H    -0.1634000   -2.2105898    3.1596956 
H    -1.8984486   -2.5272297    3.4280306 
H    -1.2614093   -2.3916148    1.7640591 
H    -1.5561503    1.1499848    4.3371479 
H    -0.3659535   -0.1260528    4.6927639 
H    -2.1019837   -0.4477039    4.9038857 
H     0.5975915    2.0055626    4.0287771 
H     2.1571636    2.4794661    3.3076502 
H     0.6352011    3.0337032    2.5653501 
H     1.8613078   -1.1521384    2.1879766 
H     1.4796354   -0.5115781    3.8090875 
H     2.9517316    0.0239140    2.9678977 
H     4.2972890    0.9040312   -1.0118796 
H    -2.7287199    1.9202804    2.8834909 
H     0.9658492    4.4841100   -0.1294913 
H    -1.5469375    4.4510111   -1.2330974 
H     3.3737327    4.9241152    0.2067826 
H    -3.3012061    5.3288247    0.3166555 
H     5.8638960    3.9090223   -1.0195676 
H     5.7051462    3.7076920    0.7393563 
H     6.0972752    2.2993884   -0.2884760 
H    -4.5102002    3.4151993    3.3760269 
H    -3.8383182    5.0606348    3.2335214 
H    -5.0931412    4.5216409    2.0962420 
