45
Energy =
C     0.2019493    0.6638062   -2.3414767 
C     1.3125177    0.9680581   -1.5036657 
C     2.1862801   -0.0756388   -1.0854626 
H     1.3859331    1.9580544   -1.0370337 
Pd    0.0968379   -0.5408523   -0.4716172 
P     0.3695591   -1.7692348    1.4816774 
P    -2.1856582   -0.8147620   -0.1352511 
H     0.3093583   -0.2057881   -3.0096029 
H     2.2822631   -0.9410866   -1.7607542 
C    -2.9591316    3.3438931   -3.4884813 
C    -2.6858485    2.1938756   -4.2440576 
C    -1.6545649    1.3294145   -3.8569508 
C    -0.8738035    1.6029131   -2.7105077 
C    -1.1666646    2.7615050   -1.9523370 
C    -2.1968623    3.6231579   -2.3407197 
H    -3.7640831    4.0216346   -3.7902810 
H    -3.2742569    1.9720616   -5.1401162 
H    -1.4398808    0.4357609   -4.4541805 
H    -0.5935338    2.9850816   -1.0458531 
H    -2.4098418    4.5175701   -1.7463453 
C     5.3717381    0.2335416    1.7863808 
C     5.3520682   -0.8090861    0.8479515 
C     4.3070094   -0.8974821   -0.0797583 
C     3.2660408    0.0590103   -0.0898138 
C     3.2936992    1.1001968    0.8683195 
C     4.3380672    1.1863629    1.7938016 
H     6.1884822    0.3050776    2.5117729 
H     6.1553509   -1.5526905    0.8351963 
H     4.2991503   -1.7094828   -0.8159650 
H     2.4873897    1.8411938    0.8989282 
H     4.3481852    1.9992215    2.5271669 
C    -1.2953582   -2.0672426    2.2177330 
C    -2.4376745   -1.6410293    1.4946170 
C    -1.4562456   -2.7008533    3.4653907 
C    -3.7224181   -1.8554595    2.0306837 
C    -2.7387101   -2.9088196    3.9884314 
C    -3.8701300   -2.4867793    3.2721138 
H    -0.5795641   -3.0330589    4.0319296 
H    -4.6109746   -1.5291621    1.4794503 
H    -2.8558360   -3.4015730    4.9587235 
H    -4.8716697   -2.6495390    3.6825169 
H     1.1166239   -1.2016288    2.5473383 
H     0.9605686   -3.0606535    1.4673860 
H    -3.0089614    0.3397332   -0.0628363 
H    -2.9774001   -1.5892214   -1.0244419 
