45
Energy =
C     0.4885996    2.3804525   -0.2899618 
C     0.6132278    1.5665097   -1.4515930 
C    -0.5576625    1.1016500   -2.1154008 
H     1.5916417    1.1501059   -1.7206540 
Pd   -0.5820418    0.4518629    0.0147296 
P    -1.7456946   -1.5580860   -0.0450965 
P    -0.3896279    0.0867694    2.3009570 
H    -0.4174429    3.0032464   -0.2165935 
H    -1.4571595    1.7326724   -2.0327543 
C     3.6582965    3.6334473    2.3317473 
C     3.8536950    2.5245743    1.4901423 
C     2.8338169    2.1027527    0.6319445 
C     1.5964400    2.7883572    0.5939892 
C     1.4109250    3.8969658    1.4514685 
C     2.4334699    4.3171258    2.3106609 
H     4.4595916    3.9613142    3.0016719 
H     4.8071697    1.9867162    1.5058230 
H     2.9977736    1.2267802   -0.0051234 
H     0.4580322    4.4383203    1.4329106 
H     2.2759493    5.1832304    2.9613930 
C    -0.7313469   -1.7396910   -5.3383686 
C    -1.7994950   -0.8624512   -5.0985353 
C    -1.7286384    0.0568339   -4.0448169 
C    -0.5856595    0.1193248   -3.2151008 
C     0.4806853   -0.7774304   -3.4630753 
C     0.4078266   -1.6942354   -4.5159928 
H    -0.7842601   -2.4582269   -6.1625650 
H    -2.6881023   -0.8906957   -5.7372663 
H    -2.5625062    0.7452730   -3.8655069 
H     1.3688455   -0.7675039   -2.8217825 
H     1.2420193   -2.3796022   -4.6978394 
C    -1.0470749   -1.5950540    2.6765420 
C    -1.6537750   -2.3304840    1.6274859 
C    -0.9604678   -2.1590955    3.9642593 
C    -2.1641597   -3.6181318    1.8830495 
C    -1.4710982   -3.4405393    4.2064761 
C    -2.0720563   -4.1689189    3.1674445 
H    -0.4926268   -1.5987516    4.7809768 
H    -2.6341184   -4.1943992    1.0787268 
H    -1.3990853   -3.8729878    5.2093812 
H    -2.4698093   -5.1706123    3.3582716 
H    -1.0537563    0.9197231    3.2404489 
H     0.9028537    0.0861417    2.8885544 
H    -3.1319159   -1.5978725   -0.3524429 
H    -1.3012776   -2.5853804   -0.9185849 
