97
Energy =
C     2.1814753    0.9068775   -1.6329782 
C     2.0467477    1.9125662   -0.6252818 
C     2.3122866    1.6224607    0.7324423 
H     1.5572809    2.8599034   -0.8844378 
Pd    0.7102554    0.2398737   -0.1191383 
P    -0.7645148   -0.1819132    1.6586042 
P    -0.3664812   -1.4399508   -1.3237798 
H     2.9728478    0.1572474   -1.4887159 
H     2.9482330    0.7497196    0.9475780 
C     0.8343607    1.3766521   -5.7026110 
C     0.1778521    2.0578911   -4.6637024 
C     0.6142222    1.9167193   -3.3416853 
C     1.7235299    1.0958983   -3.0273381 
C     2.3785612    0.4248181   -4.0834156 
C     1.9375745    0.5620821   -5.4066873 
H     0.4895828    1.4838761   -6.7360138 
H    -0.6851474    2.6948489   -4.8847739 
H     0.0693641    2.4242526   -2.5376092 
H     3.2505169   -0.2018133   -3.8655538 
H     2.4629291    0.0361287   -6.2106262 
C     1.6867646    4.2268676    4.0982776 
C     2.0766428    2.8906794    4.2852873 
C     2.3038787    2.0662073    3.1777822 
C     2.1270428    2.5514547    1.8607799 
C     1.7665862    3.9072118    1.6879011 
C     1.5472948    4.7335234    2.7957982 
H     1.5114098    4.8757119    4.9622796 
H     2.2124558    2.4946340    5.2970845 
H     2.6172890    1.0268676    3.3248000 
H     1.6598509    4.3243959    0.6820850 
H     1.2696414    5.7815134    2.6432354 
C    -1.9144118    1.1338335    2.4066931 
C    -0.2211586   -0.8366238    3.3332691 
C    -1.4916096   -1.0012323   -2.7707984 
C     0.5550672   -2.8138212   -2.2537724 
C    -2.0005392    0.7650663    3.9209883 
C    -1.5011331   -0.6647130    4.1752262 
C    -1.4031811   -2.2380885   -3.6894355 
C     0.0614614   -2.6862208   -3.7128525 
C    -1.9760895   -1.4802333    1.0238194 
C    -1.3704107   -2.3841372   -0.0598248 
C    -1.4877646    2.6098307    2.1885618 
C     0.4814691   -2.2167761    3.3275747 
C    -2.9133218   -0.5132656   -2.4118070 
C     2.0896124   -2.8380712   -2.0777028 
C    -1.4261525    3.0195914    0.7111474 
C    -2.4325190    3.5659240    2.9450805 
C     1.9350875   -2.0627173    2.8481901 
C     0.4439874   -2.8939302    4.7106991 
C    -3.7871055   -0.3634448   -3.6728495 
C    -2.8608399    0.8144158   -1.6429832 
C     2.7308205   -3.9423646   -2.9388852 
C     2.4818774   -2.9947691   -0.6036916 
H    -2.8929639    0.9710028    1.9153242 
H     0.5052023   -0.0763075    3.6858971 
H    -0.9519066   -0.1697769   -3.2672204 
H     0.1416078   -3.7487364   -1.8230835 
H    -1.3419949    1.4577241    4.4765004 
H    -3.0238976    0.9163694    4.3023401 
H    -2.2614962   -1.4167796    3.8910672 
H    -1.2918001   -0.8181800    5.2477121 
H    -1.7633340   -1.9962475   -4.7036635 
H    -2.0497391   -3.0482520   -3.2978290 
H     0.1852717   -3.6419633   -4.2491987 
H     0.6698404   -1.9272637   -4.2399108 
H    -2.8431861   -0.9262450    0.6256776 
H    -2.3458469   -2.0843553    1.8709555 
H    -0.6526751   -3.0961531    0.3881558 
H    -2.1497786   -2.9835001   -0.5651202 
H    -0.4764760    2.7211289    2.6226089 
H    -0.0555691   -2.8825443    2.6223148 
H    -3.3896318   -1.2802031   -1.7673110 
H     2.4716748   -1.8638237   -2.4360561 
H    -0.7500337    2.3597751    0.1334859 
H    -1.0538516    4.0536294    0.6167617 
H    -2.4257998    2.9767224    0.2437727 
H    -2.4370296    3.3844933    4.0323498 
H    -2.1155176    4.6110127    2.7860182 
H    -3.4703677    3.4670838    2.5760071 
H     2.5342493   -1.5310442    3.6099673 
H     2.4084878   -3.0426413    2.6694580 
H     1.9888013   -1.4802043    1.9115668 
H     1.0097050   -3.8413181    4.6848738 
H    -0.5851056   -3.1269207    5.0313243 
H     0.9067382   -2.2476475    5.4789787 
H    -3.9575365   -1.3281346   -4.1784405 
H    -4.7736271    0.0529753   -3.4055639 
H    -3.3128007    0.3259219   -4.3954952 
H    -2.1874095    0.7530719   -0.7716473 
H    -3.8614547    1.1125768   -1.2854648 
H    -2.4746714    1.6232543   -2.2885345 
H     2.3251999   -4.9357966   -2.6721365 
H     3.8219848   -3.9703977   -2.7750242 
H     2.5586448   -3.7801689   -4.0160083 
H     2.1086709   -3.9496261   -0.1887429 
H     3.5778111   -2.9754595   -0.4742498 
H     2.0581323   -2.1725096    0.0013489 
