97
Energy =
C     2.2307045    0.9607561   -1.5698760 
C     2.1402461    1.8784934   -0.4826398 
C     2.4120798    1.4453235    0.8421860 
H     1.6970018    2.8683830   -0.6466771 
Pd    0.7383213    0.2379765   -0.0732943 
P    -0.5634289   -0.4203042    1.7524231 
P    -0.5318404   -1.2385457   -1.3585485 
H     2.9411058    0.1287903   -1.4555961 
H     3.0666848    0.5667191    0.9501191 
C     1.0409327    1.6766550   -5.6510871 
C     0.6081453    2.5462681   -4.6364691 
C     0.9923572    2.3329511   -3.3079032 
C     1.8303108    1.2487318   -2.9617788 
C     2.2749478    0.3945862   -3.9977195 
C     1.8802824    0.6002606   -5.3254261 
H     0.7342135    1.8438749   -6.6884815 
H    -0.0385589    3.3949336   -4.8828322 
H     0.6205494    3.0082441   -2.5307274 
H     2.9475391   -0.4361550   -3.7569683 
H     2.2389818   -0.0745494   -6.1096428 
C     1.9359530    3.6401421    4.5152049 
C     1.3907709    4.1539108    3.3257842 
C     1.5517939    3.4680449    2.1178532 
C     2.2575597    2.2434910    2.0707297 
C     2.8213745    1.7522594    3.2722342 
C     2.6615046    2.4403074    4.4816587 
H     1.8073599    4.1814089    5.4579924 
H     0.8397009    5.1000469    3.3409522 
H     1.1201197    3.8902996    1.2058593 
H     3.3972222    0.8203655    3.2498763 
H     3.1088588    2.0408227    5.3977359 
C    -2.0914469    0.5935115    2.2297944 
C     0.0910797   -0.5412421    3.5156924 
C    -1.4162048   -0.7685455   -2.9501184 
C     0.2799452   -2.8000701   -2.0848410 
C    -1.7380463    1.1392524    3.6297389 
C    -1.0591728   -0.0012748    4.3965116 
C    -1.5793773   -2.1294220   -3.6589722 
C    -0.2324821   -2.8533989   -3.5494441 
C    -1.2813039   -2.0658930    1.2271234 
C    -1.8403468   -1.9298064   -0.2028969 
C    -2.6293150    1.6062021    1.1914628 
C     0.6930930   -1.9014985    3.9386500 
C    -2.6812766    0.1106467   -2.7992520 
C     1.8192673   -2.8978051   -1.9614858 
C    -4.0235144    2.1178255    1.6015135 
C    -1.6681361    2.7715943    0.9232448 
C     1.9345637   -2.2439339    3.1005330 
C     1.0459052   -1.9058439    5.4391184 
C    -3.5132157    0.1357423   -4.0962948 
C    -2.2989127    1.5429348   -2.3909455 
C     2.3511352   -4.1485494   -2.6888065 
C     2.2825423   -2.8919223   -0.5010866 
H    -2.8686016   -0.1854928    2.3662311 
H     0.9014497    0.2143919    3.5293140 
H    -0.6517915   -0.1846522   -3.5041391 
H    -0.1658422   -3.6347054   -1.5083050 
H    -1.0407403    1.9937346    3.5455934 
H    -2.6428141    1.5006119    4.1477953 
H    -1.7890339   -0.8086764    4.6018071 
H    -0.6684240    0.3426500    5.3689352 
H    -1.8645682   -1.9902013   -4.7155625 
H    -2.3867810   -2.7170845   -3.1800992 
H    -0.2992773   -3.8971202   -3.8992020 
H     0.4997282   -2.3356345   -4.1974187 
H    -2.0666393   -2.3890630    1.9336497 
H    -0.4702377   -2.8160459    1.2606756 
H    -2.2088645   -2.8987537   -0.5830016 
H    -2.6942063   -1.2287127   -0.2139049 
H    -2.7521692    1.0498789    0.2438033 
H    -0.0737882   -2.6847600    3.7722144 
H    -3.3215245   -0.3290948   -2.0085269 
H     2.2426942   -2.0063165   -2.4621770 
H    -4.7244018    1.2832449    1.7815202 
H    -4.4488768    2.7533913    0.8055054 
H    -3.9745185    2.7266959    2.5216719 
H    -0.6774454    2.3937229    0.6057962 
H    -2.0577153    3.4202926    0.1208490 
H    -1.5247795    3.3953133    1.8219957 
H     2.7503925   -1.5274965    3.3049563 
H     2.3078470   -3.2554224    3.3346171 
H     1.7230811   -2.2014076    2.0203493 
H     1.5349929   -2.8566411    5.7127254 
H     0.1542347   -1.7930681    6.0776149 
H     1.7462931   -1.0840019    5.6774301 
H    -3.9265713   -0.8552242   -4.3471453 
H    -4.3610846    0.8340244   -3.9876484 
H    -2.8985732    0.4811157   -4.9478120 
H    -1.5571629    1.5483830   -1.5728356 
H    -3.1836039    2.1153879   -2.0638766 
H    -1.8453850    2.0706408   -3.2463390 
H     1.9041196   -5.0671523   -2.2659554 
H     3.4459560   -4.2226921   -2.5709883 
H     2.1327226   -4.1283661   -3.7693194 
H     1.8734821   -3.7575626    0.0517877 
H     3.3830023   -2.9340224   -0.4279777 
H     1.9478513   -1.9671051    0.0112153 
