97
Energy =
C     2.0040823    1.0508805   -1.6182530 
C     1.9981515    1.9268792   -0.4941841 
C     2.3365821    1.4580273    0.7984768 
H     1.5722920    2.9315871   -0.5999162 
Pd    0.5699913    0.3015523   -0.0553683 
P    -0.6847812   -0.2638688    1.8336742 
P    -0.6380488   -1.3089207   -1.2281115 
H     2.6867235    0.1906932   -1.5752458 
H     2.9519643    0.5471549    0.8513677 
C     0.7871958    2.0962173   -5.6218433 
C     1.3780152    0.8521706   -5.3508293 
C     1.7742117    0.5333432   -4.0467503 
C     1.5757743    1.4384785   -2.9777811 
C     0.9799356    2.6868808   -3.2691560 
C     0.5989708    3.0134081   -4.5753932 
H     0.4842963    2.3534256   -6.6418025 
H     1.5433201    0.1337960   -6.1605984 
H     2.2534875   -0.4319862   -3.8482319 
H     0.8047600    3.4150376   -2.4709709 
H     0.1458470    3.9892949   -4.7778610 
C     2.2219331    3.6158146    4.5198591 
C     2.8489728    2.3644553    4.4321907 
C     2.8910050    1.6865858    3.2069422 
C     2.3014164    2.2394852    2.0449543 
C     1.6974188    3.5143101    2.1453629 
C     1.6562991    4.1910422    3.3682508 
H     2.1866797    4.1496112    5.4748981 
H     3.3123097    1.9168585    5.3175196 
H     3.3954409    0.7158876    3.1403492 
H     1.2540200    3.9825218    1.2618507 
H     1.1835277    5.1769757    3.4255948 
C    -2.0307919    0.9164568    2.4760191 
C     0.1371302   -0.4465128    3.5309617 
C    -1.4868890   -1.0758960   -2.8854725 
C     0.2403932   -2.9163885   -1.7524027 
C    -1.4143230    1.4722434    3.7762681 
C    -0.7952970    0.2873619    4.5198353 
C    -1.7420094   -2.5336695   -3.3193711 
C    -0.4235313   -3.2924757   -3.1130426 
C    -1.5425815   -1.8752342    1.4058058 
C    -1.9837000   -1.9250540   -0.0683319 
C    -2.6492155    1.9774704    1.5383493 
C     0.5857506   -1.8634597    3.9561372 
C    -2.6775937   -0.0905824   -2.9371652 
C     1.7881830   -2.8618435   -1.8430773 
C    -1.6259502    2.9539084    0.9412609 
C    -3.5119049    1.3348960    0.4470941 
C     1.6451305   -2.4238126    2.9964799 
C     1.1287233   -1.8542405    5.3993183 
C    -3.4847891   -0.2483186   -4.2409674 
C    -2.1829175    1.3585314   -2.7997655 
C     2.3523887   -4.1637112   -2.4494689 
C     2.4551766   -2.5998960   -0.4884243 
H    -2.8417576    0.2199904    2.7702050 
H     1.0443084    0.1775805    3.4201109 
H    -0.6774871   -0.6649318   -3.5251522 
H    -0.0346143   -3.6554386   -0.9749987 
H    -0.6315403    2.2195766    3.5468596 
H    -2.1907038    1.9816036    4.3741007 
H    -1.5907914   -0.3978822    4.8717393 
H    -0.2275283    0.6176996    5.4058799 
H    -2.0505584   -2.5821321   -4.3774747 
H    -2.5658678   -2.9742811   -2.7263402 
H    -0.5584015   -4.3839107   -3.1928557 
H     0.2665297   -2.9933304   -3.9231563 
H    -2.3999142   -2.0430410    2.0815966 
H    -0.8075661   -2.6748745    1.6056555 
H    -2.2744029   -2.9523153   -0.3485663 
H    -2.8646687   -1.2827631   -0.2311760 
H    -3.3254986    2.5642659    2.1922459 
H    -0.3002742   -2.5297207    3.9366727 
H    -3.3642751   -0.3223495   -2.0987402 
H     2.0433890   -2.0284268   -2.5272298 
H    -1.0808509    3.5024187    1.7253246 
H    -2.1257213    3.6923466    0.2912238 
H    -0.8830178    2.4064918    0.3247327 
H    -4.2649833    0.6482500    0.8734277 
H    -4.0420011    2.0995295   -0.1450417 
H    -2.8764250    0.7646184   -0.2493972 
H     1.2845037   -2.4434717    1.9563312 
H     2.5572550   -1.7995767    3.0131276 
H     1.9337317   -3.4516281    3.2751643 
H     1.9653694   -1.1376925    5.4971782 
H     1.5073022   -2.8549611    5.6698717 
H     0.3546797   -1.5800647    6.1347107 
H    -3.9708732   -1.2353955   -4.3151931 
H    -4.2771094    0.5185311   -4.2890596 
H    -2.8332051   -0.1144523   -5.1240100 
H    -1.5174307    1.4878577   -1.9271544 
H    -3.0286485    2.0587664   -2.6939426 
H    -1.6066714    1.6472620   -3.6946450 
H     2.0682186   -5.0348398   -1.8307863 
H     3.4546059   -4.1206276   -2.4824852 
H     1.9957926   -4.3439335   -3.4766160 
H     2.2965890   -3.4514362    0.1966259 
H     3.5439672   -2.4591323   -0.6034241 
H     2.0433696   -1.6915513   -0.0043736 
