97
Energy =
C     2.0607576    0.9159265   -1.6486687 
C     1.9373711    1.9389228   -0.6654827 
C     2.2206408    1.6842408    0.6961961 
H     1.4840477    2.8968242   -0.9471374 
Pd    0.5574661    0.3008668   -0.1275017 
P    -0.7966096   -0.3783777    1.6771868 
P    -0.6368456   -1.2210716   -1.4379709 
H     2.7844384    0.1136858   -1.4407648 
H     2.8654752    0.8216636    0.9197886 
C     1.0104456    1.2770549   -5.8127310 
C     1.8664485    0.2555304   -5.3740588 
C     2.2141300    0.1620179   -4.0200871 
C     1.7084338    1.0811564   -3.0727944 
C     0.8565670    2.1123463   -3.5328835 
C     0.5145028    2.2097726   -4.8861619 
H     0.7375515    1.3524204   -6.8700917 
H     2.2706829   -0.4676764   -6.0899125 
H     2.8923278   -0.6320303   -3.6880580 
H     0.4419634    2.8364681   -2.8243150 
H    -0.1484052    3.0145234   -5.2203526 
C     2.0109506    4.5372117    3.9110584 
C     2.5949048    3.2762783    4.1052381 
C     2.6514990    2.3594272    3.0491081 
C     2.1173388    2.6764128    1.7781725 
C     1.5331293    3.9528153    1.5990574 
C     1.4854214    4.8713446    2.6519400 
H     1.9707144    5.2588464    4.7331912 
H     3.0170207    3.0102936    5.0798193 
H     3.1226752    1.3831711    3.2010877 
H     1.1112587    4.2360987    0.6300060 
H     1.0344055    5.8559491    2.4908883 
C    -2.3113251    0.5954272    2.2251949 
C    -0.2899784   -0.8078138    3.4319799 
C    -1.3611112   -0.7690392   -3.1102486 
C     0.1935921   -2.8222554   -2.0349866 
C    -2.7703710   -0.1351025    3.5293418 
C    -1.6545390   -1.0438711    4.1280280 
C    -1.3685371   -2.1120647   -3.8722141 
C    -0.0459798   -2.8243141   -3.5660804 
C    -1.6152380   -1.9594232    1.0715950 
C    -2.0646358   -1.8070186   -0.3872972 
C    -2.1305113    2.1274219    2.4132591 
C     0.7482118   -1.9473886    3.5932878 
C    -2.6985577    0.0048777   -3.0836713 
C     1.6674940   -3.0176819   -1.6083871 
C    -1.0932355    2.5039522    3.4813135 
C    -1.8627156    2.8528798    1.0866554 
C     2.1398473   -1.5037474    3.1124751 
C     0.8320389   -2.4346710    5.0537405 
C    -3.1630645    0.3344138   -4.5160260 
C    -2.5941500    1.2894850   -2.2465721 
C     2.2867236   -4.2535557   -2.2887567 
C     1.8029978   -3.1176588   -0.0837466 
H    -3.0598900    0.4517583    1.4242036 
H     0.1611304    0.1259391    3.8164623 
H    -0.5904187   -0.1163277   -3.5636433 
H    -0.4085185   -3.6327125   -1.5773567 
H    -3.0807392    0.6260442    4.2648742 
H    -3.6697065   -0.7381123    3.3218229 
H    -1.9298173   -2.1073025    4.0100486 
H    -1.5531893   -0.8706312    5.2123851 
H    -1.4854496   -1.9458672   -4.9565859 
H    -2.2287733   -2.7268641   -3.5418129 
H    -0.0391208   -3.8556732   -3.9570990 
H     0.7782473   -2.2781158   -4.0601447 
H    -2.4703246   -2.2166288    1.7196019 
H    -0.8726368   -2.7713319    1.1686857 
H    -2.4678481   -2.7534833   -0.7890204 
H    -2.8650302   -1.0500849   -0.4667974 
H    -3.1195957    2.4713492    2.7792513 
H     0.4189582   -2.8067294    2.9749022 
H    -3.4642413   -0.6538060   -2.6263687 
H     2.2288717   -2.1243070   -1.9462237 
H    -1.2945026    2.0132610    4.4494461 
H    -1.1006027    3.5924270    3.6547279 
H    -0.0718339    2.2365555    3.1613699 
H    -2.6894671    2.7018240    0.3722894 
H    -1.7487004    3.9376528    1.2524464 
H    -0.9321527    2.4826062    0.6133649 
H     2.5562905   -0.7465649    3.8002468 
H     2.8390651   -2.3564288    3.0845787 
H     2.1013298   -1.0596014    2.1031497 
H     1.0842804   -1.5984718    5.7316308 
H     1.6223819   -3.1985269    5.1539011 
H    -0.1123814   -2.8851583    5.4008424 
H    -3.3597686   -0.5750896   -5.1075005 
H    -4.0951746    0.9249030   -4.4909284 
H    -2.3953056    0.9294293   -5.0437659 
H    -2.2405933    1.0857632   -1.2202482 
H    -3.5711626    1.7978395   -2.1765345 
H    -1.8757766    1.9918954   -2.7031980 
H     1.7160965   -5.1668476   -2.0383014 
H     3.3246022   -4.4007259   -1.9434314 
H     2.3106797   -4.1563812   -3.3869089 
H     1.2627026   -4.0003683    0.3062537 
H     2.8597909   -3.2062687    0.2206060 
H     1.3906305   -2.2158021    0.4061285 
