97
Energy =
C     2.0174580    1.1216468   -1.5900028 
C     1.8849954    2.0435752   -0.5105996 
C     2.2293806    1.6574742    0.8096877 
H     1.3522602    2.9882559   -0.6741621 
Pd    0.6298357    0.3032181   -0.0350121 
P    -0.6482069   -0.2981636    1.8275958 
P    -0.5650687   -1.3016296   -1.2335626 
H     2.8097228    0.3657395   -1.5016833 
H     2.9359410    0.8197063    0.9138754 
C     0.6169935    1.6988985   -5.6226745 
C     1.6257130    0.7655737   -5.3403034 
C     2.0854315    0.6037371   -4.0268295 
C     1.5404809    1.3628865   -2.9652473 
C     0.5267562    2.3016158   -3.2667575 
C     0.0760870    2.4707658   -4.5802658 
H     0.2568880    1.8290587   -6.6481139 
H     2.0627437    0.1676015   -6.1466496 
H     2.8863674   -0.1139701   -3.8167603 
H     0.0679886    2.8876158   -2.4633696 
H    -0.7107004    3.2019579   -4.7932520 
C     1.7701002    3.9499503    4.4257608 
C     1.3185479    4.4822905    3.2065727 
C     1.4670863    3.7575455    2.0191656 
C     2.0738445    2.4802361    2.0230239 
C     2.5487862    1.9705644    3.2541375 
C     2.3926983    2.6924186    4.4436969 
H     1.6513276    4.5200890    5.3526526 
H     0.8480342    5.4706116    3.1817883 
H     1.1039958    4.1916922    1.0822354 
H     3.0501962    0.9961075    3.2711741 
H     2.7670793    2.2773101    5.3852586 
C    -1.9475219    0.9286843    2.4815085 
C     0.0234661   -0.7285458    3.5264827 
C    -1.1525176   -1.1322179   -3.0265036 
C     0.3003747   -2.9481347   -1.5345370 
C    -1.8418009    0.8172685    4.0313979 
C    -1.2030108   -0.5148065    4.4376148 
C    -0.8987554   -2.5338949   -3.6706876 
C    -0.6483228   -3.5812863   -2.5730982 
C    -1.6298920   -1.8118971    1.3159675 
C    -2.0394018   -1.7505077   -0.1644958 
C    -1.7993239    2.3927070    1.9931296 
C     0.7476902   -2.0845113    3.6855717 
C    -2.5923939   -0.5874803   -3.2256903 
C     1.7619744   -2.7314328   -2.0377422 
C    -1.9435401    2.5457830    0.4752170 
C    -2.8112230    3.3128240    2.7058178 
C     1.8274001   -2.2900968    2.6141144 
C     1.3533470   -2.2108207    5.0975201 
C    -2.9055757   -0.4304195   -4.7281329 
C    -2.8041605    0.7626057   -2.5260304 
C     2.3002713   -3.9377274   -2.8304722 
C     2.7104633   -2.4127101   -0.8727885 
H    -2.9217559    0.5300739    2.1356273 
H     0.7504570    0.0857631    3.7227165 
H    -0.4564709   -0.3909036   -3.4604522 
H     0.3175234   -3.5314733   -0.5945272 
H    -1.1910375    1.6365158    4.3896040 
H    -2.8299222    0.9583835    4.4998195 
H    -1.9124389   -1.3558159    4.3142052 
H    -0.9089070   -0.4983413    5.5011330 
H    -0.0241324   -2.4733527   -4.3410674 
H    -1.7551941   -2.8317211   -4.2965950 
H    -1.6035517   -3.8519285   -2.0867855 
H    -0.2384179   -4.5198002   -2.9823520 
H    -2.5145445   -1.9296584    1.9661419 
H    -0.9751299   -2.6834244    1.4961976 
H    -2.4767747   -2.7088256   -0.4940086 
H    -2.8055103   -0.9718640   -0.3221417 
H    -0.7825179    2.7219887    2.2777440 
H    -0.0090740   -2.8868777    3.5729508 
H    -3.3002930   -1.3276469   -2.8000299 
H     1.7554817   -1.8585373   -2.7204471 
H    -1.2176184    1.9047170   -0.0665574 
H    -1.7607097    3.5907014    0.1687407 
H    -2.9605363    2.2720220    0.1415337 
H    -2.6684810    3.3313421    3.7986567 
H    -2.7034919    4.3488503    2.3405790 
H    -3.8489472    2.9903739    2.5003113 
H     2.5821614   -1.4832410    2.6500067 
H     2.3518898   -3.2503948    2.7561768 
H     1.3945688   -2.2895190    1.5998222 
H     2.0874451   -1.4041851    5.2799966 
H     1.8774363   -3.1757974    5.2061846 
H     0.5844455   -2.1580706    5.8858806 
H    -2.8403750   -1.3834864   -5.2783458 
H    -3.9275279   -0.0367156   -4.8645809 
H    -2.1988355    0.2814206   -5.1922630 
H    -2.5815439    0.7142478   -1.4493672 
H    -3.8469687    1.1052247   -2.6396844 
H    -2.1420364    1.5294610   -2.9620234 
H     2.2441685   -4.8639756   -2.2298566 
H     3.3597060   -3.7724845   -3.0921270 
H     1.7514582   -4.1044863   -3.7722304 
H     2.8247472   -3.2879777   -0.2088201 
H     3.7125990   -2.1357280   -1.2437404 
H     2.3283462   -1.5726155   -0.2615682 
