97
Energy =
C     2.3389385    0.8333157   -1.4835785 
C     2.0779572    1.9003491   -0.5822061 
C     2.2046244    1.7194219    0.8220723 
H     1.6083024    2.8143135   -0.9656174 
Pd    0.7204096    0.2612245   -0.0359514 
P    -0.5338519   -0.3770975    1.8234008 
P    -0.6129019   -1.1828227   -1.2946995 
H     3.0414423    0.0567994   -1.1441748 
H     2.9085842    0.9492562    1.1685109 
C     1.7870800    0.9064310   -5.7548050 
C     2.6582691   -0.0178387   -5.1585257 
C     2.8311000   -0.0260207   -3.7686144 
C     2.1382106    0.8893193   -2.9436554 
C     1.2660615    1.8173140   -3.5604154 
C     1.0953140    1.8261920   -4.9493295 
H     1.6508809    0.9146430   -6.8409181 
H     3.2092135   -0.7326078   -5.7784598 
H     3.5197358   -0.7457960   -3.3120721 
H     0.7037526    2.5300184   -2.9473951 
H     0.4136303    2.5508289   -5.4064510 
C     1.0753453    4.5544277    3.8653551 
C     0.7728993    4.8224044    2.5199212 
C     1.1412537    3.9184699    1.5177411 
C     1.8295108    2.7245711    1.8360896 
C     2.1526278    2.4838296    3.1917826 
C     1.7725372    3.3823161    4.1964671 
H     0.7809994    5.2613576    4.6475449 
H     0.2410064    5.7409089    2.2510854 
H     0.8760664    4.1422140    0.4797546 
H     2.7168415    1.5819551    3.4541516 
H     2.0326199    3.1738437    5.2395199 
C    -1.9093691    0.6951002    2.5640021 
C     0.2431888   -0.7931068    3.4748868 
C    -1.3891083   -0.4770793   -2.8494632 
C     0.0842949   -2.7237469   -2.1462139 
C    -1.7740759    0.4845670    4.1026915 
C    -0.9812252   -0.7948596    4.4146426 
C    -1.4314686   -1.6660012   -3.8320988 
C    -0.1166485   -2.4346085   -3.6556943 
C    -1.4551656   -1.9207040    1.2927267 
C    -1.9781962   -1.7407249   -0.1413791 
C    -1.8860720    2.1867180    2.1498513 
C     1.1930706   -2.0148312    3.5038859 
C    -2.6755854    0.3789663   -2.6846917 
C     1.5258478   -3.0988138   -1.7303533 
C    -2.0393184    2.3819572    0.6353164 
C    -2.9775856    2.9791400    2.8956465 
C     2.4996852   -1.7089201    2.7500517 
C     1.5034170   -2.4532148    4.9483048 
C    -3.9779484   -0.4414163   -2.7243594 
C    -2.7103937    1.4891545   -3.7532227 
C     2.1108602   -4.1964771   -2.6381920 
C     1.5824909   -3.5250719   -0.2573327 
H    -2.8528338    0.2421159    2.2006920 
H     0.8378086    0.1133965    3.7096025 
H    -0.5826399    0.1977568   -3.1963592 
H    -0.5965313   -3.5476784   -1.8507687 
H    -1.2152161    1.3442925    4.5166078 
H    -2.7658215    0.4794604    4.5843823 
H    -1.5929788   -1.7025434    4.2506539 
H    -0.6681183   -0.8074422    5.4725972 
H    -1.5604603   -1.3121215   -4.8701093 
H    -2.2863191   -2.3281747   -3.6021371 
H    -0.1165078   -3.3769969   -4.2289768 
H     0.7246427   -1.8205052   -4.0265519 
H    -2.2849154   -2.1266107    1.9912534 
H    -0.7538248   -2.7708737    1.3513235 
H    -2.4518634   -2.6634755   -0.5198756 
H    -2.7420442   -0.9420845   -0.1637994 
H    -0.9037624    2.5939779    2.4529693 
H     0.6896397   -2.8651534    3.0021047 
H    -2.6144352    0.8807056   -1.7005390 
H     2.1457756   -2.1884273   -1.8497093 
H    -1.2382917    1.8549717    0.0762391 
H    -1.9832507    3.4519225    0.3711611 
H    -3.0153145    1.9985381    0.2834106 
H    -2.8488719    2.9408119    3.9899624 
H    -2.9473771    4.0407955    2.5957060 
H    -3.9835885    2.5878621    2.6546318 
H     3.0752435   -0.9262061    3.2774206 
H     3.1365014   -2.6069078    2.6814005 
H     2.3050606   -1.3507146    1.7229460 
H     0.6025704   -2.8060981    5.4772035 
H     1.9391404   -1.6187101    5.5280702 
H     2.2352363   -3.2792750    4.9461885 
H    -3.9709490   -1.2923803   -2.0221719 
H    -4.8375810    0.2002728   -2.4652404 
H    -4.1616224   -0.8461798   -3.7351781 
H    -1.8354924    2.1561974   -3.6656739 
H    -3.6211172    2.1042019   -3.6495723 
H    -2.7089380    1.0593921   -4.7713511 
H     1.4813750   -5.1051447   -2.6162369 
H     3.1206173   -4.4796011   -2.2938637 
H     2.1960746   -3.8642248   -3.6862328 
H     0.9708908   -4.4297473   -0.0829615 
H     2.6162897   -3.7478647    0.0567066 
H     1.2046445   -2.7210980    0.3985423 
