97
Energy =
C     2.1578147    0.9518716   -1.6512978 
C     1.9605240    1.9814852   -0.6887466 
C     2.1958810    1.7439183    0.6902404 
H     1.4483826    2.9023535   -0.9921997 
Pd    0.6596157    0.2980109   -0.1340822 
P    -0.5929460   -0.3461361    1.7434981 
P    -0.6054817   -1.2171549   -1.3943289 
H     2.9003289    0.1768598   -1.4075950 
H     2.9079948    0.9462815    0.9479797 
C     1.1021890    1.0921526   -5.8265610 
C     1.9493636    0.0887128   -5.3319666 
C     2.3014140    0.0708285   -3.9763190 
C     1.8091039    1.0491222   -3.0822495 
C     0.9668880    2.0609864   -3.5986547 
C     0.6200533    2.0824542   -4.9541943 
H     0.8260698    1.1090664   -6.8856396 
H     2.3430195   -0.6793403   -6.0057916 
H     2.9703283   -0.7113519   -3.6000009 
H     0.5651350    2.8322368   -2.9339631 
H    -0.0351107    2.8738730   -5.3326151 
C     1.3071090    4.4218939    3.9452800 
C     1.9133624    3.1777056    4.1808569 
C     2.2173772    2.3316859    3.1082491 
C     1.9083444    2.6991194    1.7776130 
C     1.3237107    3.9667038    1.5552086 
C     1.0266162    4.8160253    2.6268048 
H     1.0701504    5.0876483    4.7812436 
H     2.1584039    2.8705177    5.2029461 
H     2.7018387    1.3680054    3.2952756 
H     1.0934985    4.2974206    0.5380347 
H     0.5741189    5.7938895    2.4324612 
C    -1.9308205    0.7496416    2.5227458 
C     0.1191366   -0.8633131    3.4036576 
C    -1.3440434   -0.7949833   -3.0770121 
C     0.1516122   -2.8671586   -1.9619135 
C    -1.9686072    0.3086713    4.0226416 
C    -1.1581378   -0.9758620    4.2618239 
C    -1.3993983   -2.1573979   -3.8002494 
C    -0.0970119   -2.8978794   -3.4895811 
C    -1.5706142   -1.8471850    1.1724524 
C    -2.0366259   -1.6802678   -0.2830258 
C    -1.7268225    2.2803946    2.3665334 
C     1.1080114   -2.0566522    3.4133601 
C    -2.6626973    0.0108242   -3.0750358 
C     1.6238636   -3.1027687   -1.5505195 
C    -1.7466000    2.7367927    0.9039653 
C    -2.7995330    3.0579153    3.1567075 
C     2.4995171   -1.6110901    2.9309424 
C     1.2183351   -2.7032539    4.8080833 
C    -3.1606018    0.2462477   -4.5150680 
C    -2.5029222    1.3492820   -2.3418573 
C     2.2076918   -4.3537389   -2.2346055 
C     1.7643387   -3.2080672   -0.0291081 
H    -2.8710075    0.4674121    2.0101770 
H     0.6630070    0.0437614    3.7390600 
H    -0.5588457   -0.1781787   -3.5567684 
H    -0.4750922   -3.6447986   -1.4805273 
H    -1.5019119    1.1122458    4.6196180 
H    -3.0079899    0.2093579    4.3762491 
H    -1.7291107   -1.8826565    3.9889849 
H    -0.9056928   -1.0726210    5.3314025 
H    -1.5247576   -2.0164374   -4.8871017 
H    -2.2734929   -2.7369309   -3.4432221 
H    -0.1201823   -3.9378027   -3.8565074 
H     0.7385782   -2.3852069   -4.0010091 
H    -2.4342509   -2.0132475    1.8390250 
H    -0.9055010   -2.7241405    1.2707989 
H    -2.5300223   -2.5963832   -0.6538424 
H    -2.7718934   -0.8582595   -0.3554980 
H    -0.7377073    2.5285628    2.7984301 
H     0.7286190   -2.8350077    2.7229060 
H    -3.4304820   -0.5925732   -2.5499874 
H     2.2047139   -2.2220981   -1.8904343 
H    -0.9633732    2.2271269    0.3087376 
H    -1.5702615    3.8228693    0.8337968 
H    -2.7254933    2.5223274    0.4390612 
H    -2.7793813    2.8339690    4.2357697 
H    -2.6375606    4.1434062    3.0412454 
H    -3.8117923    2.8243502    2.7775173 
H     2.9647812   -0.9386000    3.6745044 
H     3.1694935   -2.4768467    2.7976737 
H     2.4446374   -1.0710587    1.9699696 
H     1.5267804   -1.9601655    5.5661516 
H     1.9789560   -3.5028406    4.7939091 
H     0.2663932   -3.1536939    5.1346161 
H    -3.4128056   -0.6960081   -5.0289705 
H    -4.0677494    0.8748803   -4.5067044 
H    -2.3891915    0.7687304   -5.1103188 
H    -2.1054247    1.2090662   -1.3235715 
H    -3.4675754    1.8792897   -2.2630097 
H    -1.7964040    2.0033541   -2.8812904 
H     1.6137492   -5.2519551   -1.9838605 
H     3.2419182   -4.5286027   -1.8911519 
H     2.2328456   -4.2564568   -3.3326175 
H     1.2031745   -4.0773401    0.3615349 
H     2.8191882   -3.3217223    0.2717130 
H     1.3749497   -2.2960743    0.4591174 
