97
Energy =
C     2.2734095    0.9480287   -1.5358366 
C     2.1031582    1.9176661   -0.4978414 
C     2.3734163    1.5822469    0.8503241 
H     1.5947745    2.8625900   -0.7288195 
Pd    0.8009822    0.2106986   -0.0472811 
P    -0.6846653   -0.2044677    1.7002976 
P    -0.3098062   -1.4470112   -1.2390240 
H     3.0793326    0.2118319   -1.4012236 
H     3.0316998    0.7162223    1.0240124 
C     1.0015484    1.5038758   -5.6196164 
C     0.2950881    2.1240328   -4.5758275 
C     0.7056582    1.9562198   -3.2483369 
C     1.8379711    1.1678629   -2.9326369 
C     2.5443704    0.5602513   -3.9946480 
C     2.1298765    0.7245212   -5.3230429 
H     0.6767236    1.6318236   -6.6571035 
H    -0.5865396    2.7346213   -4.7973431 
H     0.1257675    2.4212248   -2.4430336 
H     3.4362601   -0.0375303   -3.7760946 
H     2.6950258    0.2471126   -6.1302670 
C     1.7775519    3.9965567    4.3634388 
C     2.3116220    2.7023115    4.4601816 
C     2.5191002    1.9417302    3.3031882 
C     2.1834642    2.4493666    2.0260435 
C     1.6723344    3.7656814    1.9435580 
C     1.4712331    4.5278659    3.0994347 
H     1.6184726    4.5962725    5.2653075 
H     2.5764686    2.2884469    5.4387032 
H     2.9522967    0.9379125    3.3814046 
H     1.4314908    4.2025904    0.9691131 
H     1.0761958    5.5454145    3.0145614 
C    -1.8511658    1.1731447    2.2875088 
C    -0.1190450   -0.6784091    3.4284033 
C    -1.5091689   -0.8485018   -2.5476801 
C     0.5324526   -2.7146023   -2.3624886 
C    -1.6809394    1.1878690    3.8297383 
C    -1.2942592   -0.2153188    4.3135944 
C    -1.5008939   -1.9640640   -3.6124809 
C    -0.0422500   -2.4129026   -3.7700040 
C    -1.8376472   -1.5771383    1.1323447 
C    -1.1925731   -2.4666869    0.0574407 
C    -1.6200041    2.5504628    1.6176676 
C     0.3839114   -2.1278433    3.6084685 
C    -2.8831972   -0.2932456   -2.0821714 
C     2.0753270   -2.7604034   -2.2834121 
C    -1.8722265    2.5274291    0.1035436 
C    -2.4778522    3.6427055    2.2842096 
C     1.6465300   -2.3765021    2.7681389 
C     0.6525772   -2.4464654    5.0921009 
C    -3.9722116   -1.3681558   -1.9212001 
C    -3.3531015    0.8159847   -3.0425631 
C     2.6495940   -3.7885357   -3.2759165 
C     2.5676558   -3.0406523   -0.8573033 
H    -2.8698043    0.8160147    2.0362307 
H     0.7290620    0.0107195    3.6149007 
H    -0.9337927    0.0012212   -2.9663291 
H     0.1322632   -3.6899234   -2.0168341 
H    -0.8678013    1.8918356    4.0913549 
H    -2.5999180    1.5521065    4.3185913 
H    -2.1469597   -0.9162790    4.2176000 
H    -1.0055094   -0.2019846    5.3785551 
H    -1.9221576   -1.6008274   -4.5664761 
H    -2.1228558   -2.8176356   -3.2842152 
H     0.0406011   -3.3013925   -4.4181767 
H     0.5488748   -1.6032867   -4.2384933 
H    -2.7378589   -1.0803578    0.7315502 
H    -2.1623531   -2.1738787    2.0031743 
H    -0.4074371   -3.1079834    0.4994968 
H    -1.9322454   -3.1372814   -0.4145476 
H    -0.5577707    2.8085634    1.7827719 
H    -0.4108031   -2.8183037    3.2601355 
H    -2.7262491    0.1833132   -1.0975541 
H     2.4396607   -1.7601971   -2.5821509 
H    -1.2353222    1.7702249   -0.3966277 
H    -1.6390977    3.5088271   -0.3455782 
H    -2.9285938    2.2969341   -0.1256429 
H    -2.2267185    3.7767236    3.3493936 
H    -2.3168604    4.6122345    1.7815722 
H    -3.5545423    3.4009385    2.2117277 
H     2.4839582   -1.7504302    3.1272334 
H     1.9648056   -3.4314186    2.8231350 
H     1.4823026   -2.1240166    1.7061196 
H     1.0707289   -3.4625932    5.1947552 
H    -0.2665483   -2.4003899    5.6993744 
H     1.3839719   -1.7358081    5.5193751 
H    -3.6582054   -2.1989531   -1.2664723 
H    -4.8817821   -0.9230156   -1.4824241 
H    -4.2549421   -1.8012149   -2.8964859 
H    -2.6233935    1.6436236   -3.0802726 
H    -4.3237900    1.2304677   -2.7191078 
H    -3.4794065    0.4262491   -4.0687415 
H     2.2584983   -4.8012761   -3.0661038 
H     3.7494255   -3.8294996   -3.1920039 
H     2.4036764   -3.5359181   -4.3208346 
H     2.1946315   -4.0130074   -0.4854926 
H     3.6703065   -3.0642060   -0.8148964 
H     2.2241573   -2.2530571   -0.1611170 
