97
Energy =
C     2.1188733    0.9807026   -1.6530124 
C     2.0393130    1.9348108   -0.5889903 
C     2.3654936    1.5560028    0.7334781 
H     1.5670522    2.9079952   -0.7724899 
Pd    0.6871584    0.2588150   -0.1253648 
P    -0.7398125   -0.2082692    1.6631525 
P    -0.3594511   -1.4398559   -1.3120833 
H     2.9078142    0.2194072   -1.5771707 
H     2.9878733    0.6546963    0.8494449 
C     0.5441356    1.5593630   -5.6254025 
C     0.0220202    2.2978064   -4.5500769 
C     0.5365946    2.1280983   -3.2599332 
C     1.5951643    1.2221480   -3.0142026 
C     2.1199253    0.4980571   -4.1085377 
C     1.5976042    0.6607843   -5.3985730 
H     0.1361809    1.6889167   -6.6328820 
H    -0.7982466    3.0037569   -4.7178786 
H     0.0909544    2.6832212   -2.4273402 
H     2.9535471   -0.1941568   -3.9459310 
H     2.0213191    0.0898155   -6.2313438 
C     2.1065374    3.8861537    4.3387718 
C     2.6413022    2.5887457    4.3562165 
C     2.7337712    1.8545280    3.1681892 
C     2.2821820    2.3934596    1.9394438 
C     1.7729613    3.7126200    1.9344126 
C     1.6838710    4.4470076    3.1214846 
H     2.0345849    4.4652899    5.2648672 
H     2.9956451    2.1521297    5.2956504 
H     3.1685715    0.8484339    3.1832245 
H     1.4465859    4.1723064    0.9970314 
H     1.2876860    5.4674290    3.0980019 
C    -1.8688191    1.0875181    2.4358761 
C     0.0734479   -0.6587987    3.3203704 
C    -1.3870065   -1.0695208   -2.8425075 
C     0.6412678   -2.8343312   -2.1256572 
C    -1.0538672    1.5647299    3.6511314 
C    -0.5751307    0.2906941    4.3605339 
C    -1.3071951   -2.3851040   -3.6444943 
C     0.1514011   -2.8541934   -3.5954360 
C    -1.9747309   -1.4871250    1.0519263 
C    -1.4548782   -2.3642529   -0.0975197 
C    -2.5002244    2.1458598    1.5049777 
C     0.0982687   -2.1543444    3.7112290 
C    -2.7956349   -0.4874887   -2.5873188 
C     2.1775306   -2.7490382   -1.9629888 
C    -3.5820331    2.9492755    2.2538134 
C    -1.4767189    3.0814123    0.8481098 
C     0.9279921   -2.9755003    2.7134858 
C     0.6487645   -2.3445839    5.1386501 
C    -3.6246753   -0.4367236   -3.8855638 
C    -2.7015678    0.9135201   -1.9639324 
C     2.8755633   -3.8848835   -2.7360870 
C     2.6109033   -2.7567061   -0.4904307 
H    -2.7002318    0.4642824    2.8281222 
H     1.1178512   -0.3291449    3.1652556 
H    -0.7846686   -0.3058418   -3.3756610 
H     0.2887276   -3.7542578   -1.6175225 
H    -0.1916405    2.1765255    3.3287099 
H    -1.6686264    2.1900307    4.3208055 
H    -1.4425618   -0.2141836    4.8268764 
H     0.1444880    0.5192484    5.1646597 
H    -1.6395518   -2.2307070   -4.6851052 
H    -1.9785928   -3.1455566   -3.1985835 
H     0.2709501   -3.8603993   -4.0308412 
H     0.7721664   -2.1589673   -4.1911112 
H    -2.8313863   -0.8786476    0.7072925 
H    -2.3354089   -2.1041578    1.8936050 
H    -0.8240982   -3.1800853    0.2955625 
H    -2.2892720   -2.8423310   -0.6416270 
H    -3.0154443    1.5872007    0.7014614 
H    -0.9453283   -2.5294937    3.7019928 
H    -3.3257572   -1.1576569   -1.8802170 
H     2.4950199   -1.7895846   -2.4129092 
H    -4.3310620    2.2839045    2.7186937 
H    -4.1114062    3.6225305    1.5576469 
H    -3.1393671    3.5748390    3.0490991 
H    -0.6815156    2.5040279    0.3374679 
H    -1.9653153    3.7257325    0.0970922 
H    -0.9972989    3.7331249    1.5972369 
H     1.9890625   -2.6681469    2.7433153 
H     0.8806657   -4.0534826    2.9439458 
H     0.5793574   -2.8339219    1.6777215 
H     1.6687157   -1.9258647    5.2224111 
H     0.7040275   -3.4188374    5.3854616 
H     0.0153181   -1.8593917    5.8992613 
H    -3.8276243   -1.4423044   -4.2896782 
H    -4.5970188    0.0506570   -3.6978756 
H    -3.0963493    0.1477641   -4.6610866 
H    -2.0246980    0.9239904   -1.0906329 
H    -3.6931062    1.2757741   -1.6427535 
H    -2.2950729    1.6326190   -2.6953808 
H     2.5390496   -4.8729574   -2.3715200 
H     3.9687424   -3.8291251   -2.5944574 
H     2.6762007   -3.8340891   -3.8194192 
H     2.3164697   -3.6988818    0.0063609 
H     3.7066417   -2.6568086   -0.4017222 
H     2.1490802   -1.9180590    0.0677225 
