97
Energy =
C     2.1162092    1.0479301   -1.6510335 
C     2.0106735    1.9695840   -0.5684246 
C     2.3364749    1.5626383    0.7493196 
H     1.5250834    2.9399376   -0.7295448 
Pd    0.6717439    0.2769531   -0.1173884 
P    -0.6265976   -0.2997244    1.7278341 
P    -0.5868576   -1.2813658   -1.3076062 
H     2.8786047    0.2626199   -1.5584179 
H     3.0028190    0.6912320    0.8458398 
C     0.7552087    1.6563829   -5.6912526 
C     1.6891131    0.6528610   -5.3903303 
C     2.1393122    0.4837106   -4.0749151 
C     1.6610420    1.3068424   -3.0288750 
C     0.7226928    2.3155673   -3.3487676 
C     0.2807302    2.4904953   -4.6650074 
H     0.4029136    1.7924482   -6.7186501 
H     2.0734929    0.0040400   -6.1841527 
H     2.8759204   -0.2951955   -3.8470304 
H     0.3158489    2.9548157   -2.5582504 
H    -0.4460546    3.2774305   -4.8922486 
C     1.9579296    3.7946480    4.4092261 
C     2.6528086    2.5767698    4.3770109 
C     2.7825630    1.8764633    3.1709739 
C     2.2134741    2.3711521    1.9726944 
C     1.5413747    3.6145400    2.0178428 
C     1.4135620    4.3142582    3.2217635 
H     1.8544333    4.3463023    5.3490466 
H     3.1017330    2.1740508    5.2908609 
H     3.3417515    0.9341031    3.1479904 
H     1.1133456    4.0409713    1.1062235 
H     0.8893327    5.2754952    3.2357008 
C    -2.0165487    0.8196899    2.3578683 
C     0.1898638   -0.4772587    3.4099110 
C    -1.1941010   -0.8761561   -3.0446050 
C     0.1424056   -2.9606253   -1.7889764 
C    -1.4542599    1.3605211    3.6905248 
C    -0.7983326    0.1692995    4.4061197 
C    -0.9452893   -2.1650322   -3.8619154 
C     0.3237047   -2.8355568   -3.3169284 
C    -1.5222056   -1.8740223    1.2542068 
C    -2.0251906   -1.7423232   -0.1986265 
C    -2.6438133    1.8278509    1.3664542 
C     0.7452643   -1.8778250    3.7498974 
C    -2.6084790   -0.2586042   -3.1337130 
C     1.3273038   -3.5190143   -0.9625907 
C    -3.8915091    2.4893090    1.9837080 
C    -1.6607162    2.8839736    0.8455814 
C     1.8477186   -2.2783443    2.7533564 
C     1.2826911   -1.9240183    5.1931001 
C    -3.0512785   -0.1045292   -4.6017786 
C    -2.6567946    1.1038050   -2.4206482 
C     2.5915531   -2.6502192   -1.0040906 
C     1.6373270   -4.9693385   -1.3831791 
H    -2.8081028    0.0881304    2.6173158 
H     1.0498595    0.2151298    3.3236248 
H    -0.4677105   -0.1143469   -3.3867024 
H    -0.7130946   -3.6458318   -1.6232766 
H    -0.6994006    2.1479549    3.5051936 
H    -2.2579477    1.8091338    4.2989431 
H    -1.5711238   -0.5630321    4.7105439 
H    -0.2682826    0.4889965    5.3193016 
H    -0.8464775   -1.9238261   -4.9336699 
H    -1.8066039   -2.8526718   -3.7556185 
H     0.4882268   -3.8264504   -3.7735128 
H     1.2053949   -2.2119253   -3.5525910 
H    -2.3559341   -2.0652117    1.9526810 
H    -0.8125129   -2.7156442    1.3449921 
H    -2.4891341   -2.6805925   -0.5505921 
H    -2.7878359   -0.9471391   -0.2738481 
H    -2.9893807    1.2358013    0.4974900 
H    -0.0841825   -2.6098946    3.6769139 
H    -3.3193782   -0.9507069   -2.6387131 
H     0.9857127   -3.5546062    0.0903424 
H    -4.6069032    1.7354776    2.3577253 
H    -4.4110359    3.1069211    1.2308777 
H    -3.6198661    3.1503173    2.8257410 
H    -0.7722600    2.4034073    0.3905516 
H    -2.1395998    3.5112085    0.0741485 
H    -1.3167576    3.5462321    1.6576854 
H     2.7241853   -1.6131200    2.8581018 
H     2.1869509   -3.3140583    2.9247308 
H     1.5060069   -2.1998103    1.7059220 
H     2.0656771   -1.1576667    5.3430321 
H     1.7298747   -2.9105071    5.4049323 
H     0.4865765   -1.7503922    5.9360042 
H    -3.1451670   -1.0776930   -5.1117137 
H    -4.0331279    0.3969887   -4.6539683 
H    -2.3231292    0.5107615   -5.1616991 
H    -2.2188009    1.0554089   -1.4079122 
H    -3.6928725    1.4725500   -2.3308676 
H    -2.0734907    1.8501681   -2.9859099 
H     2.9865115   -2.5509341   -2.0308194 
H     3.3856024   -3.0936675   -0.3796206 
H     2.3812014   -1.6369583   -0.6145190 
H     2.0563808   -5.0103161   -2.4040422 
H     2.3807445   -5.4164523   -0.7011178 
H     0.7312121   -5.6006710   -1.3601885 
