97
Energy =
C     2.1495301    1.1146671   -1.6366197 
C     2.0069654    2.0442871   -0.5652486 
C     2.2919904    1.6445746    0.7656015 
H     1.5191779    3.0097102   -0.7473244 
Pd    0.6776381    0.3399598   -0.1582714 
P    -0.5747518   -0.4330101    1.6567796 
P    -0.4914719   -1.1878003   -1.4572048 
H     2.9029046    0.3238949   -1.5041006 
H     2.9780758    0.7919005    0.8877859 
C     0.9149437    1.6562193   -5.7287769 
C     0.4271920    2.5212129   -4.7346650 
C     0.8315833    2.3698572   -3.4035577 
C     1.7408252    1.3518976   -3.0346675 
C     2.2352611    0.4993386   -4.0486384 
C     1.8246572    0.6463353   -5.3798857 
H     0.5930968    1.7744922   -6.7682908 
H    -0.2790677    3.3151881   -4.9989147 
H     0.4197227    3.0380705   -2.6402788 
H     2.9525589   -0.2864398   -3.7855968 
H     2.2213358   -0.0254330   -6.1482074 
C     1.7410040    3.8956814    4.3928525 
C     2.4751676    2.7004681    4.3917004 
C     2.6623870    1.9946998    3.1965851 
C     2.1089345    2.4582487    1.9788880 
C     1.3929152    3.6778424    1.9937991 
C     1.2114145    4.3852893    3.1863171 
H     1.5939117    4.4521316    5.3239539 
H     2.9125761    2.3215035    5.3211194 
H     3.2580843    1.0746844    3.1981415 
H     0.9681020    4.0773405    1.0682636 
H     0.6535454    5.3274334    3.1766789 
C    -1.9297912    0.6217165    2.4258647 
C     0.3508719   -0.6923314    3.2760445 
C    -1.2345610   -0.7801568   -3.1323407 
C     0.4295031   -2.7414919   -2.0415088 
C    -1.2272561    1.1978453    3.6760502 
C    -0.5017652    0.0235392    4.3520656 
C    -1.1754376   -2.1279424   -3.8830657 
C     0.1819058   -2.7700226   -3.5726312 
C    -1.4109656   -2.0023322    1.0694508 
C    -1.8826764   -1.8348146   -0.3865640 
C    -2.6851561    1.6042958    1.4991481 
C     0.8645576   -2.1222220    3.5956639 
C    -2.6052594   -0.0663093   -3.1125317 
C     1.9212769   -2.8363710   -1.6365590 
C    -3.9419750    2.1535671    2.2018956 
C    -1.8069749    2.7469362    0.9704571 
C     2.0850384   -2.0441128    4.5343184 
C    -0.2085439   -3.0565658    4.1827842 
C    -3.1170010    0.1730813   -4.5467001 
C    -2.5361701    1.2631184   -2.3437736 
C     2.5922266   -4.0623499   -2.2863608 
C     2.1094324   -2.8717756   -0.1127755 
H    -2.6616357   -0.1343563    2.7770533 
H     1.2382940   -0.0575414    3.1033738 
H    -0.4905001   -0.0952659   -3.5854568 
H    -0.1135245   -3.5855746   -1.5710022 
H    -0.4986738    1.9778285    3.3866866 
H    -1.9596562    1.6671514    4.3551303 
H    -1.2493621   -0.6710200    4.7751867 
H     0.1395990    0.3661062    5.1824254 
H    -1.3005908   -1.9773880   -4.9688294 
H    -2.0036818   -2.7823524   -3.5471455 
H     0.2406349   -3.8025003   -3.9560013 
H     0.9768194   -2.1866731   -4.0737698 
H    -2.2564990   -2.2565662    1.7320392 
H    -0.6686130   -2.8169494    1.1464439 
H    -2.2671957   -2.7860100   -0.7956783 
H    -2.7028841   -1.0971201   -0.4413503 
H    -3.0330450    1.0141230    0.6285389 
H     1.2178844   -2.5620279    2.6429020 
H    -3.3306320   -0.7340579   -2.6055958 
H     2.4228296   -1.9270840   -2.0233485 
H    -4.5920365    1.3377077    2.5647854 
H    -4.5320743    2.7749853    1.5063894 
H    -3.6727311    2.7861348    3.0662871 
H    -0.8936092    2.3528325    0.4824396 
H    -2.3580510    3.3453818    0.2251758 
H    -1.4950545    3.4209953    1.7857480 
H     1.8155378   -1.5760678    5.4981429 
H     2.4773130   -3.0528093    4.7504814 
H     2.9008261   -1.4515701    4.0835514 
H    -0.4824270   -2.7556935    5.2091633 
H     0.1748761   -4.0898751    4.2356994 
H    -1.1333588   -3.0725929    3.5814736 
H    -3.3000940   -0.7711753   -5.0858397 
H    -4.0666386    0.7351195   -4.5251889 
H    -2.3832434    0.7647666   -5.1245815 
H    -2.0930133    1.1345609   -1.3406554 
H    -3.5398559    1.7049257   -2.2214385 
H    -1.9052472    1.9875821   -2.8857621 
H     2.0832580   -4.9954670   -1.9817693 
H     3.6466492   -4.1355932   -1.9688466 
H     2.5785421   -4.0097558   -3.3876088 
H     1.6068570   -3.7522989    0.3292787 
H     3.1789371   -2.9254700    0.1542503 
H     1.6935815   -1.9588920    0.3600736 
