97
Energy =
C     2.1386408    0.9460540   -1.7193385 
C     2.0008244    1.9661242   -0.7359273 
C     2.2485442    1.6859596    0.6338859 
H     1.5259395    2.9152119   -1.0121812 
Pd    0.6460935    0.3284988   -0.1841513 
P    -0.5888975   -0.3107709    1.7014026 
P    -0.6288013   -1.1913395   -1.4140261 
H     2.8626069    0.1453002   -1.5056902 
H     2.9313884    0.8527175    0.8599170 
C     0.9706114    1.1672543   -5.8608898 
C     1.8296122    0.1537343   -5.4093607 
C     2.2198291    0.1103776   -4.0646439 
C     1.7542093    1.0723764   -3.1390229 
C     0.8978942    2.0933741   -3.6117631 
C     0.5139628    2.1409602   -4.9565286 
H     0.6645499    1.2043562   -6.9111998 
H     2.2029517   -0.6020639   -6.1081426 
H     2.8988077   -0.6788351   -3.7225673 
H     0.5115820    2.8482987   -2.9195116 
H    -0.1516865    2.9389512   -5.3014599 
C     1.5526221    4.3007026    3.9834484 
C     2.1911510    3.0626898    4.1555182 
C     2.4296615    2.2385552    3.0494133 
C     2.0219517    2.6217771    1.7507805 
C     1.4020094    3.8822168    1.5908408 
C     1.1715546    4.7102349    2.6946435 
H     1.3668657    4.9502366    4.8447424 
H     2.5130260    2.7428681    5.1521567 
H     2.9439444    1.2804358    3.1836223 
H     1.0877810    4.2205619    0.5989745 
H     0.6896234    5.6826555    2.5499531 
C    -1.9207953    0.7786131    2.4998479 
C     0.2071315   -0.7004242    3.3473485 
C    -1.3708105   -0.8472453   -3.1088444 
C     0.1770015   -2.8399416   -1.9107951 
C    -1.9087932    0.3760257    4.0150568 
C    -1.0160291   -0.8513082    4.2714816 
C    -1.4172066   -2.2443052   -3.7643304 
C    -0.1038465   -2.9568617   -3.4311298 
C    -1.5561837   -1.8246701    1.1517418 
C    -2.0524141   -1.6532964   -0.2931512 
C    -1.7364182    2.3079085    2.3042921 
C     1.3376695   -1.7548139    3.4520482 
C    -2.6984172   -0.0559183   -3.1321487 
C     1.6724065   -2.9964365   -1.5384962 
C    -1.7625965    2.7335161    0.8319701 
C    -2.8163846    3.0906563    3.0793785 
C     2.1968974   -1.4748346    4.7029258 
C     0.8461262   -3.2127305    3.4777497 
C    -3.1993638    0.1248349   -4.5789045 
C    -2.5557670    1.3089301   -2.4440576 
C     2.2671322   -4.2802642   -2.1497927 
C     1.8941722   -2.9802227   -0.0217262 
H    -2.8731719    0.4755646    2.0235866 
H     0.6664470    0.2862711    3.5664978 
H    -0.5933843   -0.2452218   -3.6193830 
H    -0.4027424   -3.6160810   -1.3719750 
H    -1.4858742    1.2227435    4.5836550 
H    -2.9350880    0.2215041    4.3864049 
H    -1.5494810   -1.7941969    4.0535863 
H    -0.7121105   -0.8974120    5.3322851 
H    -1.5535947   -2.1590763   -4.8557043 
H    -2.2826168   -2.8136985   -3.3717379 
H    -0.1230996   -4.0149074   -3.7419502 
H     0.7187097   -2.4657749   -3.9839028 
H    -2.3971335   -2.0149269    1.8409023 
H    -0.8719543   -2.6874631    1.2185545 
H    -2.5492712   -2.5701182   -0.6576804 
H    -2.7882205   -0.8308873   -0.3553642 
H    -0.7485048    2.5766606    2.7273576 
H     1.9894153   -1.6201697    2.5675175 
H    -3.4581018   -0.6509739   -2.5862398 
H     2.2076204   -2.1300032   -1.9749411 
H    -0.9763952    2.2181391    0.2445254 
H    -1.5959590    3.8199449    0.7388768 
H    -2.7404006    2.5023690    0.3726554 
H    -2.7974722    2.8840406    4.1619719 
H    -2.6641435    4.1756343    2.9466270 
H    -3.8255696    2.8420780    2.7017212 
H     1.6037297   -1.5905484    5.6276853 
H     3.0419750   -2.1823746    4.7598453 
H     2.6098257   -0.4512383    4.6933184 
H     0.2591325   -3.4176965    4.3903134 
H     1.7066569   -3.9031643    3.4752885 
H     0.2163575   -3.4668284    2.6103816 
H    -3.4360686   -0.8376226   -5.0619094 
H    -4.1164292    0.7388178   -4.5912321 
H    -2.4358579    0.6400096   -5.1904922 
H    -2.1540451    1.2099736   -1.4222722 
H    -3.5284356    1.8262835   -2.3811791 
H    -1.8605755    1.9543079   -3.0076220 
H     1.7167048   -5.1728746   -1.7993788 
H     3.3216621   -4.3952494   -1.8450921 
H     2.2378624   -4.2716418   -3.2518738 
H     1.3854863   -3.8331826    0.4626094 
H     2.9677574   -3.0435839    0.2260944 
H     1.5039947   -2.0441110    0.4243100 
