97
Energy =
C     2.1480580    1.0806051   -1.5940823 
C     1.8896441    2.0921638   -0.6292563 
C     2.1134571    1.8463758    0.7502124 
H     1.3505928    2.9979046   -0.9317157 
Pd    0.6278502    0.3662995   -0.1026446 
P    -0.6362289   -0.2882463    1.7547894 
P    -0.6332511   -1.1658643   -1.3334310 
H     2.9168963    0.3392004   -1.3327929 
H     2.8367481    1.0583884    1.0080322 
C     1.2062130    1.1643939   -5.7950343 
C     2.0361806    0.1657642   -5.2621245 
C     2.3510217    0.1680735   -3.8976747 
C     1.8368804    1.1624171   -3.0326129 
C     1.0119256    2.1681269   -3.5866893 
C     0.7032741    2.1691998   -4.9517963 
H     0.9593538    1.1660510   -6.8614638 
H     2.4445374   -0.6143702   -5.9129325 
H     3.0026676   -0.6114391   -3.4881460 
H     0.5958572    2.9518084   -2.9457407 
H     0.0620519    2.9567224   -5.3609947 
C     1.1674860    4.4858360    4.0190215 
C     1.7905818    3.2490205    4.2493130 
C     2.1125812    2.4150741    3.1721041 
C     1.8022647    2.7866154    1.8428696 
C     1.1970298    4.0460006    1.6261669 
C     0.8851979    4.8844427    2.7020315 
H     0.9181264    5.1426396    4.8584029 
H     2.0368631    2.9395931    5.2704046 
H     2.6167236    1.4594451    3.3549734 
H     0.9607780    4.3770497    0.6104474 
H     0.4174300    5.8560680    2.5128659 
C    -1.8989642    0.8070888    2.6511644 
C     0.1764300   -0.8954699    3.3277330 
C    -1.1726378   -0.8256417   -3.1045501 
C    -0.0242582   -2.9247082   -1.6813380 
C    -1.7364555    0.4283700    4.1557707 
C    -1.0084674   -0.9170424    4.3152577 
C    -1.0881021   -2.2042880   -3.8028634 
C     0.1125986   -2.9605389   -3.2190824 
C    -1.7047844   -1.7141841    1.1642152 
C    -2.1529965   -1.4578615   -0.2851387 
C    -1.7854897    2.3288210    2.3944918 
C     1.0537630   -2.1628033    3.2046724 
C    -2.5120953   -0.0682164   -3.2628228 
C     1.1715481   -3.4459203   -0.8454519 
C    -1.9344330    2.6870253    0.9104733 
C    -2.8239066    3.1001034    3.2325834 
C     2.3097692   -1.8762062    2.3628662 
C     1.4499937   -2.7097981    4.5895972 
C    -2.8903409    0.0665548   -4.7509951 
C    -2.4569453    1.3193112   -2.6025862 
C     2.5087608   -2.7881027   -1.2130687 
C     1.2665018   -4.9809196   -0.9368717 
H    -2.8821293    0.4621074    2.2756759 
H     0.8327940   -0.0485837    3.6147563 
H    -0.3631432   -0.1861038   -3.5051783 
H    -0.9050646   -3.5418392   -1.4137323 
H    -1.1208343    1.2105625    4.6373455 
H    -2.7144456    0.4263963    4.6648377 
H    -1.6770397   -1.7711438    4.0949415 
H    -0.6583215   -1.0454636    5.3537625 
H    -0.9900906   -2.0764260   -4.8940114 
H    -2.0203884   -2.7738550   -3.6207330 
H     0.1600357   -4.0008141   -3.5848314 
H     1.0455625   -2.4576354   -3.5312220 
H    -2.5724668   -1.8419105    1.8342377 
H    -1.1023174   -2.6385038    1.2270772 
H    -2.7373538   -2.3057414   -0.6847426 
H    -2.7885299   -0.5558021   -0.3420216 
H    -0.7800669    2.6435506    2.7291685 
H     0.4628302   -2.9510417    2.6955517 
H    -3.3029516   -0.6672364   -2.7676880 
H     0.9554827   -3.1924191    0.2103122 
H    -1.1549056    2.1917827    0.2980337 
H    -1.8389618    3.7757201    0.7594867 
H    -2.9225389    2.3773002    0.5223170 
H    -2.6946922    2.9347000    4.3150929 
H    -2.7277630    4.1841724    3.0493929 
H    -3.8529334    2.8001935    2.9600180 
H     2.9649924   -1.1509210    2.8798035 
H     2.8936087   -2.7967786    2.1942966 
H     2.0509964   -1.4497676    1.3755178 
H     1.9789556   -1.9390146    5.1799239 
H     2.1284387   -3.5732172    4.4791280 
H     0.5735817   -3.0450730    5.1686671 
H    -3.0614209   -0.9131666   -5.2271751 
H    -3.8169549    0.6566167   -4.8577623 
H    -2.0885179    0.5858741   -5.3073440 
H    -2.1173543    1.2669586   -1.5539737 
H    -3.4481058    1.8040900   -2.6160975 
H    -1.7495395    1.9717181   -3.1420285 
H     2.8314277   -3.0680074   -2.2311784 
H     3.3011142   -3.1038415   -0.5139179 
H     2.4325148   -1.6886052   -1.1641668 
H     1.4970558   -5.3074429   -1.9666190 
H     2.0698437   -5.3589032   -0.2810358 
H     0.3213163   -5.4634178   -0.6304435 
