97
Energy =
C     2.1563784    1.0933590   -1.6417073 
C     2.0161875    2.0325667   -0.5783900 
C     2.2960264    1.6429590    0.7565867 
H     1.5332293    2.9986346   -0.7697674 
Pd    0.6781429    0.3371680   -0.1599384 
P    -0.5782456   -0.4175600    1.6593616 
P    -0.4933922   -1.1973756   -1.4481469 
H     2.9061601    0.3005150   -1.5014046 
H     2.9780106    0.7883776    0.8879885 
C     0.9262584    1.6037379   -5.7391015 
C     1.8359507    0.5968113   -5.3817249 
C     2.2459183    0.4604535   -4.0491322 
C     1.7505897    1.3208145   -3.0422404 
C     0.8421191    2.3362751   -3.4198255 
C     0.4384453    2.4770380   -4.7523000 
H     0.6045495    1.7133635   -6.7796043 
H     2.2328979   -0.0811553   -6.1444367 
H     2.9629732   -0.3232744   -3.7794300 
H     0.4294821    3.0101683   -2.6619634 
H    -0.2676053    3.2689210   -5.0232820 
C     1.7469077    3.9299588    4.3616777 
C     2.4767466    2.7321603    4.3730496 
C     2.6635025    2.0144790    3.1849693 
C     2.1134586    2.4682952    1.9620743 
C     1.4012963    3.6902389    1.9643802 
C     1.2207643    4.4098280    3.1497422 
H     1.6003180    4.4957363    5.2872154 
H     2.9114015    2.3605569    5.3067207 
H     3.2560717    1.0925208    3.1962254 
H     0.9789586    4.0821827    1.0344970 
H     0.6662546    5.3537950    3.1302438 
C    -1.9306008    0.6471336    2.4189205 
C     0.3457225   -0.6668004    3.2810438 
C    -1.2334922   -0.8011468   -3.1273840 
C     0.4235394   -2.7584926   -2.0189060 
C    -1.2268848    1.2318127    3.6644802 
C    -0.5045944    0.0613948    4.3506957 
C    -1.1771954   -2.1550293   -3.8672687 
C     0.1779965   -2.7982830   -3.5500724 
C    -1.4183590   -1.9891377    1.0838175 
C    -1.8878117   -1.8316994   -0.3740693 
C    -2.6826213    1.6240088    1.4834480 
C     0.8530598   -2.0962937    3.6125006 
C    -2.6021939   -0.0832856   -3.1147771 
C     1.9144013   -2.8552195   -1.6111251 
C    -3.9387826    2.1821228    2.1803311 
C    -1.8010292    2.7600365    0.9462051 
C     2.0756262   -2.0158463    4.5482056 
C    -0.2236533   -3.0201678    4.2094188 
C    -3.1126770    0.1441216   -4.5513373 
C    -2.5296039    1.2530563   -2.3583841 
C     2.5818523   -4.0887078   -2.2502283 
C     2.1003375   -2.8792078   -0.0868691 
H    -2.6647337   -0.1039246    2.7760682 
H     1.2359119   -0.0372759    3.1035274 
H    -0.4870236   -0.1220205   -3.5851691 
H    -0.1229804   -3.5970354   -1.5425906 
H    -0.4962442    2.0074098    3.3686419 
H    -1.9581398    1.7087689    4.3394417 
H    -1.2541654   -0.6271006    4.7801509 
H     0.1379587    0.4094783    5.1778135 
H    -1.3007214   -2.0127733   -4.9543250 
H    -2.0075699   -2.8045021   -3.5270753 
H     0.2343797   -3.8338895   -3.9252711 
H     0.9751708   -2.2210169   -4.0546366 
H    -2.2655005   -2.2353589    1.7473713 
H    -0.6787039   -2.8054534    1.1683078 
H    -2.2748379   -2.7848756   -0.7761578 
H    -2.7056361   -1.0919069   -0.4356083 
H    -3.0310434    1.0276300    0.6172927 
H     1.2026567   -2.5462162    2.6631107 
H    -3.3296422   -0.7442052   -2.6019434 
H     2.4196431   -1.9508325   -2.0045041 
H    -4.5914480    1.3708263    2.5487081 
H    -4.5263781    2.7996974    1.4793010 
H    -3.6689137    2.8206404    3.0401337 
H    -0.8881563    2.3596159    0.4623937 
H    -2.3498699    3.3536348    0.1954285 
H    -1.4881578    3.4400955    1.7561331 
H     1.8104531   -1.5373857    5.5081143 
H     2.4630873   -3.0245017    4.7730425 
H     2.8935736   -1.4318063    4.0903137 
H     0.1546833   -4.0548885    4.2705610 
H    -1.1495434   -3.0366766    3.6097181 
H    -0.4942850   -2.7091157    5.2336177 
H    -3.2994988   -0.8046382   -5.0812011 
H    -4.0600168    0.7102101   -4.5355969 
H    -2.3764145    0.7271041   -5.1348304 
H    -2.0838253    1.1332079   -1.3553299 
H    -3.5324643    1.6970988   -2.2374578 
H    -1.8993802    1.9718166   -2.9086676 
H     2.0689512   -5.0175150   -1.9391459 
H     3.6354836   -4.1633611   -1.9304348 
H     2.5701300   -4.0446892   -3.3518653 
H     1.5938528   -3.7543042    0.3614483 
H     3.1692582   -2.9348370    0.1820781 
H     1.6873078   -1.9610468    0.3781106 
