97
Energy =
C     2.1429927    1.0420416   -1.6917924 
C     2.0291532    2.0001742   -0.6422864 
C     2.3253161    1.6294599    0.6945374 
H     1.5536102    2.9681614   -0.8423640 
Pd    0.6797259    0.3264200   -0.1753316 
P    -0.5578760   -0.3837927    1.6742592 
P    -0.5275082   -1.2158279   -1.4202675 
H     2.8863117    0.2434678   -1.5495571 
H     3.0000914    0.7697305    0.8295920 
C     0.8576489    1.4990110   -5.7785505 
C     1.7594828    0.4863459   -5.4174938 
C     2.1877401    0.3672696   -4.0890060 
C     1.7184863    1.2507410   -3.0896737 
C     0.8169644    2.2710058   -3.4709192 
C     0.3955695    2.3948365   -4.7995926 
H     0.5222017    1.5955888   -6.8160053 
H     2.1360211   -0.2096885   -6.1742699 
H     2.8991131   -0.4207396   -3.8167275 
H     0.4239498    2.9625405   -2.7185513 
H    -0.3039614    3.1914331   -5.0736520 
C     1.8547108    3.9798641    4.2697631 
C     2.5710489    2.7740503    4.2899415 
C     2.7323642    2.0354083    3.1110196 
C     2.1700036    2.4761234    1.8889419 
C     1.4721650    3.7062503    1.8817111 
C     1.3167815    4.4465491    3.0578595 
H     1.7280514    4.5620188    5.1880595 
H     3.0147447    2.4122373    5.2232072 
H     3.3144578    1.1068936    3.1286273 
H     1.0411435    4.0883864    0.9517301 
H     0.7729705    5.3965439    3.0310541 
C    -1.8864735    0.7099101    2.4343702 
C     0.3860132   -0.6167259    3.2869642 
C    -1.2874867   -0.8393488   -3.0951361 
C     0.3642220   -2.7962395   -1.9776276 
C    -1.1577071    1.3074019    3.6592752 
C    -0.4402193    0.1400676    4.3556359 
C    -1.2561992   -2.2057765   -3.8131623 
C     0.0962204   -2.8588635   -3.5042624 
C    -1.4245110   -1.9547158    1.1375511 
C    -1.9131444   -1.8164629   -0.3159462 
C    -2.6404796    1.6795599    1.4930069 
C     0.8808387   -2.0463906    3.6361439 
C    -2.6483848   -0.1069666   -3.0747148 
C     1.8597245   -2.9022737   -1.5895715 
C    -3.8800533    2.2640102    2.1979503 
C    -1.7536161    2.7958949    0.9240681 
C     2.1163571   -1.9647206    4.5545614 
C    -0.1987447   -2.9469485    4.2628942 
C    -3.1772364    0.1028063   -4.5072980 
C    -2.5511569    1.2404308   -2.3410830 
C     2.5053062   -4.1527113   -2.2181326 
C     2.0674821   -2.9038045   -0.0679281 
H    -2.6242267   -0.0259541    2.8150297 
H     1.2811573   -0.0013474    3.0862684 
H    -0.5408184   -0.1757725   -3.5748775 
H    -0.1841636   -3.6207472   -1.4794885 
H    -0.4218147    2.0682298    3.3393170 
H    -1.8731636    1.8053647    4.3359909 
H    -1.1920364   -0.5316265    4.8071577 
H     0.2181331    0.4941985    5.1675800 
H    -1.3934380   -2.0799731   -4.9005950 
H    -2.0887307   -2.8403285   -3.4508012 
H     0.1358197   -3.9011556   -3.8627540 
H     0.8923540   -2.2990382   -4.0296469 
H    -2.2648279   -2.1796220    1.8171364 
H    -0.6932335   -2.7781972    1.2254216 
H    -2.3164200   -2.7718712   -0.6962288 
H    -2.7236524   -1.0687356   -0.3783221 
H    -3.0080492    1.0727783    0.6421759 
H     1.2126086   -2.5165396    2.6901402 
H    -3.3751698   -0.7518889   -2.5409937 
H     2.3684932   -2.0096351   -2.0046429 
H    -4.5368218    1.4667116    2.5889067 
H    -4.4702832    2.8768405    1.4949689 
H    -3.5906237    2.9133886    3.0431453 
H    -0.8524882    2.3766024    0.4342540 
H    -2.3063066    3.3831748    0.1711376 
H    -1.4213380    3.4858106    1.7177749 
H     1.8691924   -1.4670249    5.5094773 
H     2.4948173   -2.9740053    4.7916061 
H     2.9350927   -1.3982784    4.0764335 
H    -1.1328345   -2.9620443    3.6760539 
H    -0.4516836   -2.6155372    5.2852394 
H     0.1678585   -3.9850834    4.3363908 
H    -3.3802880   -0.8523102   -5.0194901 
H    -4.1190860    0.6778537   -4.4869926 
H    -2.4441198    0.6697085   -5.1102312 
H    -2.0947974    1.1315119   -1.3415582 
H    -3.5472608    1.6981767   -2.2154868 
H    -1.9193035    1.9427181   -2.9104383 
H     1.9876594   -5.0710661   -1.8846863 
H     3.5626691   -4.2330596   -1.9123417 
H     2.4780268   -4.1262590   -3.3200579 
H     1.5585835   -3.7662398    0.4016879 
H     3.1395799   -2.9663236    0.1864448 
H     1.6707081   -1.9740417    0.3880729 
