97
Energy =
C     2.1633116    1.0992763   -1.6062327 
C     2.0692073    1.9756209   -0.4860815 
C     2.4024104    1.5297820    0.8184487 
H     1.5737315    2.9465107   -0.6096149 
Pd    0.7519406    0.2719689   -0.0616733 
P    -0.5646877   -0.2102367    1.7808888 
P    -0.6065576   -1.2163954   -1.2495438 
H     2.9254812    0.3086734   -1.5637949 
H     3.0898269    0.6728831    0.8916693 
C     0.7983164    2.0137585   -5.5893177 
C     0.2853785    2.7304820   -4.4951765 
C     0.7152126    2.4413958   -3.1954727 
C     1.6892329    1.4413434   -2.9600743 
C     2.1995732    0.7331946   -4.0721510 
C     1.7555197    1.0116101   -5.3711759 
H     0.4542603    2.2372777   -6.6040513 
H    -0.4616138    3.5146568   -4.6566986 
H     0.2751140    2.9864628   -2.3535070 
H     2.9640558   -0.0355904   -3.9120606 
H     2.1669866    0.4514806   -6.2172829 
C     1.9763828    3.6725386    4.5316801 
C     2.6913786    2.4673301    4.4727144 
C     2.8343615    1.7954942    3.2516410 
C     2.2622623    2.3077160    2.0633534 
C     1.5676207    3.5377765    2.1363017 
C     1.4243973    4.2085482    3.3553634 
H     1.8621674    4.2008627    5.4835504 
H     3.1443322    2.0508059    5.3783741 
H     3.4028224    0.8594158    3.2105243 
H     1.1384598    3.9818611    1.2325785 
H     0.8819594    5.1591020    3.3889140 
C    -1.8288559    1.1094467    2.2915094 
C     0.1106034   -0.4823582    3.5061030 
C    -1.1975258   -0.7102139   -2.9692770 
C     0.1403153   -2.8444431   -1.8146960 
C    -1.5118455    1.3587658    3.7889536 
C    -1.0109229    0.0532217    4.4200897 
C    -0.6876700   -1.8307239   -3.9158157 
C     0.5283246   -2.5152396   -3.2723628 
C    -1.5778860   -1.7175408    1.3432882 
C    -2.0399961   -1.6499275   -0.1226708 
C    -1.8458600    2.3862214    1.4143139 
C     0.6646208   -1.8921098    3.8086683 
C    -2.6878253   -0.2958389   -3.1236499 
C     1.2149148   -3.5028335   -0.9141555 
C    -2.3016023    2.0987262   -0.0239336 
C    -2.7225328    3.4843684    2.0456260 
C     1.7961799   -2.2620245    2.8343683 
C     1.1551897   -1.9866128    5.2664742 
C    -3.6758648   -1.4765652   -3.1507867 
C    -2.8618527    0.5746410   -4.3837037 
C     2.5209021   -2.7002804   -0.8189594 
C     1.4882110   -4.9488631   -1.3725022 
H    -2.8152842    0.6095881    2.2118574 
H     0.9526443    0.2366197    3.5588109 
H    -0.5886597    0.1927574   -3.1560977 
H    -0.7335047   -3.5272116   -1.8467084 
H    -0.7171467    2.1253045    3.8659758 
H    -2.3997832    1.7511137    4.3123958 
H    -1.8310607   -0.6878539    4.4938284 
H    -0.6354550    0.2266930    5.4429673 
H    -0.4378849   -1.4072547   -4.9030763 
H    -1.4794834   -2.5847802   -4.0693020 
H     0.8160826   -3.4281871   -3.8216523 
H     1.3978348   -1.8331755   -3.2881121 
H    -2.4379124   -1.8137013    2.0296780 
H    -0.9293018   -2.5975135    1.5007920 
H    -2.4888345   -2.6080125   -0.4366301 
H    -2.8061411   -0.8652829   -0.2539161 
H    -0.8051802    2.7606124    1.3741072 
H    -0.1599613   -2.6227423    3.6859833 
H    -2.9382409    0.3418305   -2.2540679 
H     0.7832316   -3.5621213    0.1047858 
H    -1.6208248    1.3793308   -0.5189861 
H    -2.3004681    3.0205813   -0.6312112 
H    -3.3270658    1.6847617   -0.0440403 
H    -2.3381122    3.8082038    3.0269420 
H    -2.7539122    4.3721059    1.3902997 
H    -3.7616260    3.1319231    2.1827964 
H     2.6564944   -1.5796924    2.9589568 
H     2.1526291   -3.2914391    3.0089759 
H     1.4724934   -2.1876492    1.7814762 
H     0.3347700   -1.8421844    5.9888083 
H     1.9291086   -1.2230246    5.4682659 
H     1.5997648   -2.9782462    5.4586811 
H    -3.5183132   -2.1876250   -2.3224728 
H    -4.7121806   -1.1043706   -3.0799231 
H    -3.5978031   -2.0430176   -4.0952833 
H    -2.2161446    1.4677149   -4.3444597 
H    -3.9096759    0.9068621   -4.4841658 
H    -2.6007570    0.0075006   -5.2951694 
H     3.0297083   -2.6337654   -1.7967034 
H     3.2169846   -3.1770379   -0.1084012 
H     2.3265304   -1.6699116   -0.4612716 
H     1.9593809   -4.9701867   -2.3711248 
H     2.1745768   -5.4530683   -0.6706522 
H     0.5566170   -5.5398693   -1.4219302 
