97
Energy =
C     2.2020455    0.9205401   -1.6317831 
C     2.1299719    1.8660459   -0.5670929 
C     2.4248553    1.4667061    0.7633924 
H     1.6837300    2.8515036   -0.7488131 
Pd    0.7359850    0.2367794   -0.0919991 
P    -0.5355666   -0.3721151    1.7716588 
P    -0.5523550   -1.2754074   -1.3161350 
H     2.9151918    0.0922046   -1.5085291 
H     3.0814136    0.5909649    0.8822064 
C     0.9443696    1.5334384   -5.7093183 
C     1.7903658    0.4662314   -5.3708684 
C     2.2065252    0.2936384   -4.0450064 
C     1.7775120    1.1726937   -3.0234322 
C     0.9317885    2.2466480   -3.3823575 
C     0.5260623    2.4268673   -4.7094217 
H     0.6211450    1.6750459   -6.7455127 
H     2.1375515   -0.2271457   -6.1439966 
H     2.8842139   -0.5301580   -3.7947550 
H     0.5709370    2.9399491   -2.6159393 
H    -0.1260840    3.2682853   -4.9660773 
C     2.0142255    3.7531526    4.3880232 
C     2.7402296    2.5532452    4.3712710 
C     2.8780559    1.8348243    3.1768869 
C     2.2916666    2.2953576    1.9740542 
C     1.5853847    3.5201567    2.0033821 
C     1.4460818    4.2361772    3.1964396 
H     1.9028678    4.3181388    5.3190121 
H     3.2050484    2.1773263    5.2886233 
H     3.4540068    0.9027868    3.1673826 
H     1.1363980    3.9189451    1.0891909 
H     0.8941381    5.1819247    3.1980707 
C    -2.0557701    0.6553951    2.2442043 
C     0.1462955   -0.4442216    3.5273308 
C    -1.4626191   -0.8520424   -2.9062562 
C     0.2520879   -2.8548479   -2.0111542 
C    -1.6797838    1.2412528    3.6218762 
C    -0.9891958    0.1227920    4.4103885 
C    -1.6331072   -2.2325708   -3.5741456 
C    -0.2827256   -2.9500858   -3.4655863 
C    -1.2607332   -2.0316304    1.3031542 
C    -1.8415047   -1.9360445   -0.1214783 
C    -2.6103564    1.6378057    1.1857418 
C     0.7523040   -1.7933226    3.9794334 
C    -2.7277821    0.0278684   -2.7603758 
C     1.7934278   -2.9455760   -1.9092328 
C    -3.9983296    2.1607032    1.6026121 
C    -1.6543339    2.7952541    0.8690908 
C     1.9806365   -2.1616163    3.1329503 
C     1.1273890   -1.7564738    5.4740231 
C    -3.5800105    0.0143776   -4.0443699 
C    -2.3433808    1.4720332   -2.3985553 
C     2.3173931   -4.2145344   -2.6102752 
C     2.2792938   -2.8987570   -0.4569032 
H    -2.8305904   -0.1190151    2.4155396 
H     0.9580650    0.3097213    3.5069460 
H    -0.7085748   -0.2820163   -3.4882108 
H    -0.1823683   -3.6741222   -1.4047088 
H    -0.9836914    2.0924083    3.5018843 
H    -2.5760354    1.6181257    4.1436518 
H    -1.7161877   -0.6774033    4.6508597 
H    -0.5824238    0.4943917    5.3659026 
H    -1.9352316   -2.1236533   -4.6295881 
H    -2.4312942   -2.8083823   -3.0663130 
H    -0.3520540   -4.0032642   -3.7851886 
H     0.4379224   -2.4488583   -4.1390271 
H    -2.0350743   -2.3351243    2.0301975 
H    -0.4487175   -2.7803110    1.3453403 
H    -2.2142384   -2.9156786   -0.4687081 
H    -2.6966164   -1.2365907   -0.1390219 
H    -2.7474907    1.0545270    0.2564234 
H    -0.0182334   -2.5793466    3.8464992 
H    -3.3543207   -0.3910830   -1.9476959 
H     2.2065491   -2.0671247   -2.4406810 
H    -4.6959331    1.3315238    1.8170591 
H    -4.4362967    2.7733952    0.7955847 
H    -3.9353740    2.7954607    2.5042289 
H    -0.6682351    2.4086028    0.5477796 
H    -2.0565285    3.4200960    0.0540537 
H    -1.4979344    3.4450524    1.7469625 
H     2.8009617   -1.4420557    3.3062401 
H     2.3551300   -3.1673397    3.3888901 
H     1.7535872   -2.1477224    2.0551537 
H     1.6189837   -2.7002553    5.7667499 
H     0.2454610   -1.6242567    6.1222249 
H     1.8324988   -0.9296910    5.6789697 
H    -3.9942959   -0.9842789   -4.2608231 
H    -4.4281720    0.7132477   -3.9419611 
H    -2.9798576    0.3373292   -4.9148032 
H    -1.5886584    1.5022935   -1.5930001 
H    -3.2244813    2.0511311   -2.0735081 
H    -1.9050624    1.9767269   -3.2754946 
H     1.8793451   -5.1222616   -2.1557345 
H     3.4140871   -4.2829678   -2.5074095 
H     2.0823542   -4.2243702   -3.6874325 
H     1.8809799   -3.7498021    0.1256677 
H     3.3808425   -2.9365494   -0.3998222 
H     1.9502481   -1.9610188    0.0352935 
