97
Energy =
C     2.1544116    0.8932059   -1.6539884 
C     2.0564968    1.8575841   -0.6001832 
C     2.3458607    1.4997446    0.7357265 
H     1.5863081    2.8272052   -0.8071957 
Pd    0.6902492    0.1883686   -0.1543167 
P    -0.8427976   -0.2268522    1.5612605 
P    -0.3386240   -1.5093207   -1.3577882 
H     2.9473856    0.1374790   -1.5661963 
H     2.9511497    0.5926715    0.8907062 
C     0.6502157    1.5124056   -5.6491936 
C     0.0475751    2.1684484   -4.5625655 
C     0.5386063    1.9822462   -3.2655491 
C     1.6505295    1.1405688   -3.0234424 
C     2.2526696    0.4974820   -4.1275449 
C     1.7562369    0.6787341   -5.4256540 
H     0.2623709    1.6544543   -6.6629390 
H    -0.8162058    2.8214551   -4.7266275 
H     0.0340008    2.4704080   -2.4243275 
H     3.1274631   -0.1425285   -3.9674730 
H     2.2411361    0.1727508   -6.2670224 
C     1.9077476    3.9151425    4.2666951 
C     2.3297044    2.5794168    4.3567597 
C     2.4959683    1.8184248    3.1938202 
C     2.2249342    2.3675290    1.9175923 
C     1.8403245    3.7259962    1.8419864 
C     1.6800906    4.4878722    3.0040042 
H     1.7789323    4.5146900    5.1734867 
H     2.5380882    2.1326133    5.3344556 
H     2.8416245    0.7809782    3.2664303 
H     1.6697113    4.1947128    0.8684442 
H     1.3811982    5.5382747    2.9258274 
C    -2.1118006    1.0680762    2.0650226 
C    -0.2877078   -0.5057211    3.3386079 
C    -1.4596672   -1.0932325   -2.8091800 
C     0.6339756   -2.8509266   -2.2822385 
C    -2.6440679    0.4528933    3.3775231 
C    -1.4470160    0.0173761    4.2454195 
C    -1.3677811   -2.3481914   -3.7022420 
C     0.1043935   -2.7745533   -3.7348741 
C    -1.9399950   -1.6617023    1.0136462 
C    -1.3264857   -2.5055824   -0.1151037 
C    -1.4762288    2.4844968    2.1693911 
C     0.2438569   -1.9137509    3.6947787 
C    -2.8783975   -0.5936242   -2.4528096 
C     2.1735061   -2.7940719   -2.1495162 
C    -1.3235366    3.0932358    0.7657173 
C    -2.2853480    3.4313765    3.0736044 
C     1.2934095   -2.4047184    2.6875542 
C     0.8327734   -1.9170479    5.1195002 
C    -3.7592401   -0.4697407   -3.7114747 
C    -2.8178252    0.7521154   -1.7138042 
C     2.8366118   -3.9077626   -2.9828105 
C     2.6336402   -2.8644235   -0.6867340 
H    -2.9120014    1.0940501    1.3033584 
H     0.5640953    0.1963142    3.4126641 
H    -0.9177781   -0.2704718   -3.3187403 
H     0.2817986   -3.7979007   -1.8249957 
H    -3.3070123    1.1534242    3.9128114 
H    -3.2664801   -0.4266796    3.1308118 
H    -1.7601116   -0.7618350    4.9606366 
H    -1.0798203    0.8693874    4.8430119 
H    -1.7427008   -2.1345199   -4.7175220 
H    -1.9987960   -3.1583829   -3.2859638 
H     0.2355044   -3.7423752   -4.2471373 
H     0.6891996   -2.0201572   -4.2942532 
H    -2.8831175   -1.1960950    0.6763976 
H    -2.1859176   -2.2976188    1.8811739 
H    -0.6007918   -3.2295044    0.2975749 
H    -2.1003176   -3.0948583   -0.6400822 
H    -0.4661014    2.3880995    2.6132569 
H    -0.6138584   -2.6171805    3.6775275 
H    -3.3522914   -1.3444418   -1.7878760 
H     2.4963811   -1.8224384   -2.5674960 
H    -0.7126648    2.4406930    0.1127191 
H    -0.8388263    4.0817897    0.8155488 
H    -2.3104290    3.2209796    0.2848348 
H    -2.3018979    3.0939744    4.1236049 
H    -1.8317963    4.4374098    3.0599438 
H    -3.3298500    3.5258046    2.7237413 
H     2.1559257   -1.7141708    2.6467724 
H     1.6731262   -3.4038181    2.9617520 
H     0.8810128   -2.4707898    1.6673724 
H     0.0938781   -1.6069624    5.8769434 
H     1.6939345   -1.2259465    5.1824154 
H     1.1880678   -2.9263224    5.3895063 
H    -3.9342337   -1.4452396   -4.1944406 
H    -4.7435173   -0.0455271   -3.4481143 
H    -3.2873886    0.2024232   -4.4516227 
H    -2.4439536    1.5461281   -2.3838806 
H    -2.1295793    0.7122931   -0.8519130 
H    -3.8141345    1.0549922   -1.3482331 
H     2.4930464   -4.9050813   -2.6513627 
H     3.9334131   -3.8738624   -2.8640350 
H     2.6140268   -3.8092182   -4.0583526 
H     2.3070286   -3.8062225   -0.2082887 
H     3.7340100   -2.8148503   -0.6155958 
H     2.2204867   -2.0219737   -0.0996396 
