97
Energy =
C     2.0680031    0.9980571   -1.6080028 
C     1.9726824    1.9494430   -0.5502469 
C     2.2972182    1.5795223    0.7796221 
H     1.4808450    2.9118455   -0.7371210 
Pd    0.6436027    0.2751988   -0.0400307 
P    -0.6660757   -0.2266576    1.8299991 
P    -0.6124465   -1.3066614   -1.2064289 
H     2.8281988    0.2122822   -1.5008991 
H     2.9670869    0.7150262    0.9054573 
C     0.6940763    1.5402785   -5.6546997 
C     1.6655717    0.5749167   -5.3503668 
C     2.1179888    0.4244005   -4.0329936 
C     1.6026079    1.2276197   -2.9892592 
C     0.6265204    2.1983586   -3.3128772 
C     0.1833597    2.3557505   -4.6304092 
H     0.3395733    1.6613670   -6.6832043 
H     2.0791775   -0.0575072   -6.1426661 
H     2.8900377   -0.3193512   -3.8060075 
H     0.1905023    2.8194442   -2.5232350 
H    -0.5739152    3.1124440   -4.8606672 
C     1.9252336    3.9707467    4.3414631 
C     2.4965026    2.6898634    4.3895611 
C     2.6250848    1.9352235    3.2171592 
C     2.1733141    2.4354697    1.9734889 
C     1.6188450    3.7359025    1.9390473 
C     1.4976161    4.4929181    3.1093071 
H     1.8280468    4.5662231    5.2548480 
H     2.8524190    2.2816421    5.3412553 
H     3.0863608    0.9418583    3.2577505 
H     1.2754219    4.1630810    0.9915173 
H     1.0675230    5.4986270    3.0608168 
C    -1.9175874    1.0678876    2.4453314 
C    -0.0209088   -0.6409919    3.5430736 
C    -1.1880994   -1.1543448   -3.0050028 
C     0.1866426   -2.9931964   -1.4661768 
C    -1.8266530    0.9890899    3.9982962 
C    -1.2428350   -0.3566045    4.4408730 
C    -0.9833270   -2.5777375   -3.6178309 
C    -0.7814809   -3.6102664   -2.4964588 
C    -1.7053343   -1.7122670    1.3504456 
C    -2.1067644   -1.6710949   -0.1329455 
C    -1.7050890    2.5126693    1.9241698 
C     0.6477652   -2.0203923    3.7398613 
C    -2.6070085   -0.5621544   -3.2190233 
C     1.6585621   -2.8470924   -1.9647904 
C    -1.8339847    2.6363861    0.4022106 
C    -2.6816989    3.4907549    2.6083437 
C     1.7247380   -2.2949280    2.6812383 
C     1.2395904   -2.1359983    5.1586034 
C    -2.9156982   -0.4309687   -4.7248671 
C    -2.7674330    0.8121046   -2.5533328 
C     2.1512747   -4.0907018   -2.7290162 
C     2.6128348   -2.5430860   -0.8006771 
H    -2.9053006    0.7021284    2.1014004 
H     0.7370393    0.1483617    3.7237915 
H    -0.4649238   -0.4481346   -3.4527226 
H     0.1750961   -3.5556948   -0.5134526 
H    -1.1468879    1.7907066    4.3420849 
H    -2.8116159    1.1796289    4.4558596 
H    -1.9839350   -1.1720981    4.3336534 
H    -0.9541384   -0.3253810    5.5055562 
H    -0.1018140   -2.5644867   -4.2817862 
H    -1.8454838   -2.8559733   -4.2448286 
H    -1.7495515   -3.8312346   -2.0104147 
H    -0.4077920   -4.5733493   -2.8827292 
H    -2.5963846   -1.7794221    1.9991748 
H    -1.0860195   -2.6041826    1.5547564 
H    -2.5800297   -2.6194903   -0.4408577 
H    -2.8413964   -0.8673748   -0.3127971 
H    -0.6769734    2.8055390    2.2081205 
H    -0.1397292   -2.7945423    3.6414723 
H    -3.3418187   -1.2644629   -2.7752535 
H     1.6914716   -1.9890647   -2.6653822 
H    -1.1331477    1.9526552   -0.1198471 
H    -1.6051740    3.6652247    0.0730752 
H    -2.8598595    2.3984242    0.0682597 
H    -2.5446736    3.5292914    3.7014165 
H    -2.5286591    4.5124376    2.2196473 
H    -3.7307659    3.2069531    2.4034981 
H     2.5122368   -1.5195054    2.7046679 
H     2.2078932   -3.2726570    2.8487293 
H     1.2989516   -2.2993513    1.6639447 
H     2.0042388   -1.3549748    5.3263747 
H     1.7240859   -3.1180994    5.2942217 
H     0.4687829   -2.0334375    5.9402142 
H    -2.8895260   -1.3995061   -5.2507311 
H    -3.9213637   -0.0003893   -4.8707103 
H    -2.1819534    0.2401476   -5.2073991 
H    -2.5399842    0.7836240   -1.4769364 
H    -3.7981926    1.1883119   -2.6706349 
H    -2.0812133    1.5436659   -3.0121311 
H     2.0543880   -5.0010495   -2.1095783 
H     3.2179206   -3.9742534   -2.9877567 
H     1.6009032   -4.2548268   -3.6703403 
H     2.6863822   -3.4077042   -0.1172548 
H     3.6278721   -2.3162163   -1.1705868 
H     2.2625568   -1.6746368   -0.2102909 
