97
Energy =
C     2.1623840    0.9948112   -1.6609481 
C     1.9945961    1.9973255   -0.6641626 
C     2.2183266    1.6973729    0.7055171 
H     1.5155068    2.9460118   -0.9345185 
Pd    0.6457361    0.3375545   -0.1664377 
P    -0.6207659   -0.3438850    1.6830194 
P    -0.5873862   -1.1763246   -1.4451424 
H     2.8905646    0.1982567   -1.4459807 
H     2.9048204    0.8670989    0.9314587 
C     1.0747931    1.2722126   -5.8210081 
C     1.9368665    0.2614238   -5.3692114 
C     2.3006435    0.1998939   -4.0177879 
C     1.8048396    1.1404573   -3.0858300 
C     0.9455066    2.1589341   -3.5585933 
C     0.5881157    2.2248486   -4.9098749 
H     0.7894377    1.3235067   -6.8765403 
H     2.3333070   -0.4779307   -6.0728466 
H     2.9823816   -0.5867675   -3.6753180 
H     0.5358311    2.8970461   -2.8616263 
H    -0.0803516    3.0204994   -5.2547685 
C     1.4297957    4.2485810    4.0833397 
C     2.0775219    3.0142763    4.2475038 
C     2.3463349    2.2113190    3.1328206 
C     1.9603131    2.6122151    1.8328888 
C     1.3307361    3.8689207    1.6815767 
C     1.0700413    4.6759194    2.7941779 
H     1.2204347    4.8816957    4.9514228 
H     2.3829524    2.6809741    5.2449087 
H     2.8676790    1.2562146    3.2612450 
H     1.0327298    4.2207047    0.6893795 
H     0.5811048    5.6458063    2.6561078 
C    -1.9812781    0.7186158    2.4688527 
C     0.1444267   -0.7492771    3.3396419 
C    -1.2992224   -0.8125161   -3.1486122 
C     0.2471193   -2.8073722   -1.9522619 
C    -1.9998939    0.2896279    3.9769416 
C    -1.0966865   -0.9300765    4.2341133 
C    -1.3163370   -2.1988873   -3.8277456 
C    -0.0017001   -2.9020164   -3.4797440 
C    -1.5593561   -1.8600117    1.0911624 
C    -2.0277868   -1.6724068   -0.3609310 
C    -1.8068143    2.2527546    2.3039040 
C     1.2859205   -1.7908826    3.4528203 
C    -2.6350238   -0.0357069   -3.1858042 
C     1.7363481   -2.9534374   -1.5520385 
C    -1.8045608    2.7038016    0.8389014 
C    -2.9109445    3.0123870    3.0678542 
C     2.1126160   -1.5211318    4.7276634 
C     0.8131491   -3.2551783    3.4431170 
C    -3.1076592    0.1653793   -4.6393964 
C    -2.5227075    1.3180061   -2.4705605 
C     2.3581866   -4.2198150   -2.1727223 
C     1.9271891   -2.9609102   -0.0309676 
H    -2.9196360    0.4155009    1.9655638 
H     0.5862757    0.2395241    3.5840427 
H    -0.5186668   -0.1934005   -3.6332904 
H    -0.3345663   -3.5987624   -1.4382693 
H    -1.6024080    1.1318065    4.5701106 
H    -3.0325069    0.1150155    4.3208122 
H    -1.6125913   -1.8763591    3.9902407 
H    -0.8155320   -0.9886267    5.3005593 
H    -1.4317432   -2.0971572   -4.9201369 
H    -2.1827708   -2.7844156   -3.4620833 
H    -0.0023925   -3.9548762   -3.8082873 
H     0.8260026   -2.3924662   -4.0075258 
H    -2.4121404   -2.0696674    1.7598629 
H    -0.8670616   -2.7162256    1.1594754 
H    -2.5057819   -2.5893963   -0.7495161 
H    -2.7722794   -0.8580689   -0.4259566 
H    -0.8310133    2.5229559    2.7533972 
H     1.9557222   -1.6330355    2.5856906 
H    -3.3989799   -0.6490223   -2.6666952 
H     2.2703176   -2.0737514   -1.9627447 
H    -1.0015326    2.2052228    0.2598069 
H    -1.6452012    3.7930202    0.7684559 
H    -2.7702259    2.4728557    0.3545041 
H    -2.9144465    2.7871669    4.1468802 
H    -2.7656625    4.1007957    2.9572424 
H    -3.9090813    2.7616209    2.6632380 
H     1.5002782   -1.6613419    5.6363927 
H     2.9661094   -2.2178822    4.7916690 
H     2.5109610   -0.4919019    4.7453416 
H     0.2074899   -3.5028128    2.5569307 
H     0.2075391   -3.4827414    4.3379959 
H     1.6825139   -3.9344442    3.4498950 
H    -3.3227680   -0.7908917   -5.1442968 
H    -4.0314334    0.7689754   -4.6602399 
H    -2.3376044    0.7001159   -5.2254544 
H    -2.1423758    1.2050340   -1.4420542 
H    -3.5022906    1.8235434   -2.4200414 
H    -1.8225778    1.9809406   -3.0069866 
H     1.8113005   -5.1244909   -1.8486875 
H     3.4076658   -4.3280369   -1.8486937 
H     2.3509546   -4.1926376   -3.2748648 
H     1.4188785   -3.8279777    0.4280705 
H     2.9962315   -3.0164484    0.2375563 
H     1.5172485   -2.0371748    0.4231302 
