97
Energy =
C     2.0620280    1.1211683   -1.6895707 
C     1.8942244    2.1194477   -0.6812660 
C     2.2046094    1.8438719    0.6706194 
H     1.3524045    3.0411043   -0.9275766 
Pd    0.6564354    0.3826921   -0.1374418 
P    -0.7301100   -0.1565651    1.6683337 
P    -0.3531126   -1.3515551   -1.3107318 
H     2.8855148    0.4061616   -1.5507945 
H     2.8899232    1.0045959    0.8682484 
C     0.6072626    1.4305074   -5.7372242 
C     0.0184260    2.2015998   -4.7207821 
C     0.4922233    2.1184570   -3.4068109 
C     1.5733443    1.2673913   -3.0771674 
C     2.1642412    0.5094410   -4.1130213 
C     1.6844391    0.5865749   -5.4274051 
H     0.2324313    1.4928931   -6.7637873 
H    -0.8218495    2.8643591   -4.9528556 
H    -0.0022364    2.6998477   -2.6213765 
H     3.0157436   -0.1413649   -3.8853123 
H     2.1592556   -0.0090257   -6.2140437 
C     1.5845037    4.4304031    4.0518218 
C     2.0647355    3.1223453    4.2252681 
C     2.2858100    2.3041287    3.1116407 
C     2.0132311    2.7666501    1.8028214 
C     1.5554558    4.0947574    1.6423472 
C     1.3440197    4.9155541    2.7557023 
H     1.4140697    5.0744012    4.9203588 
H     2.2753637    2.7433862    5.2307135 
H     2.6704890    1.2870544    3.2502337 
H     1.3613757    4.4936701    0.6420270 
H     0.9907544    5.9418507    2.6126054 
C    -1.7295790    1.0551868    2.7353720 
C     0.0506224   -1.0237401    3.1307283 
C    -1.3519083   -1.0195572   -2.8692131 
C     0.6732041   -2.7577557   -2.0637967 
C    -1.3836919    0.6685411    4.2022314 
C    -0.9636117   -0.8061841    4.2699724 
C    -1.2288013   -2.3455565   -3.6499604 
C     0.2309093   -2.8024173   -3.5480873 
C    -2.0529822   -1.2789917    0.9574733 
C    -1.4865378   -2.2315414   -0.1053028 
C    -1.5208450    2.5594195    2.4393165 
C     0.6170711   -2.4533946    2.9065815 
C    -2.7830937   -0.4753112   -2.6556386 
C     2.2036679   -2.6647319   -1.8529064 
C    -1.7855058    2.9253804    0.9727787 
C    -2.3891385    3.4227344    3.3742807 
C     1.8851116   -2.6569044    3.7575209 
C    -0.3991599   -3.5764350    3.1793338 
C    -3.5539685   -0.4062917   -3.9888437 
C    -2.7632910    0.9070565   -1.9845288 
C     2.9287210   -3.8126499   -2.5818888 
C     2.5906735   -2.6427739   -0.3673068 
H    -2.7857154    0.7938048    2.5245694 
H     0.9096755   -0.3514623    3.3270244 
H    -0.7585220   -0.2490298   -3.4005548 
H     0.3058564   -3.6696432   -1.5514308 
H    -0.5412342    1.3018440    4.5392861 
H    -2.2373959    0.8788411    4.8677932 
H    -1.8430070   -1.4631365    4.1345208 
H    -0.5228974   -1.0581544    5.2512694 
H    -1.5283914   -2.2089703   -4.7028715 
H    -1.9074156   -3.1060752   -3.2151929 
H     0.3706770   -3.8138191   -3.9650978 
H     0.8654542   -2.1112150   -4.1335710 
H    -2.8061942   -0.6032691    0.5138533 
H    -2.5565197   -1.8317247    1.7704211 
H    -0.8666816   -3.0137975    0.3673084 
H    -2.2926441   -2.7485714   -0.6564865 
H    -0.4635134    2.7847897    2.6621854 
H     0.9260479   -2.5206427    1.8473838 
H    -3.3252232   -1.1821594   -1.9949058 
H     2.5341538   -1.7120757   -2.3084054 
H    -1.1103184    2.3690986    0.2940873 
H    -1.6139207    4.0026176    0.8061043 
H    -2.8273507    2.6986187    0.6809536 
H    -2.1459294    3.2572310    4.4370825 
H    -2.2259737    4.4932586    3.1609317 
H    -3.4643158    3.2077867    3.2292264 
H     1.6618406   -2.5485563    4.8345469 
H     2.3065166   -3.6653384    3.6023574 
H     2.6641654   -1.9192894    3.4938792 
H    -0.6620354   -3.6257384    4.2504307 
H     0.0327275   -4.5530281    2.9002214 
H    -1.3373140   -3.4525542    2.6121613 
H    -3.7096014   -1.4036516   -4.4323270 
H    -4.5474585    0.0480633   -3.8317585 
H    -3.0075602    0.2163634   -4.7209655 
H    -2.1442377    0.9117544   -1.0708424 
H    -3.7820395    1.2316711   -1.7117103 
H    -2.3364111    1.6617276   -2.6673109 
H     2.5830671   -4.7947917   -2.2098689 
H     4.0168330   -3.7512497   -2.4074553 
H     2.7630702   -3.7825037   -3.6716337 
H     2.2669992   -3.5688743    0.1424515 
H     3.6841840   -2.5562756   -0.2451912 
H     2.1256805   -1.7817586    0.1538406 
