97
Energy =
C     2.0852214    1.0919480   -1.7543804 
C     2.1161596    1.8516004   -0.5489481 
C     2.5421049    1.2613542    0.6652740 
H     1.6608625    2.8486055   -0.5231284 
Pd    0.7777767    0.1344046   -0.1814838 
P    -0.5194348   -0.3201092    1.7128790 
P    -0.5175076   -1.5055620   -1.2706117 
H     2.8176868    0.2786932   -1.8440779 
H     3.1953605    0.3784531    0.5852719 
C     0.4969241    2.4727301   -5.5182490 
C     1.1315794    1.2243940   -5.4202830 
C     1.6481113    0.7921323   -4.1932524 
C     1.5297641    1.5879797   -3.0292959 
C     0.8823913    2.8403710   -3.1447808 
C     0.3819063    3.2799236   -4.3751001 
H     0.1017235    2.8176243   -6.4790115 
H     1.2373085    0.5910822   -6.3073565 
H     2.1581882   -0.1746668   -4.1325804 
H     0.7649304    3.4848811   -2.2680610 
H    -0.1063487    4.2576129   -4.4419396 
C     2.5385901    2.9775074    4.6100572 
C     3.3500805    1.8747791    4.3056657 
C     3.3504773    1.3412751    3.0102036 
C     2.5426831    1.8988081    1.9923926 
C     1.7444782    3.0224898    2.3100704 
C     1.7413533    3.5519738    3.6042538 
H     2.5314592    3.3941604    5.6223028 
H     3.9841624    1.4277798    5.0781040 
H     3.9854309    0.4797843    2.7766786 
H     1.1063436    3.4748456    1.5458154 
H     1.1128595    4.4188892    3.8332419 
C    -2.0315601    0.8018060    1.9676969 
C     0.0424959   -0.2245849    3.5089024 
C    -1.3943330   -1.3486222   -2.9238229 
C     0.1889381   -3.2431306   -1.6447007 
C    -1.7299928    1.5176740    3.3005937 
C    -1.1250431    0.4729228    4.2463650 
C    -1.6922190   -2.8177559   -3.2933412 
C    -0.4155492   -3.6266246   -3.0232586 
C    -1.3176457   -1.9753954    1.3878421 
C    -1.8729473   -1.9578980   -0.0479279 
C    -2.4990804    1.6771565    0.7791921 
C     0.5403072   -1.5490121    4.1341017 
C    -2.5796241   -0.3551603   -2.9676902 
C     1.7174912   -3.4667984   -1.5375814 
C    -3.9074244    2.2430695    1.0447309 
C    -1.5165276    2.7951838    0.4067825 
C     1.7779866   -2.0830712    3.3961746 
C     0.8522294   -1.3660634    5.6322691 
C    -3.4046523   -0.5157929   -4.2593344 
C    -2.0741997    1.0899943   -2.8402068 
C     2.2174340   -3.2392625   -0.1055124 
C     2.5375492   -2.6403409   -2.5374546 
H    -2.8387276    0.0681602    2.1668116 
H     0.8938986    0.4820903    3.4741698 
H    -0.6025573   -0.9693758   -3.6035508 
H    -0.2813389   -3.8689608   -0.8635370 
H    -1.0028224    2.3346986    3.1422329 
H    -2.6465618    1.9666650    3.7203402 
H    -1.8932029   -0.2751751    4.5235324 
H    -0.7659394    0.9353586    5.1810639 
H    -1.9902797   -2.9025564   -4.3522295 
H    -2.5411393   -3.1954671   -2.6916698 
H    -0.5983099   -4.7141698   -3.0658922 
H     0.3168383   -3.3946392   -3.8159648 
H    -2.1180079   -2.1711088    2.1236844 
H    -0.5510952   -2.7624916    1.5062811 
H    -2.3108266   -2.9345180   -0.3182807 
H    -2.6753573   -1.2045387   -0.1400234 
H    -2.5769284    1.0062821   -0.0965920 
H    -0.2747527   -2.2957200    4.0478074 
H    -3.2540013   -0.5794530   -2.1167109 
H     1.8669454   -4.5385328   -1.7800094 
H    -4.6268067    1.4406906    1.2872324 
H    -4.2812516    2.7770945    0.1539812 
H    -3.9015951    2.9606048    1.8843704 
H    -0.5168499    2.3727003    0.1914474 
H    -1.8577568    3.3255081   -0.4980481 
H    -1.4176301    3.5385271    1.2170268 
H     2.6366719   -1.4063596    3.5475460 
H     2.0626692   -3.0822154    3.7675980 
H     1.6070352   -2.1588166    2.3100958 
H     1.6021029   -0.5663766    5.7767948 
H     1.2654286   -2.2991040    6.0527289 
H    -0.0457941   -1.1054267    6.2164411 
H    -3.8932215   -1.5022977   -4.3243779 
H    -4.1961106    0.2524244   -4.3002675 
H    -2.7638985   -0.3859958   -5.1508449 
H    -1.3840748    1.2109699   -1.9867263 
H    -2.9123711    1.7960090   -2.7104723 
H    -1.5187436    1.3811695   -3.7475792 
H     2.0854406   -2.1745549    0.1795027 
H     3.2897000   -3.4815279   -0.0099652 
H     1.6637890   -3.8587896    0.6219263 
H     2.3708343   -1.5651202   -2.3597957 
H     3.6155565   -2.8416371   -2.4174943 
H     2.2747828   -2.8580618   -3.5860740 
