97
Energy =
C     1.6185823    0.4954278   -2.3019726 
C     1.5738488    1.7103215   -1.5581954 
C     2.2276229    1.8233104   -0.3053652 
H     0.8978602    2.5094935   -1.8870578 
Pd    0.7100876    0.1622164   -0.2652109 
P    -0.1738357    0.3987041    1.8797019 
P    -0.4964823   -1.8464086   -0.3972681 
H     2.5164764   -0.1283762   -2.1856842 
H     3.0574423    1.1255972   -0.1127504 
C    -0.4921385   -0.0134129   -6.0238314 
C    -1.0172187    0.8314966   -5.0309986 
C    -0.3536378    0.9809423   -3.8098699 
C     0.8617416    0.3014655   -3.5561672 
C     1.3711254   -0.5533906   -4.5595756 
C     0.7004770   -0.7096923   -5.7802762 
H    -1.0144960   -0.1310563   -6.9785450 
H    -1.9552322    1.3677023   -5.2085675 
H    -0.7887375    1.6232790   -3.0362982 
H     2.3168115   -1.0793186   -4.3900277 
H     1.1187143   -1.3684765   -6.5483134 
C     2.1976295    5.1807844    2.3927865 
C     3.0862307    4.1120767    2.5815480 
C     3.0896153    3.0363192    1.6841808 
C     2.2044178    3.0011591    0.5811875 
C     1.3338225    4.0996080    0.3908243 
C     1.3286018    5.1727319    1.2879558 
H     2.1906965    6.0229591    3.0920289 
H     3.7817749    4.1166850    3.4271662 
H     3.7899502    2.2069503    1.8334635 
H     0.6575859    4.1236807   -0.4692143 
H     0.6456225    6.0123980    1.1225042 
C     0.3777461   -3.5057336   -0.1450757 
C    -1.4706173   -2.4738290   -1.8646636 
C     0.7568284    0.9792961    3.4029795 
C    -1.5777043    1.6722540    2.0431683 
C    -0.5781425   -4.5679466   -0.7911384 
C    -1.8227092   -3.9149169   -1.4409673 
C    -0.3132067    1.7428106    4.2102622 
C    -1.1164668    2.5809365    3.2106681 
C    -1.6574360   -1.8258398    1.0804282 
C    -0.9516352   -1.2421627    2.3136131 
C     1.8343838   -3.6044207   -0.6774200 
C    -2.6044957   -1.6093750   -2.4751609 
C     1.5670314   -0.0921966    4.1653682 
C    -1.9464460    2.4352332    0.7457103 
C     1.9557698   -3.2937136   -2.1768086 
C     2.8109890   -2.7518723    0.1425609 
C    -2.8342646   -2.0315261   -3.9401599 
C    -3.9338493   -1.6420592   -1.7017212 
C     2.2515457    0.5176919    5.4041833 
C     2.6054240   -0.7565491    3.2485204 
C    -2.8774761    3.6268563    1.0413009 
C    -2.5796045    1.5153018   -0.3062390 
H     0.4168193   -3.6451126    0.9506000 
H    -0.6678290   -2.5182154   -2.6267463 
H     1.4676907    1.7261151    2.9970529 
H    -2.4587014    1.0852691    2.3730715 
H    -0.0111853   -5.1175779   -1.5612913 
H    -0.8794312   -5.3140650   -0.0377333 
H    -2.6661097   -3.8927306   -0.7284627 
H    -2.1646113   -4.5044040   -2.3095844 
H     0.1568882    2.3829752    4.9760161 
H    -0.9714292    1.0273283    4.7413262 
H    -1.9838126    3.0666676    3.6883343 
H    -0.4681687    3.3826331    2.8090698 
H    -2.0314516   -2.8446474    1.2813609 
H    -2.5256671   -1.2032692    0.8076797 
H    -1.6516388   -1.1265017    3.1603307 
H    -0.1354440   -1.9084585    2.6478576 
H     2.1178850   -4.6662791   -0.5286194 
H    -2.2346177   -0.5679948   -2.4917126 
H     0.8618095   -0.8698839    4.5216878 
H    -1.0025280    2.8345308    0.3284066 
H     1.3312584   -3.9579105   -2.7982028 
H     2.9997454   -3.4109738   -2.5143987 
H     1.6496402   -2.2540475   -2.3830739 
H     2.7961497   -3.0349185    1.2086344 
H     3.8445911   -2.8690379   -0.2261001 
H     2.5462703   -1.6763805    0.0722100 
H    -3.2177607   -3.0659988   -4.0025990 
H    -3.5769362   -1.3713680   -4.4207214 
H    -1.9007201   -1.9696506   -4.5239563 
H    -4.3927225   -2.6459335   -1.7310067 
H    -4.6507696   -0.9393613   -2.1597156 
H    -3.8222044   -1.3532690   -0.6442335 
H     1.5208071    0.8953608    6.1383305 
H     2.8730069   -0.2406256    5.9109061 
H     2.9104567    1.3563792    5.1122698 
H     2.1358035   -1.1927078    2.3512753 
H     3.1479720   -1.5601630    3.7750305 
H     3.3498038   -0.0174654    2.9008801 
H    -3.8063421    3.2900282    1.5376668 
H    -3.1639943    4.1287315    0.1008102 
H    -2.3975538    4.3803743    1.6875281 
H    -3.5207068    1.0708610    0.0657440 
H    -2.8152773    2.0718368   -1.2299646 
H    -1.8896075    0.6964446   -0.5835239 
