97
Energy =
C     1.5424084    0.5590790   -2.3829269 
C     1.3912961    1.8489682   -1.7868454 
C     1.9661274    2.1377862   -0.5276113 
H     0.6753234    2.5573528   -2.2218242 
Pd    0.5567424    0.3524592   -0.4052669 
P    -0.4070609    0.4311650    1.7250161 
P    -0.3403462   -1.7799079   -0.6314876 
H     2.4814963    0.0239674   -2.1824039 
H     2.7996345    1.4984955   -0.1964217 
C    -0.6189609   -0.8245216   -5.8481311 
C    -1.1388883    0.2243314   -5.0711059 
C    -0.4381351    0.6895352   -3.9530308 
C     0.8058292    0.1230159   -3.5882027 
C     1.3227537   -0.9205125   -4.3882931 
C     0.6169091   -1.3920274   -5.5032803 
H    -1.1711101   -1.1912783   -6.7192425 
H    -2.1015361    0.6755912   -5.3335175 
H    -0.8763698    1.4830751   -3.3384720 
H     2.2940464   -1.3608879   -4.1370041 
H     1.0380643   -2.2006281   -6.1097465 
C     1.5140882    5.7515305    1.7624114 
C     2.2186998    4.6537824    2.2822411 
C     2.3793711    3.4964891    1.5119208 
C     1.8229348    3.4021435    0.2146417 
C     1.1401611    4.5256493   -0.3057449 
C     0.9882357    5.6860165    0.4614933 
H     1.3893067    6.6594663    2.3609172 
H     2.6509815    4.7042919    3.2869577 
H     2.9391822    2.6455377    1.9171573 
H     0.7226677    4.4971343   -1.3168225 
H     0.4567200    6.5464665    0.0423411 
C     0.7597990   -3.2718677   -1.0329423 
C    -1.6270235   -2.1609118   -1.9489632 
C     0.7308912    0.2749503    3.2016435 
C    -1.4053354    1.8678787    2.4641350 
C     0.0892335   -3.9206365   -2.2697447 
C    -1.4217125   -3.6685498   -2.2098299 
C    -0.1112977    0.8190512    4.3714229 
C    -0.7747004    2.1079521    3.8664381 
C    -1.0961056   -2.2253417    1.0246500 
C    -1.6267196   -0.9920712    1.7695641 
C     2.2684311   -2.9715015   -1.2033414 
C    -3.0712563   -1.7051064   -1.6385992 
C     1.4876397   -1.0684130    3.3959552 
C    -1.4874580    3.1546836    1.6087759 
C     2.8864318   -2.3451476    0.0549105 
C     3.0389334   -4.2436587   -1.6066370 
C    -3.1642107   -0.1753276   -1.5252309 
C    -4.0559185   -2.2187026   -2.7077521 
C     0.7286075   -2.0924339    4.2584968 
C     2.8873661   -0.8037801    3.9828369 
C    -2.3221190    4.2321593    2.3272242 
C    -2.0368924    2.9057953    0.1977243 
H     0.6355927   -3.9460573   -0.1617426 
H    -1.2658067   -1.6038476   -2.8364040 
H     1.4846067    1.0494415    2.9556125 
H    -2.4265516    1.4543509    2.5845045 
H     0.4955506   -3.4532291   -3.1860784 
H     0.3203236   -4.9979879   -2.3169568 
H    -1.8843511   -4.2608715   -1.3955039 
H    -1.9119485   -3.9731896   -3.1499587 
H     0.5152927    1.0072609    5.2616732 
H    -0.8797807    0.0817483    4.6696532 
H    -1.5362536    2.4769251    4.5734159 
H    -0.0058680    2.8978005    3.7707754 
H    -0.2852527   -2.7056058    1.6004212 
H    -1.8859584   -2.9854990    0.8852677 
H    -2.5440717   -0.6101416    1.2869587 
H    -1.8894736   -1.2318405    2.8151161 
H     2.3603806   -2.2431703   -2.0313883 
H    -3.3719015   -2.1511689   -0.6686900 
H     1.6367266   -1.5085391    2.3929235 
H    -0.4572876    3.5394687    1.5115422 
H     2.3813060   -1.3933451    0.3163393 
H     3.9567888   -2.1241077   -0.0983641 
H     2.8038316   -3.0275367    0.9209018 
H     2.6918559   -4.6507088   -2.5708486 
H     4.1163514   -4.0250968   -1.7045132 
H     2.9238291   -5.0324318   -0.8403393 
H    -2.9862743    0.2965186   -2.5068767 
H    -4.1616953    0.1378218   -1.1721465 
H    -2.4094606    0.2317758   -0.8305178 
H    -3.7494122   -1.8766563   -3.7133675 
H    -5.0696609   -1.8290062   -2.5112788 
H    -4.1185200   -3.3194092   -2.7219610 
H    -0.2931053   -2.2886277    3.8914043 
H     1.2699694   -3.0541723    4.2674526 
H     0.6462698   -1.7502926    5.3049265 
H     3.4816864   -0.1525235    3.3171776 
H     3.4431468   -1.7478917    4.1181507 
H     2.8172886   -0.3112883    4.9697796 
H    -3.3593510    3.8860153    2.4932839 
H    -2.3651934    5.1486863    1.7138099 
H    -1.8915486    4.5085706    3.3041140 
H    -3.0636486    2.4973807    0.2298168 
H    -2.0650127    3.8470643   -0.3775541 
H    -1.4005653    2.1908270   -0.3589834 
