97
Energy =
C     1.6060122    0.5098871   -2.3383250 
C     1.5508120    1.7613442   -1.6569283 
C     2.1605722    1.9111785   -0.3866593 
H     0.8994805    2.5566021   -2.0401863 
Pd    0.5903618    0.2651148   -0.3531242 
P    -0.2742155    0.3361695    1.8074828 
P    -0.5812277   -1.7323696   -0.6009962 
H     2.4867883   -0.1184293   -2.1486518 
H     2.9609532    1.1976539   -0.1360246 
C    -0.5288653   -0.5513255   -5.9248479 
C     0.5973090   -1.2820993   -5.5159010 
C     1.2944491   -0.9102061   -4.3594533 
C     0.8782677    0.1947784   -3.5809796 
C    -0.2571028    0.9223769   -4.0075003 
C    -0.9472910    0.5562053   -5.1684106 
H    -1.0748507   -0.8385239   -6.8290718 
H     0.9384193   -2.1404785   -6.1038884 
H     2.1787916   -1.4788231   -4.0500315 
H    -0.6198030    1.7677726   -3.4133350 
H    -1.8239602    1.1326127   -5.4819465 
C     2.0699398    5.3194801    2.2393283 
C     2.9370204    4.2446223    2.4840708 
C     2.9664487    3.1544792    1.6049592 
C     2.1253497    3.1093213    0.4670742 
C     1.2791274    4.2149933    0.2194690 
C     1.2505797    5.3033620    1.0969629 
H     2.0429101    6.1735121    2.9235965 
H     3.5974009    4.2570917    3.3574114 
H     3.6566798    2.3241275    1.7928339 
H     0.6355803    4.2266864   -0.6647227 
H     0.5874406    6.1492924    0.8880531 
C     0.3304496   -3.3908948   -0.5905328 
C    -1.5230885   -2.0872822   -2.1944203 
C     0.8215470    0.8961973    3.2268165 
C    -1.7040265    1.4893646    2.2634359 
C     0.2466386   -3.8407360   -2.0647588 
C    -1.1876065   -3.5583238   -2.5339956 
C    -0.0817471    1.7943377    4.1011686 
C    -1.0260727    2.5520937    3.1552628 
C    -1.7201763   -1.8574094    0.8816899 
C    -0.9718126   -1.3694761    2.1398279 
C     1.7062243   -3.4777879    0.1156639 
C    -3.0195811   -1.6996285   -2.1900704 
C     1.6368072   -0.2098538    3.9324044 
C    -2.6372590    1.9749117    1.1292806 
C     2.1816784   -4.9426547    0.1839427 
C     2.7877310   -2.5746826   -0.4926899 
C    -3.1904378   -0.1800265   -2.0207871 
C    -3.7148451   -2.1705030   -3.4822740 
C     2.4016352    0.3552753    5.1445911 
C     2.6120598   -0.8756551    2.9454404 
C    -1.9342021    2.8226086    0.0613384 
C    -3.8557204    2.7174847    1.7118964 
H    -0.3636374   -4.0387224   -0.0182651 
H    -1.0069443   -1.4442081   -2.9326670 
H     1.5369077    1.5691378    2.7149912 
H    -2.3160454    0.8519752    2.9329065 
H     0.9617767   -3.2700258   -2.6850417 
H     0.5034559   -4.9092892   -2.1628544 
H    -1.8910592   -4.2364343   -2.0130153 
H    -1.3009682   -3.7345725   -3.6168710 
H     0.5321364    2.4881505    4.7000439 
H    -0.6685379    1.1761742    4.8080493 
H    -1.7811595    3.1326564    3.7122333 
H    -0.4460663    3.2656141    2.5400022 
H    -2.0726337   -2.8970751    1.0014626 
H    -2.6064775   -1.2271431    0.6898667 
H    -1.6387108   -1.3455629    3.0198070 
H    -0.1312260   -2.0454005    2.3780080 
H     1.5448860   -3.1426186    1.1589980 
H    -3.5077027   -2.2152123   -1.3383846 
H     0.9312130   -0.9777537    4.3089067 
H    -3.0225578    1.0642362    0.6322142 
H     1.4067878   -5.6004782    0.6161030 
H     3.0857649   -5.0239911    0.8114685 
H     2.4373735   -5.3289036   -0.8185250 
H     2.4790619   -1.5133217   -0.4499115 
H     3.7331311   -2.6735978    0.0671838 
H     2.9914891   -2.8330153   -1.5471113 
H    -2.8486582    0.3450478   -2.9287229 
H    -4.2463600    0.0875948   -1.8451483 
H    -2.5906725    0.2116232   -1.1801059 
H    -3.2079371   -1.7475899   -4.3690944 
H    -4.7653438   -1.8319603   -3.4959578 
H    -3.7164266   -3.2691653   -3.5766150 
H     1.7193476    0.7400230    5.9206104 
H     3.0251236   -0.4301310    5.6056067 
H     3.0696854    1.1802390    4.8348727 
H     2.0965805   -1.2429984    2.0404017 
H     3.1340889   -1.7288900    3.4109167 
H     3.3774949   -0.1522418    2.6102047 
H    -1.5708959    3.7756314    0.4810973 
H    -2.6276574    3.0564037   -0.7646520 
H    -1.0679486    2.2788673   -0.3647365 
H    -3.5581341    3.6746758    2.1754173 
H    -4.5832683    2.9466304    0.9142376 
H    -4.3708493    2.1118537    2.4785810 
