97
Energy =
C     1.5274929    0.5400925   -2.2618298 
C     1.5579061    1.7714630   -1.5450096 
C     2.1678750    1.8570108   -0.2696652 
H     0.9650880    2.6189209   -1.9089359 
Pd    0.4985127    0.3102149   -0.2756889 
P    -0.3290613    0.3832509    1.9096796 
P    -0.6085550   -1.7244270   -0.5311481 
H     2.3380950   -0.1736248   -2.0590068 
H     2.9229232    1.0936009   -0.0283415 
C    -0.4559445   -0.1223336   -6.0337750 
C     0.3765686   -1.1051489   -5.4760012 
C     1.0183934   -0.8695576   -4.2545923 
C     0.8334331    0.3436306   -3.5507600 
C    -0.0080101    1.3222247   -4.1274938 
C    -0.6370143    1.0943102   -5.3564789 
H    -0.9525001   -0.2984926   -6.9932579 
H     0.5376174   -2.0523150   -6.0013301 
H     1.6830343   -1.6344136   -3.8371323 
H    -0.1825000    2.2726551   -3.6134792 
H    -1.2787535    1.8699715   -5.7868969 
C     2.3010481    5.2374282    2.3900562 
C     3.1036062    4.1100954    2.6176223 
C     3.0584591    3.0275480    1.7295535 
C     2.2060003    3.0438495    0.5996780 
C     1.4241346    4.1997641    0.3705008 
C     1.4697887    5.2803518    1.2567759 
H     2.3326908    6.0858412    3.0810582 
H     3.7713670    4.0747818    3.4846560 
H     3.6985524    2.1551781    1.9037822 
H     0.7727439    4.2564569   -0.5062952 
H     0.8560830    6.1660872    1.0624029 
C     0.4188315   -3.3261335   -0.6333903 
C    -1.7419259   -2.2036271   -1.9483739 
C     0.7742953    0.9271620    3.3511446 
C    -1.7288862    1.5878688    2.3661174 
C    -0.3857916   -4.2388100   -1.6094282 
C    -1.8251643   -3.7349628   -1.7848796 
C    -0.0947425    1.8861483    4.1941492 
C    -1.0110582    2.6436796    3.2318866 
C    -1.6307131   -1.9810485    1.0261166 
C    -0.9699673   -1.3434015    2.2619269 
C     1.9038096   -3.1718688   -1.0546421 
C    -3.0693314   -1.4222531   -2.0862520 
C     1.5124704   -0.1785624    4.1403519 
C    -2.6542578    2.1607907    1.2691011 
C     2.7280177   -2.3639920   -0.0465510 
C     2.5626749   -4.5506085   -1.2689489 
C    -2.8021006    0.0127030   -2.5691162 
C    -4.0425862   -2.1278588   -3.0512329 
C     2.2692950    0.4210053    5.3425724 
C     2.4830402   -0.9534309    3.2377919 
C    -3.5666927    1.0810336    0.6778035 
C    -1.9127536    2.9331243    0.1686784 
H     0.3920545   -3.7444492    0.3914826 
H    -1.1245624   -1.9879812   -2.8460599 
H     1.5362855    1.5468059    2.8409171 
H    -2.3581080    0.9792819    3.0464912 
H     0.1074488   -4.1991221   -2.5979684 
H    -0.3539874   -5.2895483   -1.2766263 
H    -2.4595415   -3.9963302   -0.9165626 
H    -2.2896234   -4.2017584   -2.6700284 
H     0.5460888    2.5752293    4.7694115 
H    -0.6998061    1.3105042    4.9211252 
H    -1.7543610    3.2639668    3.7633730 
H    -0.4086040    3.3211457    2.5981018 
H    -1.7933102   -3.0603301    1.1906044 
H    -2.6185325   -1.5290151    0.8383870 
H    -1.6670412   -1.3253570    3.1184873 
H    -0.0915575   -1.9388845    2.5679651 
H     1.9115298   -2.6358238   -2.0242373 
H    -3.5621910   -1.3871886   -1.0943537 
H     0.7568631   -0.8849152    4.5399733 
H    -3.3019275    2.8848207    1.8037415 
H     2.2612430   -1.3800848    0.1599742 
H     3.7492439   -2.1827384   -0.4242822 
H     2.8152891   -2.9066059    0.9113897 
H     2.0801487   -5.1322924   -2.0710946 
H     3.6248786   -4.4257536   -1.5410207 
H     2.5216691   -5.1490665   -0.3401579 
H    -2.4389213   -0.0010213   -3.6101837 
H    -3.7210951    0.6217585   -2.5327032 
H    -2.0300104    0.5173406   -1.9605871 
H    -3.5750908   -2.2735337   -4.0423822 
H    -4.9461721   -1.5103581   -3.1935552 
H    -4.3667576   -3.1116403   -2.6729303 
H     1.5878212    0.8754958    6.0802237 
H     2.8456736   -0.3651547    5.8600241 
H     2.9813120    1.1980117    5.0076182 
H     1.9692097   -1.3939911    2.3694640 
H     2.9779604   -1.7702202    3.7902944 
H     3.2705345   -0.2841884    2.8454614 
H    -2.9686432    0.3509547    0.1091040 
H    -4.3012969    1.5166247   -0.0200352 
H    -4.1206582    0.5394441    1.4652118 
H    -1.1996623    2.2663019   -0.3589024 
H    -2.6239044    3.3253049   -0.5782252 
H    -1.3454263    3.7829885    0.5795978 
