97
Energy =
C     1.6586530    0.5812414   -2.3198511 
C     1.6150147    1.8088668   -1.5967965 
C     2.2298097    1.9273989   -0.3242520 
H     0.9566714    2.6120492   -1.9503093 
Pd    0.6782148    0.2926400   -0.3166704 
P    -0.2190857    0.4436039    1.8133543 
P    -0.6017432   -1.6497232   -0.5687719 
H     2.5343962   -0.0640388   -2.1628288 
H     3.0480957    1.2261129   -0.0991103 
C    -0.4851369   -0.2200022   -5.9705418 
C    -0.9143339    0.8152654   -5.1231790 
C    -0.2313036    1.0838774   -3.9319684 
C     0.9154557    0.3367899   -3.5698953 
C     1.3379733   -0.6973866   -4.4362906 
C     0.6428073   -0.9769624   -5.6198962 
H    -1.0265560   -0.4327063   -6.8977284 
H    -1.7931382    1.4115514   -5.3898305 
H    -0.6045953    1.8708628   -3.2677722 
H     2.2314478   -1.2781269   -4.1805467 
H     0.9900099   -1.7816405   -6.2763343 
C     2.0854930    5.2806097    2.3770641 
C     2.9681566    4.2134577    2.5991105 
C     3.0138962    3.1416280    1.6979961 
C     2.1758994    3.1074703    0.5586027 
C     1.3117839    4.2049790    0.3355624 
C     1.2656272    5.2749748    1.2352815 
H     2.0458736    6.1196716    3.0789730 
H     3.6274107    4.2168739    3.4734029 
H     3.7124130    2.3154309    1.8723421 
H     0.6713055    4.2293666   -0.5517050 
H     0.5881203    6.1135529    1.0436908 
C     0.2935566   -3.2983222   -0.6563484 
C    -1.5430260   -1.8974162   -2.1864413 
C     0.7693713    0.9154228    3.3321854 
C    -1.5786194    1.7409339    2.0771702 
C     0.3785403   -3.5216171   -2.1816737 
C    -1.0208581   -3.2455326   -2.7533319 
C    -0.2565819    1.6580266    4.2130302 
C    -1.0627449    2.5717312    3.2808644 
C    -1.7383842   -1.7395173    0.9186025 
C    -1.0338954   -1.1984008    2.1748772 
C     1.5931166   -3.4656125    0.1697651 
C    -3.0857464   -1.7085001   -2.1570091 
C     1.5904352   -0.2137375    3.9929150 
C    -1.9502635    2.5780166    0.8278642 
C     2.0141576   -4.9476803    0.2151651 
C     2.7519971   -2.5795281   -0.3104995 
C    -3.6038444   -1.4103236   -3.5777964 
C    -3.8590155   -2.8912717   -1.5452320 
C     2.3291544    0.3054431    5.2416573 
C     2.5864485   -0.8300256    2.9956760 
C    -2.8814109    3.7477733    1.1989140 
C    -2.5815816    1.7217957   -0.2800518 
H    -0.4527285   -4.0140139   -0.2543130 
H    -1.1288810   -1.0852588   -2.8107009 
H     1.4783338    1.6719413    2.9399940 
H    -2.4694819    1.1627110    2.3959022 
H     1.1125770   -2.8250659   -2.6260399 
H     0.7149359   -4.5467125   -2.4140708 
H    -1.6948879   -4.0670476   -2.4539182 
H    -1.0077878   -3.2125571   -3.8556861 
H     0.2505558    2.2431934    4.9989655 
H    -0.9203068    0.9318528    4.7222994 
H    -1.9037533    3.0528519    3.8077393 
H    -0.4031596    3.3775780    2.9059432 
H    -2.0725193   -2.7796981    1.0738489 
H    -2.6319960   -1.1348919    0.6824075 
H    -1.7408246   -1.0982821    3.0177312 
H    -0.2346324   -1.8905036    2.4945690 
H     1.3507164   -3.1659657    1.2088171 
H    -3.2902476   -0.8099028   -1.5435365 
H     0.8882883   -1.0046561    4.3249569 
H    -1.0070806    3.0031463    0.4350756 
H     1.1942058   -5.5894258    0.5832282 
H     2.8797363   -5.0827426    0.8863509 
H     2.3093327   -5.3109922   -0.7851477 
H     2.4575640   -1.5113403   -0.3161637 
H     3.6223223   -2.6846633    0.3589902 
H     3.0760962   -2.8512718   -1.3305139 
H    -3.4075635   -2.2597675   -4.2564548 
H    -4.6938160   -1.2363335   -3.5649359 
H    -3.1141469   -0.5181114   -4.0021723 
H    -3.8451368   -3.7687504   -2.2151577 
H    -4.9164542   -2.6145219   -1.3943074 
H    -3.4542073   -3.2104748   -0.5701549 
H     1.6304081    0.6470751    6.0231365 
H     2.9547446   -0.4924178    5.6776343 
H     2.9917976    1.1510111    4.9795831 
H     2.0814045   -1.2009262    2.0868789 
H     3.1346296   -1.6733872    3.4490269 
H     3.3287856   -0.0785959    2.6710381 
H    -3.8101630    3.3797306    1.6729293 
H    -3.1676524    4.3105601    0.2935129 
H    -2.4002113    4.4566797    1.8930733 
H    -3.5125747    1.2374793    0.0696389 
H    -2.8348512    2.3378908   -1.1602903 
H    -1.8808108    0.9352309   -0.6211112 
