97
Energy =
C     1.7918198    0.4883974   -2.2306035 
C     1.6503667    1.7604629   -1.5911226 
C     2.2003778    1.9827584   -0.3059712 
H     0.9647848    2.5013219   -2.0223162 
Pd    0.7345032    0.2473202   -0.2932217 
P    -0.3493491    0.4083084    1.7628326 
P    -0.2759576   -1.8307744   -0.5420549 
H     2.7166410   -0.0704075   -2.0263256 
H     3.0086408    1.3049658    0.0114360 
C    -0.2444055   -0.6560909   -5.8564052 
C    -0.8469993    0.2541356   -4.9724052 
C    -0.1901342    0.6372422   -3.7974563 
C     1.0905718    0.1243080   -3.4813213 
C     1.6881684   -0.7809488   -4.3864589 
C     1.0271774   -1.1691376   -5.5594209 
H    -0.7616455   -0.9593157   -6.7722494 
H    -1.8389346    0.6605711   -5.1960241 
H    -0.6873920    1.3232265   -3.1024031 
H     2.6882768   -1.1744854   -4.1733542 
H     1.5106661   -1.8703380   -6.2475122 
C     1.8372559    5.4730324    2.1861110 
C     2.5889890    4.3638499    2.6035669 
C     2.7145626    3.2478953    1.7674386 
C     2.0800139    3.2076488    0.5035288 
C     1.3507537    4.3453748    0.0856123 
C     1.2305088    5.4627475    0.9189813 
H     1.7402397    6.3491116    2.8352684 
H     3.0859751    4.3720081    3.5792063 
H     3.3160755    2.3902568    2.0901581 
H     0.8748369    4.3625510   -0.9001327 
H     0.6625821    6.3339833    0.5769162 
C     0.5761458   -3.3505810   -1.2787943 
C    -1.7525064   -1.9030739   -1.6931442 
C     0.5665776    0.6885079    3.3801296 
C    -1.6020059    1.8063211    2.0452798 
C    -0.2600067   -3.6776510   -2.5425010 
C    -1.7284171   -3.3388879   -2.2556001 
C    -0.4934845    1.3784870    4.2631382 
C    -1.1653563    2.4450157    3.3895708 
C    -0.7605598   -2.3445550    1.1907311 
C    -1.3508274   -1.1677859    1.9847582 
C     2.0968861   -3.2173253   -1.5221319 
C    -3.1085185   -1.3440487   -1.1804912 
C     1.3020305   -0.5348880    3.9704638 
C    -1.7215713    2.8158836    0.8768394 
C     2.8556446   -2.8597549   -0.2372603 
C     2.6677073   -4.4980947   -2.1593597 
C    -3.9036284   -0.7404183   -2.3540448 
C    -3.9638725   -2.3711776   -0.4183124 
C     1.8660581   -0.2261117    5.3709827 
C     2.4240754   -1.0035844    3.0307489 
C    -2.6059882    4.0153982    1.2662844 
C    -2.2388400    2.1705027   -0.4161491 
H     0.4081841   -4.1468881   -0.5247308 
H    -1.4033043   -1.2322290   -2.5033887 
H     1.3228942    1.4533449    3.1116626 
H    -2.5767403    1.2974991    2.1842841 
H     0.1055280   -3.0653062   -3.3886581 
H    -0.1361596   -4.7372042   -2.8224730 
H    -2.1398417   -4.0512205   -1.5163678 
H    -2.3510088   -3.4159250   -3.1644674 
H    -0.0294479    1.8312249    5.1561152 
H    -1.2349879    0.6378605    4.6231429 
H    -2.0277041    2.9081557    3.8975302 
H    -0.4341747    3.2497026    3.1818086 
H     0.1774703   -2.6993285    1.6567284 
H    -1.4533533   -3.2038600    1.1601390 
H    -2.3710541   -0.9384667    1.6315178 
H    -1.4310850   -1.4097287    3.0594369 
H     2.2329544   -2.3896996   -2.2426529 
H    -2.8794306   -0.5124153   -0.4900258 
H     0.5705474   -1.3606274    4.0827408 
H    -0.7022169    3.1976902    0.6836634 
H     2.5041418   -1.8933874    0.1702483 
H     3.9385929   -2.7659815   -0.4283818 
H     2.7162609   -3.6314744    0.5424475 
H     2.2147778   -4.7078548   -3.1427321 
H     3.7571074   -4.4001347   -2.3073181 
H     2.4942628   -5.3742044   -1.5075824 
H    -4.1248144   -1.5058709   -3.1196320 
H    -4.8657246   -0.3267862   -2.0049879 
H    -3.3374228    0.0732924   -2.8396859 
H    -4.3217227   -3.1714272   -1.0892916 
H    -4.8535322   -1.8787634    0.0106776 
H    -3.4164598   -2.8511444    0.4108411 
H     1.0685596   -0.0105404    6.1011971 
H     2.4419094   -1.0882273    5.7492522 
H     2.5463506    0.6448961    5.3363618 
H     2.0441611   -1.2013276    2.0135274 
H     2.9006786   -1.9265533    3.4024545 
H     3.2083319   -0.2293442    2.9419096 
H    -3.6241159    3.6846511    1.5437785 
H    -2.6998116    4.7111738    0.4143978 
H    -2.1864630    4.5838243    2.1128111 
H    -3.2674113    1.7853697   -0.2912915 
H    -2.2548775    2.9053371   -1.2400245 
H    -1.5883612    1.3297415   -0.7304172 
