97
Energy =
C     1.3976088    0.6438824   -2.3341647 
C     1.3228503    1.8974686   -1.6481628 
C     2.0167221    2.0842997   -0.4306840 
H     0.5949860    2.6507873   -1.9750972 
Pd    0.5490144    0.3433408   -0.2951838 
P    -0.4071085    0.4951057    1.8198078 
P    -0.3422727   -1.8005135   -0.4424039 
H     2.3419036    0.0895834   -2.2505029 
H     2.8390020    1.3829721   -0.2177616 
C    -1.0477956   -0.5136011   -5.6886737 
C    -1.4937533    0.4901180   -4.8118202 
C    -0.7029809    0.8843202   -3.7272522 
C     0.5615179    0.2914670   -3.4986459 
C     1.0028094   -0.7063591   -4.3982872 
C     0.2051849   -1.1084745   -5.4778848 
H    -1.6724034   -0.8260557   -6.5315010 
H    -2.4702905    0.9598384   -4.9693129 
H    -1.0837733    1.6413991   -3.0334024 
H     1.9880089   -1.1632608   -4.2524428 
H     0.5673288   -1.8832960   -6.1615339 
C     2.0319456    5.5357622    2.1374582 
C     2.7081043    4.3613724    2.5043164 
C     2.7077201    3.2559970    1.6457421 
C     2.0202292    3.2933653    0.4100883 
C     1.3671061    4.4927610    0.0425536 
C     1.3718662    5.5991715    0.8991931 
H     2.0338743    6.4036940    2.8045318 
H     3.2433864    4.3106195    3.4581039 
H     3.2469687    2.3447318    1.9294756 
H     0.8562644    4.5670571   -0.9227688 
H     0.8623905    6.5198073    0.5969285 
C     0.8515414   -3.2562919   -0.5274830 
C    -1.3520190   -2.3616654   -1.9456021 
C     0.6267934    0.4858700    3.3942335 
C    -1.4243467    2.0197579    2.3011658 
C    -0.0897969   -4.3636209   -1.0467305 
C    -0.8458226   -3.8038548   -2.2612598 
C    -0.1888958    1.3608676    4.3701417 
C    -0.7232828    2.5565436    3.5707046 
C    -1.2872849   -2.1583662    1.1535658 
C    -1.6674623   -0.8898359    1.9350022 
C     2.0904488   -2.9401306   -1.4147092 
C    -2.8908307   -2.2211533   -1.8259820 
C     1.0740250   -0.9038324    3.9009208 
C    -1.6257174    3.0517216    1.1684109 
C     3.1076926   -2.0956959   -0.6287399 
C     2.7680225   -4.2097058   -1.9622393 
C    -3.3028467   -0.7970329   -1.4263622 
C    -3.5725958   -2.5965197   -3.1575792 
C     1.7749670   -0.8033557    5.2693689 
C     1.9905517   -1.5914424    2.8767369 
C    -2.3498823    4.3089280    1.6830252 
C    -2.3611490    2.4491021   -0.0374753 
H     1.1974610   -3.4858633    0.4968840 
H    -1.0221003   -1.6696764   -2.7413214 
H     1.5308160    1.0586856    3.1053278 
H    -2.4143980    1.6133102    2.5925068 
H     0.4612793   -5.2881759   -1.2889938 
H    -0.8081357   -4.6309291   -0.2488881 
H    -1.6882745   -4.4614985   -2.5307002 
H    -0.1763621   -3.7693928   -3.1384672 
H     0.4361888    1.6913902    5.2174195 
H    -1.0272745    0.7733595    4.7939944 
H    -1.4194301    3.1666145    4.1704754 
H     0.1186776    3.2108237    3.2745602 
H    -0.6140562   -2.7939449    1.7544862 
H    -2.1850460   -2.7593624    0.9313312 
H    -2.5926877   -0.4500549    1.5227356 
H    -1.8730827   -1.1203234    2.9957349 
H     1.7436072   -2.3453727   -2.2825728 
H    -3.2447043   -2.9288158   -1.0484881 
H     0.1678365   -1.5283994    4.0372756 
H    -0.6187463    3.3581582    0.8331879 
H     2.6315578   -1.1952682   -0.1935562 
H     3.9366045   -1.7643059   -1.2782805 
H     3.5401640   -2.6798348    0.2035939 
H     2.1166511   -4.7666958   -2.6563816 
H     3.6846952   -3.9398994   -2.5147477 
H     3.0592723   -4.8903762   -1.1415122 
H    -2.9852995   -0.0740714   -2.1974654 
H    -4.3972726   -0.7174560   -1.3104398 
H    -2.8413228   -0.4839543   -0.4762487 
H    -3.2287568   -1.9250625   -3.9649987 
H    -4.6678396   -2.4945481   -3.0678963 
H    -3.3586906   -3.6340821   -3.4630814 
H     1.0990802   -0.4251283    6.0540217 
H     2.1351728   -1.7965922    5.5884446 
H     2.6495114   -0.1291581    5.2133068 
H     1.5169062   -1.6475229    1.8816371 
H     2.2482903   -2.6168824    3.1927451 
H     2.9329199   -1.0273463    2.7525866 
H    -3.3408180    4.0548566    2.1031142 
H    -2.5086779    5.0233425    0.8564350 
H    -1.7674595    4.8281050    2.4624082 
H    -3.3712848    2.0930658    0.2378040 
H    -2.4765514    3.1973932   -0.8412426 
H    -1.7969444    1.5932414   -0.4565600 
