97
Energy =
C     1.6686743    0.4265853   -2.3038786 
C     1.4751242    1.7264046   -1.7576998 
C     1.9693722    2.0563527   -0.4690515 
H     0.7819711    2.4144955   -2.2560459 
Pd    0.5673191    0.2818383   -0.3704197 
P    -0.2314035    0.2996486    1.8356779 
P    -0.6247996   -1.7067255   -0.6986694 
H     2.5537277   -0.1311713   -1.9619706 
H     2.8315975    1.4820135   -0.0995543 
C    -0.0753828   -1.1300839   -5.9236117 
C     0.9907265   -1.7925040   -5.2960176 
C     1.5612419   -1.2611475   -4.1322556 
C     1.0751264   -0.0612415   -3.5642414 
C     0.0080308    0.6003836   -4.2150104 
C    -0.5577920    0.0729764   -5.3811916 
H    -0.5222448   -1.5421137   -6.8339334 
H     1.3844962   -2.7228103   -5.7183394 
H     2.3983955   -1.7807589   -3.6526309 
H    -0.3957061    1.5293026   -3.8002540 
H    -1.3847627    0.6003904   -5.8677917 
C     1.2198228    5.6936846    1.7139079 
C     2.0520775    4.6943852    2.2428351 
C     2.3034242    3.5299163    1.5082761 
C     1.7177329    3.3276499    0.2366113 
C     0.9038325    4.3548184   -0.2929949 
C     0.6581269    5.5222904    0.4380998 
H     1.0227646    6.6069551    2.2842633 
H     2.5142425    4.8277830    3.2265461 
H     2.9633123    2.7589384    1.9188048 
H     0.4522947    4.2456472   -1.2835326 
H     0.0248076    6.3056940    0.0091437 
C     0.2863922   -3.3744571   -0.7823002 
C    -1.6900278   -2.0321813   -2.2198112 
C     0.8198536    0.5242064    3.3768391 
C    -1.5810543    1.4900899    2.4361778 
C    -0.2056546   -4.0143384   -2.1035084 
C    -1.6440784   -3.5673129   -2.3720080 
C    -0.2626710    0.6403448    4.4701154 
C    -1.2968272    1.6595907    3.9645742 
C    -1.7580118   -1.8292354    0.7837646 
C    -1.0355402   -1.3843381    2.0658054 
C     1.8252487   -3.3017860   -0.6437230 
C    -3.1026994   -1.4052683   -2.2261106 
C     1.9752001   -0.4840449    3.6034204 
C    -1.6562613    2.8535027    1.6985367 
C     2.2337474   -2.7986814    0.7437957 
C     2.4836996   -4.6626997   -0.9404223 
C    -3.0409519    0.1213011   -2.0826013 
C    -3.8654637   -1.7915895   -3.5090345 
C     2.4156122   -0.5349176    5.0796151 
C     3.1791458   -0.1388863    2.7095780 
C    -2.6935957    3.7795120    2.3664625 
C    -1.9927364    2.7069670    0.2109176 
H    -0.1150971   -3.9577735    0.0708281 
H    -1.1050304   -1.5830146   -3.0464363 
H     1.2591684    1.5335893    3.2386588 
H    -2.5348976    0.9513128    2.2751045 
H     0.4388708   -3.6685576   -2.9327817 
H    -0.1205768   -5.1130095   -2.0557551 
H    -2.3411373   -4.0373414   -1.6505348 
H    -1.9697208   -3.8684511   -3.3819667 
H     0.1759005    0.9838764    5.4223429 
H    -0.7180977   -0.3471744    4.6705468 
H    -2.2330697    1.6158277    4.5449885 
H    -0.8718658    2.6677326    4.1164463 
H    -2.1532648   -2.8560597    0.8817833 
H    -2.6167996   -1.1638385    0.5805436 
H    -1.7381773   -1.3560290    2.9163324 
H    -0.2312593   -2.0956753    2.3270467 
H     2.1883309   -2.5728547   -1.3956471 
H    -3.6641509   -1.8208109   -1.3650689 
H     1.6172571   -1.4973414    3.3356745 
H    -0.6625836    3.3339816    1.7879621 
H     1.7867296   -1.8076267    0.9425097 
H     3.3281673   -2.6929092    0.8285477 
H     1.8970336   -3.4961358    1.5334168 
H     2.3082952   -4.9948612   -1.9770736 
H     3.5753414   -4.5989762   -0.7906539 
H     2.0960733   -5.4434779   -0.2602517 
H    -2.5591118    0.5731323   -2.9667348 
H    -4.0510600    0.5546197   -1.9847282 
H    -2.4522280    0.4221344   -1.2007186 
H    -3.2968095   -1.4813949   -4.4050630 
H    -4.8460322   -1.2857988   -3.5362287 
H    -4.0480578   -2.8768705   -3.5752673 
H     1.6147393   -0.9057116    5.7406290 
H     3.2810284   -1.2106508    5.1919093 
H     2.7225985    0.4653740    5.4363029 
H     2.8821666   -0.0182675    1.6534122 
H     3.9489410   -0.9269639    2.7590857 
H     3.6449229    0.8062922    3.0431984 
H    -3.7040113    3.3319933    2.3231556 
H    -2.7295090    4.7468154    1.8365261 
H    -2.4586464    3.9900801    3.4225837 
H    -2.9851427    2.2404347    0.0769239 
H    -2.0143023    3.6932194   -0.2815055 
H    -1.2444013    2.0817857   -0.3151976 
