97
Energy =
C     1.4936358    0.6311607   -2.2898731 
C     1.4028378    1.8715297   -1.5922857 
C     2.0372310    2.0344370   -0.3344747 
H     0.6987785    2.6355202   -1.9441744 
Pd    0.5584801    0.3261348   -0.2791670 
P    -0.2715415    0.3587829    1.9050983 
P    -0.5395303   -1.7147373   -0.5465521 
H     2.4048017    0.0386119   -2.1303073 
H     2.8801969    1.3617603   -0.1132236 
C    -0.6836440   -0.4647991   -5.8416246 
C     0.5005786   -1.1308753   -5.4920390 
C     1.2088850   -0.7495449   -4.3450382 
C     0.7444866    0.2984733   -3.5166750 
C    -0.4488721    0.9618928   -3.8843916 
C    -1.1495982    0.5880829   -5.0359612 
H    -1.2386504   -0.7591966   -6.7379913 
H     0.8791247   -1.9446639   -6.1191353 
H     2.1425342   -1.2624557   -4.0882242 
H    -0.8477093    1.7613531   -3.2508650 
H    -2.0721684    1.1138019   -5.3033439 
C     1.8508364    5.4388019    2.2956346 
C     1.1107429    5.4455946    1.1015034 
C     1.1662816    4.3543260    0.2277213 
C     1.9661236    3.2275653    0.5284494 
C     2.7282920    3.2488928    1.7199836 
C     2.6667362    4.3377867    2.5980672 
H     1.8040349    6.2943343    2.9769700 
H     0.4865978    6.3090926    0.8493824 
H     0.5791564    4.3819532   -0.6958329 
H     3.3789194    2.3982837    1.9533540 
H     3.2645453    4.3315532    3.5154937 
C     0.5355771   -3.2575287   -0.4252294 
C    -1.4384837   -2.3023217   -2.1080565 
C     0.7373665    0.6673772    3.4573556 
C    -1.6233928    1.6243173    2.3436925 
C    -0.4465191   -4.3296971   -0.9402133 
C    -1.0499853   -3.8093132   -2.2552010 
C    -0.3329126    1.1183642    4.4727496 
C    -1.2308608    2.1354053    3.7609596 
C    -1.7178971   -1.8606530    0.9053741 
C    -1.0643683   -1.3172879    2.1863237 
C     1.8347113   -3.1043245   -1.2775539 
C    -2.9656005   -2.0268242   -2.1621833 
C     1.6784813   -0.4629315    3.9320871 
C    -1.8100106    2.7870877    1.3350960 
C     2.8943545   -2.2776889   -0.5344795 
C     2.4334412   -4.4613692   -1.6941491 
C    -3.2939107   -0.5400844   -1.9644962 
C    -3.5512900   -2.4958985   -3.5103091 
C     2.5237088    0.0062919    5.1327553 
C     2.5822850   -0.9717870    2.8005094 
C    -2.8127063    3.8268123    1.8751763 
C    -2.2504438    2.3189936   -0.0559561 
H     0.8081652   -3.4338061    0.6325409 
H    -0.9682548   -1.7150812   -2.9181526 
H     1.3531278    1.5488620    3.1855761 
H    -2.5623685    1.0383920    2.3969220 
H     0.0466314   -5.3076117   -1.0698184 
H    -1.2477946   -4.4882824   -0.1950426 
H    -1.9300778   -4.4092028   -2.5371396 
H    -0.3186112   -3.9182000   -3.0746467 
H     0.1329336    1.5670084    5.3668818 
H    -0.9141305    0.2418247    4.8192332 
H    -2.1312070    2.3722325    4.3517856 
H    -0.6622229    3.0763723    3.6411874 
H    -2.0370276   -2.9088541    1.0385541 
H    -2.6188213   -1.2755816    0.6527341 
H    -1.7976257   -1.2584748    3.0098483 
H    -0.2552571   -1.9923287    2.5187749 
H     1.5654266   -2.5588655   -2.2040515 
H    -3.4483496   -2.6121699   -1.3531688 
H     1.0468920   -1.3064225    4.2770067 
H    -0.8266029    3.2835433    1.2365663 
H     2.4798278   -1.3108304   -0.1890187 
H     3.7579396   -2.0636152   -1.1878560 
H     3.2662876   -2.8212568    0.3522198 
H     1.7727812   -5.0253546   -2.3733597 
H     3.3898168   -4.3034175   -2.2219048 
H     2.6387970   -5.0922062   -0.8100740 
H    -2.8645531    0.0603509   -2.7841411 
H    -4.3851577   -0.3762131   -1.9542931 
H    -2.8855123   -0.1439388   -1.0225304 
H    -3.0699422   -1.9536918   -4.3445060 
H    -4.6345914   -2.2880687   -3.5465798 
H    -3.4145840   -3.5763397   -3.6814816 
H     1.8985063    0.2912843    5.9949636 
H     3.2020087   -0.7988478    5.4634993 
H     3.1435924    0.8789990    4.8554118 
H     1.9911068   -1.3902627    1.9690631 
H     3.2644081   -1.7609513    3.1601129 
H     3.1988670   -0.1536951    2.3854865 
H    -3.8023792    3.3653787    2.0500880 
H    -2.9468745    4.6401780    1.1411099 
H    -2.4773160    4.2862477    2.8193981 
H    -3.2497683    1.8491928   -0.0211133 
H    -2.3054226    3.1709164   -0.7562191 
H    -1.5363310    1.5823955   -0.4785962 
