97
Energy =
C     1.5779889    0.4867255   -2.2666906 
C     1.5143035    1.7570993   -1.6218892 
C     2.1165268    1.9483274   -0.3522627 
H     0.8500952    2.5310776   -2.0257243 
Pd    0.5759975    0.2960539   -0.2754015 
P    -0.3071943    0.4393138    1.8829508 
P    -0.5843908   -1.7147492   -0.4981858 
H     2.4615655   -0.1315218   -2.0575782 
H     2.9273400    1.2558965   -0.0783123 
C    -0.5440635   -0.6694626   -5.8327416 
C     0.6110227   -1.3568533   -5.4310317 
C     1.3026689   -0.9565196   -4.2803062 
C     0.8503232    0.1331546   -3.5006700 
C    -0.3136258    0.8176139   -3.9205717 
C    -0.9977195    0.4238861   -5.0754625 
H    -1.0860532   -0.9790716   -6.7319347 
H     0.9800896   -2.2026193   -6.0203186 
H     2.2137934   -1.4874372   -3.9825171 
H    -0.7036757    1.6495547   -3.3245077 
H    -1.8978067    0.9661296   -5.3834029 
C     1.9808788    5.4645526    2.1297155 
C     2.7539270    4.3523542    2.4967076 
C     2.7992733    3.2255665    1.6667112 
C     2.0637499    3.1778983    0.4592963 
C     1.3068189    4.3151329    0.0937842 
C     1.2671022    5.4435682    0.9198350 
H     1.9468690    6.3492919    2.7734530 
H     3.3312175    4.3665057    3.4270774 
H     3.4165221    2.3655392    1.9507712 
H     0.7407817    4.3217712   -0.8432408 
H     0.6760052    6.3142812    0.6178989 
C     0.4297501   -3.2896206   -0.2944717 
C    -1.4655308   -2.3249354   -2.0617744 
C     0.6714740    0.7737992    3.4492321 
C    -1.6269739    1.7635766    2.2383030 
C    -0.5761319   -4.3432951   -0.8017554 
C    -1.1216099   -3.8470763   -2.1506894 
C    -0.4095648    1.2946380    4.4186380 
C    -1.2564614    2.3121279    3.6476191 
C    -1.8035358   -1.7652533    0.9263580 
C    -1.1631527   -1.1981084    2.2037122 
C     1.7566495   -3.2118212   -1.1137126 
C    -2.9813996   -2.0033812   -2.1586519 
C     1.5627738   -0.3668055    3.9904169 
C    -1.7463245    2.8958012    1.1857440 
C     2.8254263   -2.4013274   -0.3660818 
C     2.3151848   -4.6024678   -1.4710515 
C    -3.2629051   -0.4999300   -2.0246883 
C    -3.5565394   -2.5045516   -3.4997013 
C     2.3910835    0.1202035    5.1957916 
C     2.4788596   -0.9459508    2.9036119 
C    -2.7303375    3.9844179    1.6599443 
C    -2.1609056    2.3945526   -0.2016506 
H     0.6664947   -3.4390500    0.7759692 
H    -0.9594952   -1.7795969   -2.8793484 
H     1.3220840    1.6248170    3.1618762 
H    -2.5863320    1.2110829    2.2846891 
H    -0.1157897   -5.3421536   -0.8834412 
H    -1.4039414   -4.4467049   -0.0761950 
H    -2.0111394   -4.4279802   -2.4423958 
H    -0.3689891   -4.0044614   -2.9426129 
H     0.0471869    1.7609078    5.3084129 
H    -1.0266795    0.4494377    4.7805159 
H    -2.1643057    2.5968560    4.2049414 
H    -0.6557073    3.2305777    3.5110909 
H    -2.1633055   -2.7959778    1.0888576 
H    -2.6760882   -1.1585392    0.6292667 
H    -1.9139069   -1.0851043    3.0055845 
H    -0.3859764   -1.8871702    2.5805592 
H     1.5336895   -2.6865951   -2.0638781 
H    -3.4992454   -2.5407302   -1.3381996 
H     0.8951243   -1.1763175    4.3484184 
H    -0.7449333    3.3574896    1.1005144 
H     2.4384071   -1.4092854   -0.0636599 
H     3.7146635   -2.2407899   -1.0001101 
H     3.1511773   -2.9292912    0.5477862 
H     1.6528828   -5.1630010   -2.1515044 
H     3.2911445   -4.4965860   -1.9755070 
H     2.4721344   -5.2121401   -0.5625652 
H    -2.8113354    0.0517971   -2.8663815 
H    -4.3483216   -0.3008952   -2.0269073 
H    -2.8448469   -0.0779280   -1.0983032 
H    -3.0358154   -2.0172524   -4.3441147 
H    -4.6293851   -2.2552107   -3.5694602 
H    -3.4608131   -3.5958108   -3.6234126 
H     1.7532661    0.4557421    6.0301277 
H     3.0348586   -0.6925966    5.5734728 
H     3.0452669    0.9626113    4.9039618 
H     1.8962500   -1.3747376    2.0713536 
H     3.1239760   -1.7436043    3.3098102 
H     3.1337624   -0.1642373    2.4773752 
H    -3.7392888    3.5606746    1.8194811 
H    -2.8162295    4.7761116    0.8955534 
H    -2.4085659    4.4649719    2.5983508 
H    -3.1758069    1.9585708   -0.1816351 
H    -2.1669037    3.2231164   -0.9313892 
H    -1.4593817    1.6213302   -0.5775410 
