97
Energy =
C     1.6382079    0.5839965   -2.3502481 
C     1.5289704    1.8370127   -1.6790676 
C     2.0928316    2.0050536   -0.3882962 
H     0.8677878    2.6124363   -2.0851425 
Pd    0.5803579    0.3103739   -0.4121180 
P    -0.2109125    0.1872420    1.7832393 
P    -0.5257296   -1.6947502   -0.7918977 
H     2.5209346   -0.0271435   -2.1102247 
H     2.9188534    1.3284779   -0.1190291 
C    -0.3401830   -0.5899107   -5.9931476 
C     0.7652834   -1.3078284   -5.5119586 
C     1.4132246   -0.8984754   -4.3394021 
C     0.9671054    0.2318734   -3.6165233 
C    -0.1424646    0.9496885   -4.1189857 
C    -0.7848541    0.5450205   -5.2944092 
H    -0.8480772   -0.9066551   -6.9095976 
H     1.1287766   -2.1862220   -6.0553571 
H     2.2810304   -1.4597528   -3.9746641 
H    -0.5215030    1.8214040   -3.5756428 
H    -1.6433396    1.1144388   -5.6656197 
C     1.7910020    5.4171292    2.2184846 
C     2.6993757    4.3829861    2.4884232 
C     2.7989057    3.2924426    1.6153526 
C     1.9838023    3.2025056    0.4614730 
C     1.0916345    4.2661629    0.1912413 
C     0.9971100    5.3577964    1.0600487 
H     1.7110168    6.2724322    2.8969511 
H     3.3400296    4.4298133    3.3751192 
H     3.5284445    2.5001578    1.8188884 
H     0.4605440    4.2409420   -0.7020065 
H     0.2997010    6.1708072    0.8329806 
C     0.5243212   -3.2668727   -0.9618452 
C    -1.5933038   -2.0286786   -2.2996393 
C     0.9993770    0.6536885    3.1486019 
C    -1.5726412    1.3337058    2.3913921 
C     0.0346067   -3.9025487   -2.2894432 
C    -1.4413262   -3.5505144   -2.5106933 
C     0.2325898    1.6535589    4.0484941 
C    -0.7752837    2.4071905    3.1662614 
C    -1.5963582   -1.9994760    0.7120556 
C    -0.8684422   -1.5535086    1.9933626 
C     2.0580825   -3.0690322   -0.8785849 
C    -3.0391125   -1.4854501   -2.2417048 
C     1.7813470   -0.4921185    3.8461763 
C    -2.6201327    1.8121570    1.3575852 
C     2.4985011   -2.4996569    0.4780353 
C     2.8006493   -4.3875125   -1.1708979 
C    -3.0590316    0.0383690   -2.0398872 
C    -3.8168662   -1.8649188   -3.5172507 
C     0.9839813   -1.2148136    4.9466775 
C     3.1119715    0.0464290    4.4084877 
C    -2.0388592    2.7364549    0.2785215 
C    -3.8170105    2.4750053    2.0668240 
H     0.2097840   -3.9095722   -0.1152097 
H    -1.0568422   -1.5075462   -3.1174044 
H     1.7323838    1.2460056    2.5723833 
H    -2.1035246    0.7110050    3.1404217 
H     0.6306052   -3.4891748   -3.1243707 
H     0.1951724   -4.9936904   -2.2796050 
H    -2.0851943   -4.0960300   -1.7930519 
H    -1.7673759   -3.8397525   -3.5241489 
H     0.9387443    2.3449676    4.5399558 
H    -0.3122284    1.1148594    4.8441927 
H    -1.4508421    3.0370968    3.7700738 
H    -0.2407104    3.0745297    2.4648668 
H    -1.8850033   -3.0644088    0.7646692 
H    -2.5222809   -1.4135129    0.5739457 
H    -1.5401846   -1.6060857    2.8677749 
H    -0.0021685   -2.2082884    2.1965530 
H     2.3359693   -2.3383929   -1.6640335 
H    -3.5501994   -1.9656337   -1.3831260 
H     2.0376816   -1.2340965    3.0652536 
H    -3.0051362    0.9040347    0.8535383 
H     2.0264846   -1.5142542    0.6675417 
H     3.5921349   -2.3555029    0.5120109 
H     2.2227188   -3.1819443    1.3036892 
H     2.5971559   -4.7637204   -2.1871410 
H     3.8908802   -4.2416540   -1.0810995 
H     2.5052918   -5.1720786   -0.4499652 
H    -2.6570947    0.5486708   -2.9313488 
H    -4.0858603    0.4039530   -1.8678867 
H    -2.4360545    0.3469994   -1.1820719 
H    -3.2972479   -1.4811866   -4.4145080 
H    -4.8281235   -1.4234169   -3.4941725 
H    -3.9313528   -2.9563165   -3.6249352 
H    -0.0126071   -1.5417279    4.6044428 
H     1.5318123   -2.1099664    5.2875023 
H     0.8382069   -0.5646091    5.8269254 
H     3.7365903    0.4857813    3.6105602 
H     3.6907810   -0.7630240    4.8858576 
H     2.9344067    0.8259014    5.1710128 
H    -1.7117182    3.6973864    0.7096171 
H    -2.7948145    2.9501018   -0.4962596 
H    -1.1655360    2.2682409   -0.2173541 
H    -3.5163062    3.4119800    2.5682426 
H    -4.6061230    2.7267145    1.3374672 
H    -4.2572005    1.8064460    2.8278013 
