97
Energy =
C     1.6335023    0.4952473   -2.3740327 
C     1.5436348    1.7684365   -1.7389621 
C     2.1161386    1.9664773   -0.4562935 
H     0.8901844    2.5400894   -2.1641680 
Pd    0.5820113    0.2912253   -0.4238555 
P    -0.1995862    0.2413170    1.7778579 
P    -0.5508707   -1.7098519   -0.7403852 
H     2.5095383   -0.1200446   -2.1204669 
H     2.9347640    1.2873586   -0.1713809 
C    -0.3786898   -0.7584226   -5.9715021 
C     0.7205247   -1.4757999   -5.4754140 
C     1.3798339   -1.0408342   -4.3185177 
C     0.9515347    0.1153555   -3.6263733 
C    -0.1517897    0.8321786   -4.1438086 
C    -0.8055090    0.4017174   -5.3037072 
H    -0.8955426   -1.0952568   -6.8756937 
H     1.0702742   -2.3739255   -5.9950486 
H     2.2427041   -1.6020334   -3.9421446 
H    -0.5171798    1.7238317   -3.6240042 
H    -1.6589935    0.9707516   -5.6868272 
C     1.8688742    5.4549272    2.0533007 
C     2.7660458    4.4178683    2.3483859 
C     2.8480874    3.3018096    1.5062786 
C     2.0263828    3.1891779    0.3590940 
C     1.1460863    4.2557108    0.0625879 
C     1.0688845    5.3725777    0.9004822 
H     1.8023287    6.3299021    2.7076951 
H     3.4115446    4.4820208    3.2304631 
H     3.5687155    2.5065801    1.7291526 
H     0.5104087    4.2128535   -0.8267310 
H     0.3803644    6.1873419    0.6534576 
C     0.4791667   -3.2991084   -0.8690391 
C    -1.6297042   -2.0743833   -2.2330432 
C     1.0236068    0.7303916    3.1238013 
C    -1.5427904    1.4231673    2.3587965 
C    -0.0244741   -3.9668391   -2.1755478 
C    -1.4970786   -3.6033994   -2.4003859 
C     0.2751700    1.7671253    3.9970177 
C    -0.7270112    2.5080663    3.0976871 
C    -1.6181957   -1.9574364    0.7763835 
C    -0.8790861   -1.4837767    2.0412313 
C     2.0156026   -3.1174991   -0.7984459 
C    -3.0686508   -1.5122727   -2.1845424 
C     1.7923637   -0.4053246    3.8518742 
C    -2.5895640    1.8850242    1.3166954 
C     2.4695652   -2.5154895    0.5394657 
C     2.7410698   -4.4524467   -1.0570008 
C    -3.0695626    0.0168236   -2.0265535 
C    -3.8566777   -1.9188075   -3.4453521 
C     0.9896665   -1.0840137    4.9763178 
C     3.1327568    0.1307136    4.3929751 
C    -2.0023408    2.7693981    0.2078280 
C    -3.7734918    2.5845695    2.0123451 
H     0.1608513   -3.9130950   -0.0026892 
H    -1.0909918   -1.5837819   -3.0680452 
H     1.7624228    1.2948516    2.5273408 
H    -2.0778009    0.8299991    3.1285403 
H     0.5725007   -3.5849927   -3.0246838 
H     0.1230309   -5.0591134   -2.1349032 
H    -2.1440458   -4.1199781   -1.6643486 
H    -1.8314416   -3.9179421   -3.4035351 
H     0.9932728    2.4631124    4.4640859 
H    -0.2727368    1.2598651    4.8110245 
H    -1.3908748    3.1646450    3.6858513 
H    -0.1871514    3.1470672    2.3742978 
H    -1.9197609   -3.0166940    0.8610081 
H    -2.5373923   -1.3641574    0.6252222 
H    -1.5477922   -1.5018541    2.9193488 
H    -0.0206754   -2.1438051    2.2603311 
H     2.2981946   -2.4126020   -1.6054377 
H    -3.5814714   -1.9614137   -1.3103451 
H     2.0349576   -1.1734904    3.0921595 
H    -2.9894847    0.9677631    0.8416950 
H     2.0105065   -1.5194402    0.7031467 
H     3.5650207   -2.3838500    0.5643037 
H     2.1896574   -3.1707653    1.3853597 
H     2.5281065   -4.8546109   -2.0612913 
H     3.8333760   -4.3171234   -0.9764027 
H     2.4400580   -5.2128299   -0.3129054 
H    -2.6657329    0.4963959   -2.9340615 
H    -4.0911803    0.3994922   -1.8607880 
H    -2.4389966    0.3424792   -1.1806786 
H    -3.3366841   -1.5671147   -4.3554288 
H    -4.8625453   -1.4648178   -3.4306220 
H    -3.9844959   -3.0113890   -3.5212418 
H    -0.0130470   -1.4063616    4.6479193 
H     1.5261922   -1.9766083    5.3409293 
H     0.8571830   -0.4063048    5.8377282 
H     3.7601751    0.5374401    3.5800737 
H     3.7021318   -0.6724038    4.8918918 
H     2.9692900    0.9347464    5.1327918 
H    -1.6596635    3.7379046    0.6088389 
H    -2.7600515    2.9708257   -0.5685449 
H    -1.1384452    2.2750390   -0.2791455 
H    -3.4574550    3.5317449    2.4842598 
H    -4.5632461    2.8253466    1.2799967 
H    -4.2183110    1.9447520    2.7950068 
