97
Energy =
C     1.6430934    0.5008210   -2.2864958 
C     1.5752390    1.7682793   -1.6245811 
C     2.1618986    1.9390829   -0.3496658 
H     0.9262904    2.5541583   -2.0310220 
Pd    0.6064905    0.2593806   -0.3451598 
P    -0.4315625    0.3534758    1.7445545 
P    -0.3106115   -1.8542529   -0.6275894 
H     2.5489751   -0.0979837   -2.1178813 
H     2.9343267    1.2093711   -0.0598650 
C    -0.6125111   -0.5874979   -5.7967897 
C    -1.0711357    0.4447147   -4.9611402 
C    -0.3382989    0.8155519   -3.8282718 
C     0.8789376    0.1696647   -3.5079013 
C     1.3349890   -0.8559408   -4.3665813 
C     0.5958315   -1.2338492   -5.4954300 
H    -1.1903974   -0.8804030   -6.6791127 
H    -2.0114607    0.9573099   -5.1899765 
H    -0.7308212    1.5959252   -3.1673086 
H     2.2852674   -1.3564424   -4.1499838 
H     0.9700300   -2.0302116   -6.1472296 
C     2.0800285    5.3964847    2.2065241 
C     2.8188620    4.2567185    2.5594970 
C     2.8480931    3.1495652    1.7036776 
C     2.1292688    3.1500719    0.4840468 
C     1.4138139    4.3172195    0.1296321 
C     1.3881248    5.4246268    0.9835883 
H     2.0563449    6.2656711    2.8715085 
H     3.3810163    4.2344644    3.4987857 
H     3.4412661    2.2684973    1.9744755 
H     0.8753484    4.3641757   -0.8213662 
H     0.8293871    6.3198939    0.6919949 
C     0.7723683   -3.3439944   -1.0927458 
C    -1.6096202   -2.1861715   -1.9459515 
C     0.6876172    0.6394153    3.2528865 
C    -1.6310538    1.7245345    2.2281796 
C     0.0710340   -3.9602312   -2.3291361 
C    -1.4353395   -3.6910610   -2.2379103 
C     0.0512410    1.8337567    4.0089980 
C    -0.7337748    2.6982385    3.0131544 
C    -1.0349597   -2.3638414    1.0296016 
C    -1.5130511   -1.1783536    1.8820907 
C     2.2787162   -3.0507843   -1.2902602 
C    -3.0393284   -1.6947139   -1.6258749 
C     1.0305770   -0.5916072    4.1223958 
C    -2.5616339    2.2924487    1.1341123 
C     2.9303317   -2.4646566   -0.0300082 
C     3.0294161   -4.3173236   -1.7457347 
C    -3.0864257   -0.1604990   -1.5625500 
C    -4.0559279   -2.2155269   -2.6605933 
C     1.8188530   -0.1777824    5.3810693 
C     1.8259940   -1.6326861    3.3213978 
C    -1.8175511    3.0092022   -0.0003207 
C    -3.6340177    3.2083378    1.7569036 
H     0.6633497   -4.0379197   -0.2352849 
H    -1.2337669   -1.6205682   -2.8231044 
H     1.6232331    0.9968519    2.7834110 
H    -2.2795295    1.2123080    2.9703035 
H     0.4664865   -3.4798536   -3.2436453 
H     0.2887481   -5.0389804   -2.4013098 
H    -1.8925124   -4.2927724   -1.4274269 
H    -1.9460187   -3.9700744   -3.1751695 
H     0.8340166    2.4161448    4.5235517 
H    -0.6400730    1.4515477    4.7841035 
H    -1.3365062    3.4624639    3.5327817 
H    -0.0432307    3.2298933    2.3331508 
H    -0.2227608   -2.9056566    1.5443810 
H    -1.8500499   -3.0924437    0.8690481 
H    -2.5024482   -0.8323244    1.5298429 
H    -1.6320139   -1.4698268    2.9405471 
H     2.3564014   -2.3022911   -2.1012214 
H    -3.3332604   -2.1018402   -0.6369506 
H     0.0789707   -1.0508809    4.4591746 
H    -3.0942862    1.4269234    0.6980828 
H     2.4267821   -1.5285284    0.2834539 
H     3.9941462   -2.2307570   -0.2087891 
H     2.8784084   -3.1774811    0.8129093 
H     2.6585757   -4.6947773   -2.7131243 
H     4.1062080   -4.1040048   -1.8607576 
H     2.9247262   -5.1261175   -0.9990690 
H    -2.9240883    0.2703885   -2.5652336 
H    -4.0629161    0.1947700   -1.1914358 
H    -2.2942541    0.2421098   -0.9060605 
H    -3.7599538   -1.9132934   -3.6819541 
H    -5.0554221   -1.7929924   -2.4587734 
H    -4.1471575   -3.3141421   -2.6383047 
H     1.2350548    0.4852067    6.0404398 
H     2.0974752   -1.0707119    5.9667385 
H     2.7509286    0.3479894    5.1027128 
H     1.3013991   -1.9259196    2.3975105 
H     2.0042802   -2.5452425    3.9153596 
H     2.8085176   -1.2255307    3.0210233 
H    -1.3427712    3.9367250    0.3603891 
H    -2.5137776    3.2756695   -0.8140512 
H    -1.0256800    2.3621326   -0.4261061 
H    -3.1843811    4.1256125    2.1765123 
H    -4.3667342    3.5173427    0.9915304 
H    -4.1837040    2.6956077    2.5661764 
