97
Energy =
C     1.5984117    0.5254488   -2.2427391 
C     1.5230972    1.7863873   -1.5806904 
C     2.1111724    1.9615505   -0.3021749 
H     0.8602921    2.5637120   -1.9804573 
Pd    0.5763386    0.3027152   -0.2655301 
P    -0.3312066    0.4131441    1.8846607 
P    -0.5714659   -1.7106281   -0.5273740 
H     2.4823854   -0.0921789   -2.0334610 
H     2.9216203    1.2680985   -0.0296708 
C    -0.4808807   -0.5863292   -5.8479660 
C     0.6716903   -1.2761622   -5.4431766 
C     1.3495593   -0.8900180   -4.2794599 
C     0.8851842    0.1870223   -3.4893687 
C    -0.2762093    0.8739295   -3.9123192 
C    -0.9460556    0.4949661   -5.0804343 
H    -1.0119213   -0.8846026   -6.7574784 
H     1.0496990   -2.1125401   -6.0401640 
H     2.2590762   -1.4223630   -3.9792571 
H    -0.6753994    1.6961144   -3.3088102 
H    -1.8441401    1.0391654   -5.3908026 
C     1.9363988    5.4399452    2.2301250 
C     2.7105785    4.3256009    2.5881134 
C     2.7688477    3.2115408    1.7418840 
C     2.0453366    3.1788519    0.5267316 
C     1.2871439    4.3182758    0.1707374 
C     1.2346246    5.4341143    1.0130490 
H     1.8922766    6.3148258    2.8866212 
H     3.2785603    4.3281668    3.5243082 
H     3.3870698    2.3499551    2.0190893 
H     0.7302015    4.3365221   -0.7715887 
H     0.6429090    6.3068757    0.7182726 
C     0.4498217   -3.2820354   -0.3320391 
C    -1.4310387   -2.3065720   -2.1081893 
C     0.6301963    0.7307467    3.4650651 
C    -1.6596993    1.7276008    2.2436747 
C    -0.5444730   -4.3352924   -0.8624113 
C    -1.0791210   -3.8260678   -2.2109313 
C    -0.4620120    1.2368713    4.4297635 
C    -1.3039252    2.2612469    3.6624366 
C    -1.8064017   -1.7856836    0.8824007 
C    -1.1837785   -1.2318614    2.1743483 
C     1.7846070   -3.1864712   -1.1364847 
C    -2.9470990   -1.9906684   -2.2194343 
C     1.5194053   -0.4138002    4.0013637 
C    -1.7751420    2.8713026    1.2031843 
C     2.8410882   -2.3796308   -0.3676607 
C     2.3549067   -4.5692028   -1.5057287 
C    -3.2369413   -0.4901593   -2.0712430 
C    -3.5038817   -2.4787318   -3.5729923 
C     2.3349071    0.0614155    5.2201089 
C     2.4473713   -0.9778693    2.9166645 
C    -2.7688428    3.9495256    1.6809821 
C    -2.1747660    2.3838614   -0.1934874 
H     0.6763753   -3.4432074    0.7389201 
H    -0.9178112   -1.7494638   -2.9133078 
H     1.2812990    1.5870348    3.1949039 
H    -2.6169391    1.1703753    2.2752890 
H    -0.0773607   -5.3303943   -0.9514030 
H    -1.3789732   -4.4523425   -0.1466532 
H    -1.9630436   -4.4077344   -2.5178165 
H    -0.3181318   -3.9709010   -2.9972445 
H    -0.0155627    1.6936040    5.3296645 
H    -1.0804049    0.3857005    4.7751045 
H    -2.2177161    2.5374482    4.2143115 
H    -0.7041761    3.1826226    3.5419246 
H    -2.1628621   -2.8201611    1.0274283 
H    -2.6785372   -1.1794867    0.5828986 
H    -1.9444789   -1.1321979    2.9685639 
H    -0.4081119   -1.9222781    2.5517736 
H     1.5683196   -2.6505007   -2.0822111 
H    -3.4721555   -2.5399863   -1.4115773 
H     0.8506032   -1.2291921    4.3435416 
H    -0.7752689    3.3387443    1.1323126 
H     2.4450280   -1.3940678   -0.0558209 
H     3.7355292   -2.2052511   -0.9906596 
H     3.1611432   -2.9178087    0.5422685 
H     1.7027251   -5.1250084   -2.1997276 
H     3.3351176   -4.4511366   -1.9991404 
H     2.5066643   -5.1893825   -0.6034788 
H    -2.7793658    0.0731249   -2.9019457 
H    -4.3231972   -0.2959673   -2.0821819 
H    -2.8300743   -0.0769808   -1.1359343 
H    -2.9748300   -1.9798632   -4.4054180 
H    -4.5767825   -2.2326674   -3.6530557 
H    -3.4023526   -3.5681609   -3.7078584 
H     1.6882434    0.3850538    6.0523449 
H     2.9777627   -0.7537982    5.5941852 
H     2.9890490    0.9092827    4.9443833 
H     1.8738710   -1.3986183    2.0739842 
H     3.0908438   -1.7784700    3.3196963 
H     3.1041161   -0.1895441    2.5056530 
H    -3.7770659    3.5189648    1.8263112 
H    -2.8517332    4.7496960    0.9251186 
H    -2.4580709    4.4206071    2.6278777 
H    -3.1871970    1.9417216   -0.1873074 
H    -2.1794136    3.2208081   -0.9136333 
H    -1.4654501    1.6191522   -0.5721435 
