97
Energy =
C     1.6704802    0.3764976   -2.2912396 
C     1.6002329    1.6582929   -1.6568309 
C     2.1661252    1.8639626   -0.3786103 
H     0.9521340    2.4317712   -2.0881251 
Pd    0.6164735    0.1756514   -0.3584958 
P    -0.5229128    0.3195752    1.6782498 
P    -0.3076760   -1.9376040   -0.6196225 
H     2.5779966   -0.2177840   -2.1161023 
H     2.9264398    1.1399870   -0.0455729 
C    -0.5851575   -0.7168512   -5.8016673 
C    -1.0837819    0.2591820   -4.9224233 
C    -0.3506016    0.6288410   -3.7894111 
C     0.9043051    0.0365210   -3.5108618 
C     1.3977763   -0.9338295   -4.4109001 
C     0.6600088   -1.3088259   -5.5420317 
H    -1.1618226   -1.0093257   -6.6849530 
H    -2.0544483    0.7277141   -5.1165730 
H    -0.7705579    1.3633428   -3.0932844 
H     2.3763537   -1.3911198   -4.2273791 
H     1.0637269   -2.0610789   -6.2277141 
C     1.9449970    5.3937192    2.0677844 
C     2.5857055    4.2348048    2.5333539 
C     2.6746413    3.1061313    1.7103424 
C     2.1084418    3.1027160    0.4129908 
C     1.5034487    4.2915275   -0.0558260 
C     1.4196688    5.4210492    0.7649079 
H     1.8750285    6.2792788    2.7074730 
H     3.0246527    4.2135359    3.5362863 
H     3.1897829    2.2084020    2.0707497 
H     1.0993938    4.3381082   -1.0713347 
H     0.9468545    6.3325120    0.3848575 
C     0.7065064   -3.4398627   -1.1813956 
C    -1.7033139   -2.2152399   -1.8490710 
C     0.3556319    0.7943196    3.2745131 
C    -1.8830955    1.5933765    1.9399812 
C    -0.0594274   -3.9793388   -2.4138527 
C    -1.5558762   -3.7044386   -2.2255809 
C    -0.7052185    1.5287605    4.1548495 
C    -2.0840811    1.4883386    3.4673424 
C    -0.9034256   -2.4610149    1.0787830 
C    -1.4498887   -1.3048756    1.9317223 
C     2.2165042   -3.1987697   -1.4112974 
C    -3.1070356   -1.7458428   -1.4028889 
C     1.1523579   -0.3198267    3.9926913 
C    -1.4755726    2.9897316    1.3875959 
C     2.9155618   -2.6547535   -0.1575501 
C     2.9073185   -4.4850050   -1.9041233 
C    -3.1472367   -0.2200707   -1.2253212 
C    -4.1892559   -2.1931154   -2.4049982 
C     1.9593279    0.2712381    5.1658427 
C     2.0878641   -1.0679223    3.0322531 
C    -2.2662946    4.1380837    2.0394628 
C    -1.6567013    3.0209574   -0.1389971 
H     0.5944210   -4.1633470   -0.3484780 
H    -1.3936932   -1.6082395   -2.7241103 
H     1.0875125    1.5382585    2.9074646 
H    -2.7919971    1.2543954    1.4106813 
H     0.2957084   -3.4527501   -3.3196867 
H     0.1410298   -5.0546070   -2.5552147 
H    -1.9707209   -4.3430896   -1.4206365 
H    -2.1212501   -3.9334737   -3.1447650 
H    -0.3856932    2.5742252    4.3058380 
H    -0.7652556    1.0665505    5.1546278 
H    -2.5872442    0.5306531    3.6944852 
H    -2.7541899    2.2800915    3.8425908 
H    -0.0124267   -2.9042339    1.5589601 
H    -1.6479661   -3.2717877    0.9793680 
H    -2.4982334   -1.0888563    1.6600138 
H    -1.4424338   -1.5770773    3.0009376 
H     2.3030003   -2.4409465   -2.2121506 
H    -3.3378133   -2.2239420   -0.4287704 
H     0.4245944   -1.0459782    4.4094401 
H    -0.4038761    3.1595712    1.6094168 
H     2.4726594   -1.6904863    0.1573180 
H     3.9898249   -2.4850312   -0.3458959 
H     2.8292564   -3.3620402    0.6879995 
H     2.4978056   -4.8325244   -2.8671671 
H     3.9881452   -4.3102997   -2.0438238 
H     2.7911429   -5.3012204   -1.1672616 
H    -3.0203083    0.2870985   -2.1978980 
H    -4.1075576    0.1083775   -0.7917683 
H    -2.3321347    0.1349710   -0.5715201 
H    -3.9598660   -1.8161801   -3.4186709 
H    -5.1734172   -1.7907375   -2.1088423 
H    -4.2792548   -3.2906894   -2.4575756 
H     1.3150880    0.7847477    5.8987991 
H     2.5071364   -0.5246065    5.6990595 
H     2.7005451    1.0030139    4.7941286 
H     1.5307663   -1.5525599    2.2135679 
H     2.6586289   -1.8510275    3.5599177 
H     2.8135414   -0.3750802    2.5676164 
H    -3.3555100    3.9998184    1.9099706 
H    -1.9885256    5.0962737    1.5675533 
H    -2.0558260    4.2312405    3.1182140 
H    -2.7173770    2.8699518   -0.4106236 
H    -1.3335157    3.9892668   -0.5544154 
H    -1.0670794    2.2208729   -0.6266919 
