97
Energy =
C     1.6332901    0.4136520   -2.3522678 
C     1.4497700    1.6849656   -1.7411521 
C     1.9885205    1.9769293   -0.4641901 
H     0.7370835    2.3886898   -2.1873209 
Pd    0.5885029    0.1830152   -0.3732174 
P    -0.2614608    0.2629775    1.8045544 
P    -0.5811520   -1.8251070   -0.6562548 
H     2.5413846   -0.1441354   -2.0855802 
H     2.8449896    1.3748377   -0.1258225 
C    -0.2436304   -0.9320641   -5.9895936 
C     0.8703963   -1.6044959   -5.4640973 
C     1.4831644   -1.1415603   -4.2928816 
C     0.9920069   -0.0032202   -3.6132807 
C    -0.1259162    0.6687384   -4.1612806 
C    -0.7324452    0.2117206   -5.3365520 
H    -0.7237345   -1.2908502   -6.9055259 
H     1.2685094   -2.4887169   -5.9725426 
H     2.3604851   -1.6634471   -3.8956910 
H    -0.5390961    1.5476532   -3.6562310 
H    -1.5971360    0.7467269   -5.7426483 
C     1.3812302    5.6028106    1.7813541 
C     2.1736604    4.5635541    2.2938420 
C     2.3803197    3.4025412    1.5397636 
C     1.7853028    3.2421767    0.2665327 
C     1.0166366    4.3116353   -0.2482919 
C     0.8170356    5.4759838    0.5012694 
H     1.2198361    6.5136956    2.3665222 
H     2.6408336    4.6630076    3.2791583 
H     3.0142764    2.6025188    1.9360816 
H     0.5672075    4.2390228   -1.2429400 
H     0.2183661    6.2920552    0.0837100 
C     0.2437364   -3.5401025   -0.7112154 
C    -1.5673738   -2.1008572   -2.2497594 
C     0.8010518    0.5012103    3.3317506 
C    -1.5702434    1.5197059    2.3625664 
C     0.0495311   -3.9853951   -2.1758846 
C    -1.3691122   -3.5938432   -2.5937119 
C    -0.2656991    0.7150292    4.4245239 
C    -1.2624112    1.7511981    3.8783032 
C    -1.7791841   -1.8921644    0.7837098 
C    -1.1356202   -1.3773232    2.0818032 
C     1.6727350   -3.7431761   -0.1552438 
C    -3.0331196   -1.6082260   -2.2466483 
C     1.9020224   -0.5491000    3.6044890 
C    -1.6254099    2.8502050    1.5686119 
C     2.7338893   -2.8347167   -0.7920027 
C     1.7058450   -3.6355008    1.3740806 
C    -3.1166457   -0.0931014   -2.0105956 
C    -3.7351743   -1.9780173   -3.5686615 
C     2.5219426   -0.3633624    5.0036251 
C     3.0006585   -0.4979369    2.5285532 
C    -2.6522363    3.8155723    2.1954985 
C    -1.9552164    2.6510325    0.0847770 
H    -0.4401680   -4.1526652   -0.0905868 
H    -1.0076737   -1.5031492   -2.9937013 
H     1.2908096    1.4786876    3.1430467 
H    -2.5379840    0.9963340    2.2377798 
H     0.7805392   -3.4783255   -2.8311681 
H     0.2260807   -5.0719996   -2.2648748 
H    -2.1093958   -4.2086318   -2.0456443 
H    -1.5329838   -3.7627656   -3.6711185 
H     0.1920703    1.0832210    5.3584724 
H    -0.7587782   -0.2444390    4.6697081 
H    -2.1935038    1.7738948    4.4682659 
H    -0.7950593    2.7473796    3.9755462 
H    -2.1650836   -2.9193771    0.9091498 
H    -2.6354328   -1.2515296    0.5088467 
H    -1.8976274   -1.2661872    2.8723732 
H    -0.3815551   -2.0915691    2.4531818 
H     1.9260557   -4.7893284   -0.4200330 
H    -3.5689763   -2.1285846   -1.4271069 
H     1.4356563   -1.5541584    3.5847259 
H    -0.6265293    3.3195516    1.6461019 
H     2.7456674   -2.9177553   -1.8915585 
H     3.7400044   -3.0976480   -0.4237259 
H     2.5425125   -1.7781682   -0.5280690 
H     0.9784775   -4.3188941    1.8471259 
H     2.7074326   -3.8738236    1.7704164 
H     1.4657690   -2.6054779    1.6863649 
H    -2.6677702    0.4539035   -2.8574833 
H    -4.1644539    0.2372346   -1.9071790 
H    -2.5708622    0.2126011   -1.1028056 
H    -3.1839232   -1.5574749   -4.4296994 
H    -4.7587713   -1.5654987   -3.5842549 
H    -3.8126897   -3.0688583   -3.7083501 
H     1.7894331   -0.5372061    5.8091375 
H     3.3529734   -1.0748696    5.1487850 
H     2.9284957    0.6581080    5.1213871 
H     3.5630654    0.4509766    2.5941026 
H     2.5788368   -0.5706758    1.5094952 
H     3.7204309   -1.3235743    2.6574226 
H    -3.6683329    3.3798264    2.1677378 
H    -2.6748608    4.7615285    1.6275315 
H    -2.4159087    4.0645970    3.2429542 
H    -2.9617489    2.2130733   -0.0398228 
H    -1.9407971    3.6166239   -0.4482192 
H    -1.2256441    1.9786527   -0.4082530 
