97
Energy =
C     1.5852753    0.5521440   -2.3138482 
C     1.4506926    1.8216873   -1.6727119 
C     2.0346677    2.0687833   -0.4113104 
H     0.7437750    2.5545269   -2.0811195 
Pd    0.5983672    0.2946019   -0.3266222 
P    -0.4658731    0.4729559    1.7527543 
P    -0.3439318   -1.8364850   -0.5290225 
H     2.5217513    0.0034303   -2.1505125 
H     2.8435313    1.3952458   -0.0861599 
C    -0.6107224   -0.6606878   -5.8171948 
C     0.6074718   -1.2746787   -5.4874488 
C     1.3238131   -0.8577426   -4.3581716 
C     0.8358344    0.1771396   -3.5286261 
C    -0.3920343    0.7892851   -3.8766979 
C    -1.1030800    0.3780451   -5.0096811 
H    -1.1710426   -0.9851805   -6.6998021 
H     1.0051580   -2.0777097   -6.1166733 
H     2.2799587   -1.3334993   -4.1131822 
H    -0.8095671    1.5765286   -3.2398805 
H    -2.0525543    0.8632006   -5.2590968 
C     1.6613731    5.6562663    1.9312664 
C     2.2737113    4.5105210    2.4647244 
C     2.4144620    3.3617107    1.6782674 
C     1.9247634    3.3236608    0.3519017 
C     1.3401307    4.4952490   -0.1821333 
C     1.2102748    5.6476219    0.6011248 
H     1.5537586    6.5580357    2.5423764 
H     2.6509974    4.5175825    3.4926183 
H     2.9047400    2.4729489    2.0917412 
H     0.9857122    4.5106119   -1.2173430 
H     0.7565220    6.5464438    0.1713097 
C     0.5891821   -3.4594144   -0.8085717 
C    -1.5026981   -2.0997140   -1.9981496 
C     0.5157806    0.4196155    3.3536534 
C    -1.5529923    1.9341250    2.2972725 
C     0.3066733   -3.7930170   -2.2858851 
C    -1.1875164   -3.5241339   -2.5111133 
C    -0.4834376    0.9780641    4.3865699 
C    -1.1113630    2.2294619    3.7578013 
C    -1.1961406   -2.2072914    1.0996491 
C    -1.6767005   -0.9609535    1.8507228 
C     2.0402459   -3.5820878   -0.2874102 
C    -2.9933719   -1.7671719   -1.7631940 
C     1.2197291   -0.9170815    3.6785950 
C    -1.5197001    3.1832712    1.3850898 
C     2.5422036   -5.0319076   -0.4407617 
C     3.0239318   -2.5877571   -0.9184706 
C    -3.1824548   -0.2752410   -1.4466810 
C    -3.8456345   -2.1611463   -2.9856713 
C     1.8023014   -0.9147479    5.1052790 
C     2.3247755   -1.2111466    2.6501652 
C    -2.3925935    4.3103704    1.9700312 
C    -1.9429182    2.8816125   -0.0593281 
H    -0.0209708   -4.1653259   -0.2076957 
H    -1.1084788   -1.3822456   -2.7427411 
H     1.2966691    1.1914591    3.1972459 
H    -2.5818099    1.5233434    2.2973691 
H     0.9084610   -3.1523062   -2.9547456 
H     0.5670082   -4.8420249   -2.5072212 
H    -1.7883176   -4.2688838   -1.9534862 
H    -1.4589257   -3.6130892   -3.5763787 
H     0.0234326    1.2263442    5.3348202 
H    -1.2551332    0.2204256    4.6252007 
H    -1.9615039    2.6027297    4.3527210 
H    -0.3504280    3.0322893    3.7341675 
H    -0.4224823   -2.7340714    1.6886640 
H    -2.0208071   -2.9242502    0.9369325 
H    -2.6175838   -0.5847695    1.4134664 
H    -1.8871756   -1.1929264    2.9102860 
H     2.0004211   -3.3673090    0.7975570 
H    -3.3504023   -2.3634089   -0.8986944 
H     0.4649568   -1.7282524    3.6315077 
H    -0.4755564    3.5416788    1.3709119 
H     1.8333169   -5.7551842    0.0003299 
H     3.5144126   -5.1568798    0.0661188 
H     2.6845929   -5.2977639   -1.5031499 
H     2.7151461   -1.5474251   -0.7155136 
H     4.0355699   -2.7276772   -0.5009641 
H     3.0911179   -2.7213335   -2.0129339 
H    -2.9318240    0.3413102   -2.3274540 
H    -4.2251017   -0.0547458   -1.1602382 
H    -2.5236990    0.0573525   -0.6265986 
H    -3.4750144   -1.6532072   -3.8950574 
H    -4.8965736   -1.8608289   -2.8319792 
H    -3.8319328   -3.2482240   -3.1690470 
H     1.0159402   -0.8313961    5.8736595 
H     2.3560843   -1.8506375    5.2934609 
H     2.5068160   -0.0733454    5.2402881 
H     1.9328289   -1.1997440    1.6158961 
H     2.7903397   -2.1945003    2.8330152 
H     3.1203327   -0.4455034    2.7071223 
H    -3.4479383    3.9909124    2.0561398 
H    -2.3601659    5.1948675    1.3105848 
H    -2.0475767    4.6293793    2.9675302 
H    -2.9926125    2.5389178   -0.1074656 
H    -1.8535578    3.7862024   -0.6854742 
H    -1.3071128    2.0940953   -0.5085961 
