97
Energy =
C     1.6278216    0.4487015   -2.3068930 
C     1.5775838    1.7273469   -1.6651672 
C     2.1759734    1.9132488   -0.3978463 
H     0.9331173    2.5127359   -2.0796501 
Pd    0.6038491    0.2484704   -0.3541255 
P    -0.4111004    0.3827171    1.7442062 
P    -0.3357800   -1.8599309   -0.5969922 
H     2.5291318   -0.1561712   -2.1353498 
H     2.9434481    1.1807232   -0.1021435 
C    -0.6607933   -0.6676308   -5.7867820 
C    -1.1083269    0.3752941   -4.9584217 
C    -0.3647713    0.7547183   -3.8354398 
C     0.8521883    0.1068091   -3.5180667 
C     1.2967005   -0.9301084   -4.3690873 
C     0.5469210   -1.3163702   -5.4881037 
H    -1.2468251   -0.9670425   -6.6615234 
H    -2.0482586    0.8895675   -5.1851297 
H    -0.7483640    1.5436318   -3.1793567 
H     2.2463946   -1.4326977   -4.1546934 
H     0.9122203   -2.1213856   -6.1342955 
C     2.1494957    5.4132110    2.1009794 
C     2.8814100    4.2727575    2.4659513 
C     2.8923762    3.1512604    1.6285770 
C     2.1618582    3.1380153    0.4159665 
C     1.4530467    4.3054038    0.0491729 
C     1.4454008    5.4270055    0.8847713 
H     2.1400211    6.2935104    2.7515417 
H     3.4527139    4.2611501    3.3999007 
H     3.4802424    2.2694666    1.9084496 
H     0.9056368    4.3413907   -0.8972094 
H     0.8914059    6.3221321    0.5838437 
C     0.7276811   -3.3667472   -1.0518468 
C    -1.6513984   -2.1975654   -1.8974329 
C     0.7265363    0.6802855    3.2364697 
C    -1.5925554    1.7722194    2.2195402 
C     0.0093645   -3.9914576   -2.2740554 
C    -1.4935645   -3.7076124   -2.1716195 
C     0.1107789    1.8937347    3.9794368 
C    -0.6772360    2.7495939    2.9785270 
C    -1.0480363   -2.3386445    1.0745810 
C    -1.5056481   -1.1364687    1.9149161 
C     2.2351501   -3.0916358   -1.2658425 
C    -3.0731868   -1.6885198   -1.5695372 
C     1.0644050   -0.5400190    4.1229815 
C    -2.5298664    2.3316536    1.1268588 
C     2.9031183   -2.4953811   -0.0189537 
C     2.9692057   -4.3716725   -1.7105706 
C    -3.1060376   -0.1530869   -1.5306479 
C    -4.1060105   -2.2169501   -2.5841144 
C     1.8704223   -0.1143208    5.3663571 
C     1.8395070   -1.6036234    3.3317597 
C    -1.7917654    3.0238418   -0.0266933 
C    -3.5870503    3.2669913    1.7466472 
H     0.6187805   -4.0483556   -0.1845441 
H    -1.2795609   -1.6470388   -2.7858068 
H     1.6614948    1.0193453    2.7522156 
H    -2.2373667    1.2779456    2.9768633 
H     0.4003481   -3.5255909   -3.1979922 
H     0.2168273   -5.0729094   -2.3351797 
H    -1.9479973   -4.2948376   -1.3490454 
H    -2.0160068   -3.9939321   -3.1001526 
H     0.9051686    2.4765712    4.4753267 
H    -0.5753292    1.5315028    4.7686412 
H    -1.2665784    3.5279452    3.4924976 
H     0.0105124    3.2634801    2.2822208 
H    -0.2359683   -2.8812750    1.5887077 
H    -1.8718690   -3.0612355    0.9327048 
H    -2.4951653   -0.7856692    1.5677407 
H    -1.6166178   -1.4117189    2.9785734 
H     2.3133664   -2.3549143   -2.0874529 
H    -3.3595704   -2.0769493   -0.5709369 
H     0.1111872   -0.9824301    4.4771876 
H    -3.0750307    1.4643529    0.7101273 
H     2.4117861   -1.5499140    0.2858159 
H     3.9677868   -2.2749502   -0.2094483 
H     2.8508093   -3.1961829    0.8339790 
H     2.5866045   -4.7579459   -2.6698615 
H     4.0471198   -4.1708777   -1.8371224 
H     2.8625524   -5.1695192   -0.9524882 
H    -2.9520729    0.2600158   -2.5421383 
H    -4.0748407    0.2169380   -1.1538594 
H    -2.3025555    0.2529240   -0.8902056 
H    -3.8192722   -1.9338918   -3.6135762 
H    -5.0994061   -1.7823388   -2.3778631 
H    -4.2065067   -3.3142073   -2.5429504 
H     1.3014485    0.5669488    6.0200450 
H     2.1442128   -1.0004270    5.9645396 
H     2.8058925    0.3951908    5.0697259 
H     1.3015288   -1.9074073    2.4190820 
H     2.0145510   -2.5075044    3.9397873 
H     2.8229715   -1.2126312    3.0135284 
H    -1.3061911    3.9534223    0.3138431 
H    -2.4941192    3.2823541   -0.8377116 
H    -1.0091513    2.3637859   -0.4497262 
H    -3.1244099    4.1859377    2.1480452 
H    -4.3244814    3.5717828    0.9841162 
H    -4.1334330    2.7716654    2.5689034 
