97
Energy =
C     1.8761108    0.4049216   -2.1609544 
C     1.6195446    1.7077421   -1.6533819 
C     2.0243339    2.0725617   -0.3408765 
H     0.9539515    2.3742153   -2.2152193 
Pd    0.6537782    0.2857986   -0.2848496 
P    -0.1583194    0.3098255    1.9004214 
P    -0.6165154   -1.6441964   -0.6207412 
H     2.7431279   -0.1287807   -1.7423612 
H     2.8875335    1.5399903    0.0841230 
C     0.5582821   -1.1557971   -5.9532738 
C     1.6571084   -1.7194141   -5.2871614 
C     2.0766551   -1.1983252   -4.0565364 
C     1.4082125   -0.1023989   -3.4644657 
C     0.3027462    0.4555826   -4.1491503 
C    -0.1140886   -0.0637264   -5.3799748 
H     0.2295054   -1.5608980   -6.9155605 
H     2.1932691   -2.5651324   -5.7299328 
H     2.9411554   -1.6389578   -3.5473665 
H    -0.2470266    1.2943757   -3.7082829 
H    -0.9728246    0.3815209   -5.8927969 
C     1.0755999    5.7502711    1.6953314 
C     0.4751993    5.4673656    0.4571759 
C     0.7773465    4.2821731   -0.2218301 
C     1.6956003    3.3516847    0.3181738 
C     2.3114487    3.6638118    1.5523315 
C     1.9996692    4.8443628    2.2380936 
H     0.8337275    6.6765667    2.2260634 
H    -0.2377200    6.1743436    0.0203873 
H     0.2802075    4.0765876   -1.1750673 
H     3.0506382    2.9715298    1.9701863 
H     2.4892738    5.0643051    3.1925530 
C     0.1843416   -3.3211466   -0.9863216 
C    -1.7478211   -1.6764878   -2.1173345 
C     0.9247073    0.6455500    3.3905633 
C    -1.5560248    1.4618920    2.4591789 
C    -0.3051703   -3.6603702   -2.4171280 
C    -1.7427510   -3.1511840   -2.5721740 
C    -0.1200259    0.9180224    4.4936226 
C    -1.1417226    1.8986078    3.8966672 
C    -1.6596078   -1.8359380    0.9225366 
C    -0.8879586   -1.3941622    2.1764314 
C     1.7169054   -3.3669521   -0.7840686 
C    -3.1208145   -0.9587567   -1.9947596 
C     2.0424677   -0.3861494    3.6787240 
C    -1.8483982    2.6582848    1.5208158 
C     2.0847013   -3.1776127    0.6935465 
C     2.3232862   -4.6715263   -1.3334994 
C    -3.5234626   -0.3547747   -3.3542993 
C    -4.2477041   -1.8588505   -1.4554415 
C     2.6336868   -0.1979115    5.0893551 
C     3.1561933   -0.2953299    2.6203355 
C    -2.9191412    3.5837749    2.1312661 
C    -2.2773547    2.2171126    0.1149367 
H    -0.2894773   -4.0268581   -0.2741059 
H    -1.1405569   -1.1109576   -2.8504001 
H     1.4033152    1.6150440    3.1423308 
H    -2.4570852    0.8187266    2.5038510 
H     0.3474128   -3.1599505   -3.1560605 
H    -0.2372001   -4.7465039   -2.5969586 
H    -2.4226588   -3.7531067   -1.9416987 
H    -2.0966787   -3.2406157   -3.6144219 
H     0.3551633    1.3523066    5.3896992 
H    -0.6013866   -0.0265069    4.8117183 
H    -2.0291742    2.0086168    4.5416636 
H    -0.6638952    2.8934189    3.8271222 
H    -2.0245981   -2.8737887    1.0156706 
H    -2.5412605   -1.1855267    0.7768271 
H    -1.5473243   -1.3860535    3.0619152 
H    -0.0558879   -2.0872104    2.3892992 
H     2.1456948   -2.5214429   -1.3573535 
H    -2.9899269   -0.1138522   -1.2931127 
H     1.6031180   -1.4028177    3.6389496 
H    -0.9107529    3.2373267    1.4291845 
H     1.6884736   -2.2208654    1.0764200 
H     3.1784945   -3.1621451    0.8363047 
H     1.6717026   -3.9956903    1.3124486 
H     2.1787179   -4.7684004   -2.4224622 
H     3.4089675   -4.7012212   -1.1363614 
H     1.8692822   -5.5544003   -0.8469730 
H    -3.6104343   -1.1400721   -4.1270110 
H    -4.4997196    0.1552717   -3.2823993 
H    -2.7775812    0.3806889   -3.7013429 
H    -4.5207068   -2.6365281   -2.1902192 
H    -5.1523232   -1.2572540   -1.2612305 
H    -3.9768113   -2.3699412   -0.5159002 
H     1.8888194   -0.3876175    5.8799477 
H     3.4732385   -0.8968325    5.2461518 
H     3.0214938    0.8291943    5.2199669 
H     2.7533163   -0.3766872    1.5946284 
H     3.8993415   -1.0987646    2.7574591 
H     3.6856194    0.6716702    2.6998240 
H    -3.8710658    3.0408207    2.2806003 
H    -3.1175778    4.4327470    1.4545555 
H    -2.6073186    4.0012288    3.1029192 
H    -3.2210516    1.6413318    0.1510642 
H    -2.4429605    3.0923382   -0.5365578 
H    -1.5026203    1.5828791   -0.3639623 
