97
Energy =
C     1.7165825    0.4127180   -2.2907792 
C     1.6776737    1.6829458   -1.6443287 
C     2.2547122    1.8478333   -0.3573542 
H     1.0551050    2.4832105   -2.0630701 
Pd    0.6638524    0.2459259   -0.3287534 
P    -0.1647519    0.2934269    1.8556573 
P    -0.5481352   -1.7267687   -0.6187372 
H     2.5636355   -0.2428411   -2.0406298 
H     3.0530369    1.1425964   -0.0795687 
C    -0.3056714   -0.6793274   -5.9378012 
C     0.7421027   -1.4652411   -5.4341804 
C     1.4026810   -1.0853263   -4.2594140 
C     1.0244589    0.0795057   -3.5519139 
C    -0.0278522    0.8636619   -4.0764709 
C    -0.6794219    0.4911901   -5.2574412 
H    -0.8210446   -0.9700065   -6.8587479 
H     1.0544643   -2.3707587   -5.9647504 
H     2.2333023   -1.6944257   -3.8857841 
H    -0.3553052    1.7652290   -3.5489633 
H    -1.4892903    1.1159808   -5.6484622 
C     2.0977202    5.2978750    2.2132009 
C     2.9959806    4.2509221    2.4663844 
C     3.0450322    3.1467095    1.6060711 
C     2.1967063    3.0608560    0.4766711 
C     1.3158813    4.1374253    0.2215598 
C     1.2655228    5.2386958    1.0818350 
H     2.0546466    6.1624854    2.8832490 
H     3.6640026    4.2952349    3.3328771 
H     3.7546428    2.3356201    1.8037108 
H     0.6597186    4.1165437   -0.6533680 
H     0.5752540    6.0612095    0.8671907 
C     0.3790580   -3.3735187   -0.8517493 
C    -1.7650867   -2.0340295   -2.0190645 
C     0.7993978    0.9621534    3.3310277 
C    -1.7307800    1.2891207    2.2371879 
C    -0.3650638   -4.0706462   -2.0225619 
C    -1.8139613   -3.5746048   -2.0906392 
C    -0.2502754    1.7298098    4.1675231 
C    -1.2300580    2.3929420    3.1930169 
C    -1.4968720   -1.9868558    0.9807413 
C    -0.6812770   -1.4742963    2.1841780 
C     1.9098312   -3.2791523   -1.0575428 
C    -3.1165300   -1.2841173   -1.9321088 
C     1.6753670   -0.0527816    4.1021855 
C    -2.6046326    1.7327191    1.0404908 
C     2.6139227   -2.6315921    0.1392427 
C     2.5123659   -4.6679823   -1.3477881 
C    -2.9212529    0.2160263   -2.2073676 
C    -4.1545235   -1.8693540   -2.9094329 
C     2.2766827    0.5873964    5.3688857 
C     2.7933258   -0.6124669    3.2089037 
C    -1.9147505    2.7548671    0.1277417 
C    -3.9701213    2.2543779    1.5274433 
H     0.1910046   -3.9301051    0.0876446 
H    -1.2214083   -1.6676202   -2.9147949 
H     1.4684327    1.7142820    2.8678399 
H    -2.3314712    0.5785059    2.8401695 
H     0.1428128   -3.8065818   -2.9694236 
H    -0.3123322   -5.1671596   -1.9176270 
H    -2.4124158   -3.9786238   -1.2508762 
H    -2.2994090   -3.9090428   -3.0231329 
H     0.2444416    2.4754139    4.8124362 
H    -0.7914170    1.0274618    4.8312126 
H    -2.0758742    2.8663244    3.7202990 
H    -0.7072108    3.1858214    2.6261511 
H    -1.7574064   -3.0534151    1.0984024 
H    -2.4454873   -1.4267140    0.8961167 
H    -1.2662367   -1.5397185    3.1190648 
H     0.2363423   -2.0751180    2.3195675 
H     2.0798694   -2.6409794   -1.9456598 
H    -3.5226542   -1.4114396   -0.9088085 
H     1.0269577   -0.8916559    4.4262335 
H    -2.7985656    0.8253511    0.4389632 
H     2.2200014   -1.6105620    0.3191362 
H     3.7008105   -2.5447180   -0.0321327 
H     2.4630483   -3.2243186    1.0602214 
H     2.1081837   -5.1145061   -2.2713303 
H     3.6072125   -4.5929943   -1.4648925 
H     2.3101436   -5.3646453   -0.5133276 
H    -2.7237573    0.3803002   -3.2796576 
H    -3.8196667    0.7936486   -1.9307995 
H    -2.0588436    0.6227333   -1.6505018 
H    -3.7681897   -1.8535732   -3.9451168 
H    -5.0782123   -1.2655510   -2.8854113 
H    -4.4275908   -2.9075418   -2.6573716 
H     1.5014837    0.8844749    6.0943233 
H     2.9506352   -0.1264416    5.8731991 
H     2.8675875    1.4852408    5.1092601 
H     2.3960237   -1.0335691    2.2717351 
H     3.3579056   -1.4066405    3.7263529 
H     3.5068809    0.1853127    2.9351817 
H    -1.7199207    3.7044283    0.6548628 
H    -2.5438285    2.9791328   -0.7500412 
H    -0.9476016    2.3594636   -0.2374112 
H    -3.8619276    3.1921193    2.1008852 
H    -4.6295284    2.4656553    0.6677518 
H    -4.4788303    1.5164446    2.1731050 
