97
Energy =
C     1.5201663    0.5125294   -2.2729819 
C     1.5528814    1.7522095   -1.5709328 
C     2.1667297    1.8525578   -0.2983687 
H     0.9594928    2.5955892   -1.9433515 
Pd    0.4974329    0.3068202   -0.2799783 
P    -0.3179844    0.4024163    1.9087492 
P    -0.6150008   -1.7276627   -0.5107114 
H     2.3311483   -0.1988593   -2.0636678 
H     2.9224741    1.0919395   -0.0504139 
C    -0.4708690   -0.1952763   -6.0324762 
C     0.3710967   -1.1671518   -5.4697863 
C     1.0147926   -0.9170678   -4.2522534 
C     0.8226939    0.3002266   -3.5574459 
C    -0.0284139    1.2675790   -4.1389189 
C    -0.6596110    1.0250660   -5.3639699 
H    -0.9690349   -0.3827961   -6.9889759 
H     0.5381650   -2.1169732   -5.9884005 
H     1.6872134   -1.6731690   -3.8313524 
H    -0.2093182    2.2202375   -3.6312203 
H    -1.3091716    1.7920842   -5.7981464 
C     2.3114098    5.2664690    2.3177908 
C     3.1136345    4.1413500    2.5572168 
C     3.0647803    3.0476342    1.6831368 
C     2.2085486    3.0501722    0.5559885 
C     1.4269478    4.2037781    0.3146129 
C     1.4766073    5.2956805    1.1866991 
H     2.3460616    6.1236345    2.9977617 
H     3.7841101    4.1164818    3.4225260 
H     3.7050800    2.1772063    1.8662043 
H     0.7726907    4.2498885   -0.5606859 
H     0.8633003    6.1795447    0.9827796 
C     0.4073569   -3.3330477   -0.6053248 
C    -1.7580757   -2.2153751   -1.9174358 
C     0.7960134    0.9574729    3.3378439 
C    -1.7124059    1.6138656    2.3636536 
C    -0.4046882   -4.2511638   -1.5699709 
C    -1.8437567   -3.7451988   -1.7413778 
C    -0.0651004    1.9267129    4.1772236 
C    -0.9862828    2.6767457    3.2137460 
C    -1.6286928   -1.9678475    1.0547417 
C    -0.9595818   -1.3199251    2.2807186 
C     1.8905173   -3.1863842   -1.0354598 
C    -3.0851489   -1.4328679   -2.0526375 
C     1.5370203   -0.1422233    4.1327778 
C    -2.6448678    2.1777221    1.2679877 
C     2.7221578   -2.3721490   -0.0386886 
C     2.5445079   -4.5687078   -1.2414702 
C    -2.8194501   -0.0015550   -2.5469422 
C    -4.0654467   -2.1436709   -3.0066532 
C     2.3028484    0.4671322    5.3243460 
C     2.5002278   -0.9274961    3.2313434 
C    -3.5640343    1.0940004    0.6945069 
C    -1.9099389    2.9375851    0.1545199 
H     0.3845600   -3.7430217    0.4230224 
H    -1.1458006   -2.0079433   -2.8205663 
H     1.5559509    1.5704402    2.8166579 
H    -2.3374979    1.0129992    3.0546390 
H     0.0832784   -4.2201208   -2.5614298 
H    -0.3736269   -5.2994105   -1.2293222 
H    -2.4737767   -3.9980094   -0.8673660 
H    -2.3143545   -4.2179489   -2.6201039 
H     0.5811972    2.6200227    4.7411970 
H    -0.6664355    1.3597484    4.9140489 
H    -1.7245344    3.3040293    3.7440674 
H    -0.3866817    3.3464559    2.5690649 
H    -1.7923350   -3.0452390    1.2302168 
H    -2.6167176   -1.5156403    0.8685553 
H    -1.6515921   -1.2928100    3.1411481 
H    -0.0803726   -1.9140551    2.5870912 
H     1.8944277   -2.6586651   -2.0095676 
H    -3.5717336   -1.3903935   -1.0579248 
H     0.7826225   -0.8432439    4.5439214 
H    -3.2870569    2.9083902    1.8002158 
H     2.2594228   -1.3850309    0.1613671 
H     3.7420203   -2.1973857   -0.4231305 
H     2.8126353   -2.9064946    0.9235914 
H     2.0561159   -5.1558454   -2.0360621 
H     3.6055933   -4.4491276   -1.5202095 
H     2.5067971   -5.1591283   -0.3074039 
H    -2.4639412   -0.0227267   -3.5905002 
H    -3.7373132    0.6090209   -2.5077697 
H    -2.0422429    0.5059262   -1.9473420 
H    -3.6042733   -2.2969981   -3.9996133 
H    -4.9689213   -1.5257073   -3.1477022 
H    -4.3888478   -3.1242525   -2.6195046 
H     1.6271205    0.9300411    6.0620488 
H     2.8809754   -0.3153049    5.8454835 
H     3.0142928    1.2393893    4.9774128 
H     1.9799152   -1.3751054    2.3705291 
H     2.9971304   -1.7400543    3.7882848 
H     3.2864805   -0.2635303    2.8276490 
H    -2.9719767    0.3569361    0.1285458 
H    -4.3031568    1.5241967   -0.0019034 
H    -4.1129434    0.5614497    1.4915636 
H    -1.2012837    2.2644597   -0.3709948 
H    -2.6256762    3.3230516   -0.5915043 
H    -1.3386767    3.7908726    0.5527235 
