90
Energy =
C     0.8997475    2.2668227   -1.2878601 
C     1.9421921    1.8912540   -0.3912234 
C     2.6215083    0.6576080   -0.5487847 
H     2.1275766    2.5081752    0.4969872 
Pd    0.3865043    0.3468493   -0.2222209 
P     0.5543258   -1.7102782    0.8593892 
P    -1.9215344    0.3507178   -0.5972281 
H     0.9401305    1.8441531   -2.3036012 
H     2.5934819    0.2167557   -1.5566617 
C    -1.0812361    6.0709622   -1.0106446 
C    -0.8217869    5.4916732   -2.2611027 
C    -0.2166910    4.2308350   -2.3388459 
C     0.1602603    3.5367343   -1.1673131 
C    -0.1369933    4.1189681    0.0867555 
C    -0.7475768    5.3736186    0.1628110 
H    -1.5542435    7.0563301   -0.9478995 
H    -1.0879069    6.0245994   -3.1799112 
H    -0.0054311    3.7862882   -3.3180714 
H     0.0966701    3.5723493    1.0072335 
H    -0.9753808    5.8081571    1.1412897 
C     5.8471769   -0.8830911    1.8368679 
C     5.5249418   -1.4659767    0.6028961 
C     4.4614863   -0.9603316   -0.1532426 
C     3.6990203    0.1386277    0.3066993 
C     4.0247048    0.7028611    1.5617634 
C     5.0902713    0.2003376    2.3129542 
H     6.6818864   -1.2718429    2.4291136 
H     6.1078323   -2.3117836    0.2239389 
H     4.2210451   -1.4138892   -1.1206810 
H     3.4428352    1.5416873    1.9555565 
H     5.3301300    0.6525791    3.2802786 
C    -2.1742944   -2.3029089    0.4134761 
C    -1.0641739   -2.4544923    1.4847406 
C    -2.8993098   -0.9370897    0.3669725 
C    -1.4847679   -1.9704375    2.8810744 
C    -4.3497541   -1.0771195   -0.1241764 
C     1.2214545   -3.0643767   -0.1918806 
C     1.6248592   -1.5861489    2.3469107 
C    -2.7934522    1.9146913   -0.2088407 
C    -2.2490257   -0.0421495   -2.3625432 
C     1.2797033   -4.4001959    0.2646396 
C     1.3793859   -0.4999767    3.2177600 
C    -3.1020104    2.2076447    1.1384974 
C    -3.4874376    0.2126019   -2.9929444 
C     1.6678645   -2.7738251   -1.4960480 
C     2.6550188   -2.4943108    2.6550429 
C    -3.0912713    2.8717871   -1.2011146 
C    -1.2326735   -0.6929793   -3.0926641 
C     1.7843440   -5.4115234   -0.5635226 
C     2.1068500   -0.3639369    4.4057802 
C    -3.7411856    3.4066630    1.4768679 
C    -3.6918103   -0.1721117   -4.3247172 
C     2.1675475   -3.7865315   -2.3262621 
C     3.3929967   -2.3424648    3.8378988 
C    -3.7336732    4.0683468   -0.8566168 
C    -1.4433786   -1.0845377   -4.4216195 
C     2.2289322   -5.1072363   -1.8596400 
C     3.1111460   -1.2917380    4.7220098 
C    -4.0684776    4.3355954    0.4779021 
C    -2.6737616   -0.8216348   -5.0404777 
H    -1.7820092   -2.5680407   -0.5887657 
H    -2.9400610   -3.0680863    0.6416167 
H    -0.8444829   -3.5340281    1.5612491 
H    -2.9296887   -0.5193641    1.3878912 
H    -2.4703377   -2.4001201    3.1365394 
H    -1.5704101   -0.8715633    2.9444480 
H    -0.7628898   -2.2898179    3.6487539 
H    -4.8553101   -0.0979670   -0.1797327 
H    -4.3952986   -1.5550992   -1.1171539 
H    -4.9149303   -1.7095872    0.5835411 
H     0.9378672   -4.6594176    1.2728258 
H     0.6166214    0.2438471    2.9576878 
H    -2.8453195    1.4997020    1.9344430 
H    -4.2918778    0.7161427   -2.4493603 
H     1.6224250   -1.7423918   -1.8592061 
H     2.8979426   -3.3107088    1.9694892 
H    -2.8227968    2.6878673   -2.2447363 
H    -0.2714240   -0.8933224   -2.6058234 
H     1.8282209   -6.4416469   -0.1953109 
H     1.8980316    0.4737242    5.0792852 
H    -3.9847346    3.6141423    2.5239713 
H    -4.6538257    0.0346537   -4.8048611 
H     2.5073246   -3.5431402   -3.3383053 
H     4.1975070   -3.0496651    4.0638627 
H    -3.9621329    4.7991484   -1.6382413 
H    -0.6451854   -1.5923219   -4.9728254 
H     2.6187949   -5.9006650   -2.5054513 
H     3.6862098   -1.1841344    5.6474130 
H    -4.5721628    5.2711297    0.7414291 
H    -2.8406589   -1.1206243   -6.0804208 
