90
Energy =
C     2.2415001    1.3905734    1.2515730 
C     1.8217053    2.1286896    0.1124546 
C     0.5860884    2.8271829    0.0913577 
H     2.3944048    2.0230833   -0.8174539 
Pd    0.2688549    0.6147801    0.4979440 
P    -1.8743140    0.3481925   -0.3973367 
P     0.4806624   -1.5930416    1.1843409 
H     1.8675160    1.7219228    2.2326140 
H     0.1626979    3.1310774    1.0605832 
C     5.8145015   -1.0012094    1.4504314 
C     5.3273810   -0.3456592    2.5901827 
C     4.1615682    0.4258600    2.5139959 
C     3.4651623    0.5655334    1.2941729 
C     3.9673947   -0.1014950    0.1533857 
C     5.1276376   -0.8774885    0.2312109 
H     6.7223473   -1.6102246    1.5107172 
H     5.8526737   -0.4398451    3.5458524 
H     3.7840459    0.9305731    3.4091106 
H     3.4337062   -0.0290655   -0.7995853 
H     5.4958942   -1.3933642   -0.6616710 
C    -1.0040948    5.0304578   -3.2512748 
C    -1.6068008    5.1083135   -1.9857172 
C    -1.0748252    4.3910843   -0.9078541 
C     0.0601263    3.5626404   -1.0730149 
C     0.6504371    3.4881435   -2.3572457 
C     0.1313960    4.2228207   -3.4281841 
H    -1.4116719    5.6002518   -4.0926170 
H    -2.4901717    5.7367635   -1.8334175 
H    -1.5465488    4.4663796    0.0769106 
H     1.5231616    2.8503198   -2.5276206 
H     0.6107052    4.1578725   -4.4103776 
C    -2.1553584   -2.4117454    0.5318695 
C    -2.9175526   -1.1038957    0.2166973 
C    -1.1433998   -2.3892172    1.7046900 
C    -4.1344729   -1.3655520   -0.6896138 
C    -1.7203460   -1.7692557    2.9876837 
C    -2.9875433    1.7507374    0.0104696 
C    -1.7448863    0.2115604   -2.2179901 
C     1.0334582   -2.6619298   -0.2022664 
C     1.6182804   -1.8935976    2.5941150 
C    -4.0014885    2.2292886   -0.8431535 
C    -1.7713335    1.3584601   -3.0401510 
C     1.0522067   -4.0710129   -0.0983423 
C     1.4367214   -1.1168472    3.7602619 
C    -2.8431413    2.3181963    1.2949624 
C    -1.4711031   -1.0451330   -2.8038323 
C     1.4026727   -2.0593127   -1.4214640 
C     2.6683082   -2.8306585    2.5503613 
C    -4.8341586    3.2779139   -0.4255834 
C    -1.5617276    1.2398045   -4.4213984 
C     1.4471534   -4.8531411   -1.1914995 
C     2.2473645   -1.3223666    4.8831685 
C    -3.6879016    3.3535626    1.7149452 
C    -1.2612541   -1.1550977   -4.1834530 
C     1.7965681   -2.8445144   -2.5139912 
C     3.4882711   -3.0200001    3.6725383 
C    -4.6791434    3.8423078    0.8491746 
C    -1.3107934   -0.0128938   -4.9979928 
C     1.8224488   -4.2415202   -2.3990101 
C     3.2707986   -2.2820497    4.8439539 
H    -2.9284174   -3.1563738    0.8034705 
H    -1.6698136   -2.8138953   -0.3754432 
H    -3.2927580   -0.6903663    1.1710446 
H    -0.8782114   -3.4409438    1.9194055 
H    -4.8111455   -2.0855598   -0.1957940 
H    -3.8369701   -1.7890140   -1.6629671 
H    -4.7062139   -0.4418479   -0.8760208 
H    -1.0947389   -2.0016888    3.8634887 
H    -1.8090561   -0.6696692    2.9116176 
H    -2.7289845   -2.1779681    3.1786305 
H    -4.1394336    1.7944897   -1.8376906 
H    -1.9518754    2.3467671   -2.6093434 
H     0.7624938   -4.5642205    0.8359158 
H     0.6658835   -0.3383373    3.7844840 
H    -2.0541631    1.9504989    1.9633124 
H    -1.4082497   -1.9443577   -2.1854292 
H     1.3554513   -0.9680094   -1.5167144 
H     2.8639170   -3.4016511    1.6385757 
H    -5.6108173    3.6517291   -1.1007263 
H    -1.5901602    2.1401366   -5.0433850 
H     1.4608173   -5.9442082   -1.1011698 
H     2.0882426   -0.7227350    5.7854411 
H    -3.5667451    3.7856366    2.7135979 
H    -1.0559403   -2.1378020   -4.6204520 
H     2.0726068   -2.3617829   -3.4569716 
H     4.3063725   -3.7458012    3.6238241 
H    -5.3326657    4.6600013    1.1699735 
H    -1.1502698   -0.0999999   -6.0775165 
H     2.1293408   -4.8572578   -3.2508101 
H     3.9097149   -2.4389823    5.7190353 
