90
Energy =
C     2.4116850    1.3055913    1.0852816 
C     1.8191801    2.1372137    0.1004364 
C     0.5845845    2.8069926    0.3036551 
H     2.2440803    2.1493233   -0.9110310 
Pd    0.3099777    0.5895193    0.5352108 
P    -1.8802984    0.4759003   -0.2856476 
P     0.4152254   -1.6565362    1.1700924 
H     2.1551262    1.4932015    2.1381368 
H     0.2988276    3.0540189    1.3379825 
C     6.0255940   -0.9765991    0.5153343 
C     5.4255070   -0.3371157   -0.5824700 
C     4.2560288    0.4105004   -0.4119051 
C     3.6556351    0.5414828    0.8651953 
C     4.2865677   -0.0887792    1.9612910 
C     5.4521295   -0.8442369    1.7879525 
H     6.9396153   -1.5634126    0.3787188 
H     5.8743196   -0.4199325   -1.5779890 
H     3.8062621    0.8916435   -1.2864904 
H     3.8523545    0.0108103    2.9602241 
H     5.9134594   -1.3291675    2.6541373 
C    -1.1784735    5.3065419   -2.7195619 
C    -0.5475001    4.1068849   -3.0898619 
C     0.0082136    3.2743135   -2.1132465 
C    -0.0539993    3.6273290   -0.7451485 
C    -0.7181852    4.8185432   -0.3841099 
C    -1.2663881    5.6554594   -1.3640702 
H    -1.6099377    5.9596683   -3.4851115 
H    -0.4942546    3.8167615   -4.1444173 
H     0.4729006    2.3276014   -2.4108652 
H    -0.7948459    5.0934256    0.6732166 
H    -1.7704598    6.5804787   -1.0663470 
C    -2.3368503   -2.1727543    0.6541215 
C    -2.9939877   -0.7762887    0.5757647 
C    -1.2277864   -2.3773557    1.7177507 
C    -4.4037736   -0.8692416   -0.0330622 
C    -1.6439503   -1.8804545    3.1137182 
C    -2.8609205    2.0193832   -0.1441364 
C    -1.8249577   -0.0422081   -2.0467126 
C     0.9962349   -2.7449528   -0.1899957 
C     1.5431036   -1.9952706    2.5789975 
C    -3.1334998    2.4814650    1.1629765 
C    -2.9558001   -0.0504460   -2.8950970 
C     0.3675431   -3.9469454   -0.5720550 
C     2.4416448   -3.0791484    2.5783572 
C    -3.3172393    2.7665502   -1.2459240 
C    -0.5936337   -0.5156995   -2.5488351 
C     2.1455471   -2.3188608   -0.8897152 
C     1.4959529   -1.1333860    3.6964327 
C    -3.8867125    3.6448903    1.3611641 
C    -2.8457791   -0.5198545   -4.2110525 
C     0.8729360   -4.6958036   -1.6456956 
C     3.2749258   -3.2995727    3.6853463 
C    -4.0703598    3.9320161   -1.0409100 
C    -0.4904460   -0.9949655   -3.8611341 
C     2.6546274   -3.0760004   -1.9507607 
C     2.3154294   -1.3693244    4.8072535 
C    -4.3663025    4.3677976    0.2573190 
C    -1.6171127   -0.9954529   -4.6956118 
C     2.0131630   -4.2634745   -2.3376934 
C     3.2101155   -2.4522424    4.8009535 
H    -3.1404242   -2.8919510    0.9033784 
H    -1.9777055   -2.4634584   -0.3515422 
H    -3.0899790   -0.3563992    1.5934239 
H    -1.0387317   -3.4642767    1.7950814 
H    -5.0572281   -1.4406226    0.6501226 
H    -4.3878189   -1.3991661   -1.0001091 
H    -4.8550016    0.1266785   -0.1791062 
H    -0.9658510   -2.2586779    3.8942716 
H    -1.6527710   -0.7772701    3.1783435 
H    -2.6621657   -2.2414389    3.3447049 
H    -2.7521172    1.9327701    2.0329118 
H    -3.9224978    0.3144968   -2.5387412 
H    -0.5158480   -4.3158011   -0.0430927 
H     2.4994530   -3.7447208    1.7112066 
H    -3.0689100    2.4604893   -2.2650301 
H     0.2888703   -0.5122469   -1.8983661 
H     2.6515876   -1.3952868   -0.5923489 
H     0.8202814   -0.2700704    3.6918048 
H    -4.0981483    3.9886276    2.3790243 
H    -3.7275153   -0.5170673   -4.8602017 
H     0.3732065   -5.6254574   -1.9366915 
H     3.9780597   -4.1387458    3.6733439 
H    -4.4135438    4.5073114   -1.9064821 
H     0.4716182   -1.3692907   -4.2253709 
H     3.5544638   -2.7351322   -2.4734929 
H     2.2658826   -0.7010133    5.6731261 
H    -4.9560678    5.2771682    0.4113671 
H    -1.5403376   -1.3640989   -5.7237657 
H     2.4044717   -4.8545421   -3.1721451 
H     3.8597247   -2.6306316    5.6640194 
