90
Energy =
C     2.5803185    1.0082376    0.4625462 
C     2.0283307    1.7014525   -0.6548547 
C     0.9372915    2.5885818   -0.4791580 
H     2.3479553    1.4333220   -1.6689091 
Pd    0.4192730    0.4788202    0.2100093 
P    -1.8413792    0.4543233   -0.3955259 
P     0.4948635   -1.5845611    1.2640301 
H     2.4928403    1.5099108    1.4374088 
H     0.7978623    2.9971483    0.5336562 
C     5.7445228   -1.9055304    0.3224928 
C     5.3971154   -1.2820651    1.5295830 
C     4.3590929   -0.3429034    1.5612212 
C     3.6471422   -0.0069564    0.3872530 
C     3.9924874   -0.6635164   -0.8170581 
C     5.0344344   -1.5944413   -0.8489177 
H     6.5596958   -2.6357620    0.2934651 
H     5.9414091   -1.5205046    2.4492551 
H     4.0998290    0.1472275    2.5056819 
H     3.4383373   -0.4515399   -1.7369665 
H     5.2885231   -2.0894890   -1.7913631 
C    -1.0301372    4.9422455   -3.4892857 
C    -1.3078578    5.1386277   -2.1287448 
C    -0.6719232    4.3492960   -1.1635305 
C     0.2542831    3.3477853   -1.5374394 
C     0.5037499    3.1445869   -2.9146152 
C    -0.1263372    3.9386560   -3.8764607 
H    -1.5176239    5.5643996   -4.2468865 
H    -2.0140918    5.9149792   -1.8168285 
H    -0.8849667    4.5136414   -0.1016463 
H     1.1994125    2.3652408   -3.2398324 
H     0.0851189    3.7721613   -4.9373378 
C    -1.9861397   -2.4129773    0.1068787 
C    -2.8358458   -1.1637926   -0.2199975 
C    -1.1884051   -2.4135846    1.4353506 
C    -3.7449017   -1.4495100   -1.4298641 
C    -1.9715642   -1.7933026    2.6070156 
C    -2.8604370    1.6557928    0.5461047 
C    -1.9780251    0.8749137   -2.1775168 
C     1.5320047   -2.7485570    0.2883728 
C     1.1161467   -1.6016086    2.9901325 
C    -4.2527545    1.7856142    0.3448665 
C    -1.2046801    0.1040142   -3.0735382 
C     2.5577424   -3.5354636    0.8477627 
C     1.1897095   -2.8018519    3.7325975 
C    -2.2381935    2.4335685    1.5434430 
C    -2.8085029    1.8910035   -2.6837506 
C     1.3159904   -2.8052621   -1.1077119 
C     1.4320647   -0.3849383    3.6242327 
C    -4.9947191    2.6943323    1.1109599 
C    -1.2979743    0.3135425   -4.4545622 
C     3.3097427   -4.3958757    0.0354377 
C     1.6082771   -2.7801947    5.0692147 
C    -2.9833614    3.3399867    2.3107033 
C    -2.8901704    2.1038478   -4.0676676 
C     2.0592258   -3.6761799   -1.9129819 
C     1.8467495   -0.3651736    4.9636025 
C    -4.3615944    3.4754550    2.0908052 
C    -2.1495863    1.3107358   -4.9547950 
C     3.0540203   -4.4823279   -1.3398100 
C     1.9433219   -1.5635003    5.6847977 
H    -2.6994380   -3.2574655    0.1653632 
H    -1.3247392   -2.6537943   -0.7447983 
H    -3.4802790   -0.9443487    0.6492342 
H    -0.9550994   -3.4678845    1.6736921 
H    -4.4155204   -2.2935804   -1.1890515 
H    -3.1567373   -1.7226892   -2.3217857 
H    -4.3691347   -0.5830925   -1.7018796 
H    -1.4850788   -2.0002169    3.5728245 
H    -2.0611795   -0.6956328    2.5047748 
H    -2.9918878   -2.2152986    2.6424676 
H    -4.7638988    1.1804642   -0.4106809 
H    -0.5265421   -0.6645772   -2.6842388 
H     2.7963149   -3.4623371    1.9114204 
H     0.9128473   -3.7571905    3.2734918 
H    -1.1634342    2.3133203    1.7222239 
H    -3.3809920    2.5285063   -2.0046177 
H     0.5754654   -2.1441903   -1.5702960 
H     1.3385219    0.5516919    3.0651158 
H    -6.0724288    2.7907609    0.9436648 
H    -0.7025367   -0.2983031   -5.1401619 
H     4.1092092   -4.9939375    0.4843500 
H     1.6673170   -3.7161991    5.6341685 
H    -2.4876683    3.9361689    3.0837788 
H    -3.5333633    2.9024516   -4.4507649 
H     1.8706925   -3.7142149   -2.9908921 
H     2.0900231    0.5878650    5.4444874 
H    -4.9457101    4.1830421    2.6881220 
H    -2.2232082    1.4785838   -6.0341356 
H     3.6423701   -5.1595477   -1.9673642 
H     2.2684033   -1.5504345    6.7301635 
