90
Energy =
C     2.2936956    1.2666300    0.9535690 
C     1.9198348    1.9874529   -0.2145367 
C     0.7191048    2.7415660   -0.2529373 
H     2.4922139    1.8293985   -1.1375372 
Pd    0.2948219    0.5581198    0.2190757 
P    -1.9009190    0.4595156   -0.5603726 
P     0.3330781   -1.5861922    1.1416954 
H     1.9334465    1.6567384    1.9179799 
H     0.2966705    3.0563212    0.7137822 
C     5.7871057   -1.2256553    1.2756427 
C     5.0758238   -1.1792409    0.0647544 
C     3.9402175   -0.3721349   -0.0526660 
C     3.4854801    0.3993099    1.0409123 
C     4.2029777    0.3345520    2.2543039 
C     5.3477174   -0.4637623    2.3676813 
H     6.6772391   -1.8567561    1.3662080 
H     5.4061343   -1.7789081   -0.7897994 
H     3.3862517   -0.3561671   -0.9967751 
H     3.8567083    0.9156474    3.1153017 
H     5.8923396   -0.4975718    3.3167062 
C    -0.9054083    4.8994136   -3.6009028 
C    -1.5266156    4.9447326   -2.3442016 
C    -0.9734181    4.2521545   -1.2613778 
C     0.2033908    3.4836456   -1.4158985 
C     0.8293687    3.4636460   -2.6843938 
C     0.2810257    4.1645294   -3.7623820 
H    -1.3345201    5.4433297   -4.4485549 
H    -2.4436147    5.5261046   -2.2030648 
H    -1.4577747    4.2997605   -0.2805990 
H     1.7541906    2.8968035   -2.8345015 
H     0.7815613    4.1400082   -4.7359453 
C    -2.5609670   -1.4601510    1.4136397 
C    -2.8555317   -1.0874982   -0.0632337 
C    -1.3311622   -2.3551976    1.6889145 
C    -2.6250521   -2.2515859   -1.0431850 
C    -1.3362124   -2.8425680    3.1483845 
C    -2.8442520    1.8403754    0.2135380 
C    -2.1318316    0.5758447   -2.3726325 
C     0.9572506   -2.8164814   -0.0688633 
C     1.4145699   -1.6833450    2.6221510 
C    -2.5224870    2.1820197    1.5466718 
C    -3.4010268    0.4471631   -2.9817835 
C     1.0153733   -4.1932692    0.2410434 
C     1.1458996   -0.7736025    3.6688926 
C    -3.8119116    2.6029695   -0.4702496 
C    -0.9953014    0.7520408   -3.1833871 
C     1.3297149   -2.3849399   -1.3573099 
C     2.4868168   -2.5846410    2.7510005 
C    -3.1701343    3.2456342    2.1884944 
C    -3.5231441    0.5213632   -4.3748388 
C     1.4614793   -5.1122324   -0.7178250 
C     1.9057213   -0.8005406    4.8440716 
C    -4.4543441    3.6709862    0.1733844 
C    -1.1213411    0.8286971   -4.5773179 
C     1.7705303   -3.3074685   -2.3162049 
C     3.2504773   -2.6016173    3.9281054 
C    -4.1394872    3.9932336    1.5014865 
C    -2.3845876    0.7180943   -5.1735642 
C     1.8422063   -4.6707110   -1.9953075 
C     2.9560677   -1.7229293    4.9790271 
H    -2.5106948   -0.5488413    2.0391023 
H    -3.4388568   -2.0225327    1.7850294 
H    -3.9168306   -0.7808208   -0.1129050 
H    -1.4020399   -3.2442550    1.0390208 
H    -3.1253992   -3.1615661   -0.6658028 
H    -1.5526314   -2.4814650   -1.1712650 
H    -3.0367630   -2.0284364   -2.0392191 
H    -0.4827854   -3.5049119    3.3670669 
H    -1.2997485   -2.0041174    3.8638925 
H    -2.2674255   -3.4065032    3.3352501 
H    -1.7377384    1.6270260    2.0762566 
H    -4.2961258    0.2761012   -2.3735786 
H     0.7142192   -4.5523185    1.2315642 
H     0.3372276   -0.0397076    3.5610149 
H    -4.0446157    2.3931189   -1.5173316 
H    -0.0099117    0.8334334   -2.7128611 
H     1.2514763   -1.3198901   -1.6067842 
H     2.7454620   -3.2597123    1.9307396 
H    -2.9097585    3.4980973    3.2215750 
H    -4.5094342    0.4209028   -4.8394156 
H     1.5085192   -6.1772233   -0.4682673 
H     1.6817032   -0.0984060    5.6539187 
H    -5.1975402    4.2606917   -0.3732715 
H    -0.2307611    0.9790459   -5.1957666 
H     2.0523519   -2.9613502   -3.3159431 
H     4.0879862   -3.3011853    4.0146575 
H    -4.6400344    4.8309453    1.9976526 
H    -2.4849004    0.7776198   -6.2622307 
H     2.1865357   -5.3927612   -2.7428449 
H     3.5530533   -1.7436120    5.8964771 
