90
Energy =
C     2.4242034    1.4285611    0.9503092 
C     1.8419322    2.2312499   -0.0627806 
C     0.6095275    2.9141956    0.1446374 
H     2.2563845    2.2016610   -1.0784683 
Pd    0.3291634    0.7179128    0.4326762 
P    -1.9515359    0.5750010   -0.0602829 
P     0.5240329   -1.5729611    0.8988768 
H     2.1454919    1.6546780    1.9905797 
H     0.3678694    3.2262778    1.1723041 
C     6.0308670   -0.8993000    0.6195333 
C     5.4784499   -0.3090809   -0.5293137 
C     4.3002782    0.4396833   -0.4429072 
C     3.6565990    0.6346695    0.8021451 
C     4.2311615    0.0433139    1.9521720 
C     5.3993977   -0.7222904    1.8610478 
H     6.9504935   -1.4890372    0.5477115 
H     5.9651045   -0.4404913   -1.5011780 
H     3.8797346    0.8736339   -1.3553230 
H     3.7489100    0.1810194    2.9250453 
H     5.8218395   -1.1753351    2.7636695 
C    -1.2990790    5.2155082   -2.9507857 
C    -0.6609369    4.0065037   -3.2745738 
C    -0.0546722    3.2415625   -2.2729774 
C    -0.0707777    3.6720907   -0.9257778 
C    -0.7404550    4.8732391   -0.6106335 
C    -1.3415048    5.6416153   -1.6154707 
H    -1.7707456    5.8157783   -3.7356334 
H    -0.6406809    3.6567167   -4.3120813 
H     0.4180410    2.2876279   -2.5331444 
H    -0.7795305    5.2107947    0.4304203 
H    -1.8501591    6.5745775   -1.3523559 
C    -2.0400896   -1.4939525    1.9534130 
C    -2.9167548   -0.4641301    1.2046511 
C    -1.1540421   -2.4037935    1.0636622 
C    -4.2071182   -1.0878952    0.6514998 
C    -1.0646900   -3.8479025    1.5791646 
C    -2.9211820    2.1352361   -0.0883869 
C    -2.1296656   -0.1669205   -1.7362398 
C     1.4373491   -2.5506144   -0.3515232 
C     1.3454039   -1.8840505    2.5106094 
C    -3.1172161    2.8180173    1.1330671 
C    -3.3763534   -0.3614582   -2.3744693 
C     2.8490522   -2.5790820   -0.3292698 
C     1.2288845   -0.9035696    3.5188184 
C    -3.4146276    2.7054782   -1.2777880 
C    -0.9515356   -0.5199580   -2.4284315 
C     0.7543560   -3.2057638   -1.4003469 
C     2.0459166   -3.0763915    2.7878291 
C    -3.8431688    4.0147166    1.1693788 
C    -3.4336843   -0.9149006   -3.6601414 
C     3.5571137   -3.2558690   -1.3308897 
C     1.8020184   -1.1086286    4.7811097 
C    -4.1389056    3.9056041   -1.2353497 
C    -1.0120481   -1.0738953   -3.7144995 
C     1.4698095   -3.8789344   -2.3992146 
C     2.6325307   -3.2706374    4.0458485 
C    -4.3673526    4.5550673   -0.0151643 
C    -2.2543574   -1.2761169   -4.3311729 
C     2.8725105   -3.9056711   -2.3680926 
C     2.5116638   -2.2903928    5.0431384 
H    -1.4114520   -0.9746761    2.7004547 
H    -2.7216857   -2.1353096    2.5420968 
H    -3.2073656    0.3072246    1.9402841 
H    -1.5666273   -2.4089809    0.0358400 
H    -4.7632188   -1.5628063    1.4790979 
H    -3.9995175   -1.8629500   -0.1065204 
H    -4.8659790   -0.3256941    0.2030581 
H    -0.3836797   -4.4603042    0.9638828 
H    -0.7060634   -3.8737011    2.6223089 
H    -2.0655167   -4.3143643    1.5498729 
H    -2.6980304    2.4192458    2.0649132 
H    -4.3049197   -0.0636065   -1.8819794 
H     3.3974180   -2.0847053    0.4770399 
H     0.6990837    0.0328678    3.3042944 
H    -3.2271930    2.2254707   -2.2417706 
H     0.0217790   -0.3575449   -1.9482306 
H    -0.3382040   -3.1954202   -1.4492449 
H     2.1423145   -3.8493111    2.0189306 
H    -3.9974399    4.5269764    2.1246982 
H    -4.4059645   -1.0599113   -4.1421913 
H     4.6510602   -3.2696484   -1.2942850 
H     1.7042787   -0.3411823    5.5558534 
H    -4.5167128    4.3366953   -2.1677303 
H    -0.0852792   -1.3476869   -4.2288932 
H     0.9259107   -4.3879135   -3.2018005 
H     3.1839058   -4.1945732    4.2485512 
H    -4.9379158    5.4889563    0.0129042 
H    -2.3063792   -1.7070504   -5.3364054 
H     3.4290720   -4.4353647   -3.1480897 
H     2.9711001   -2.4476986    6.0244091 
