90
Energy =
C     2.4392827    1.3880985    0.9738225 
C     1.8706325    2.2078205   -0.0333111 
C     0.6464599    2.9046121    0.1768712 
H     2.2878965    2.1825085   -1.0479576 
Pd    0.3369553    0.7093968    0.4426444 
P    -1.9435491    0.6010115   -0.0591001 
P     0.5003046   -1.5890387    0.8831656 
H     2.1593713    1.6072064    2.0152994 
H     0.4057530    3.2101864    1.2067267 
C     6.0169935   -0.9826003    0.6324202 
C     5.3807934   -0.8135658    1.8726349 
C     4.2224411   -0.0335505    1.9674427 
C     3.6622393    0.5803736    0.8221519 
C     4.3105872    0.3934832   -0.4217302 
C     5.4791643   -0.3697851   -0.5115186 
H     6.9291751   -1.5834622    0.5579116 
H     5.7917645   -1.2843773    2.7714495 
H     3.7364769    0.0976812    2.9393485 
H     3.9013814    0.8453468   -1.3305891 
H     5.9697745   -0.4945946   -1.4822680 
C    -1.2232763    5.2587958   -2.9024576 
C    -0.5999001    4.0446408   -3.2356029 
C    -0.0064069    3.2627666   -2.2394521 
C    -0.0209100    3.6810445   -0.8883788 
C    -0.6760938    4.8877083   -0.5640023 
C    -1.2642803    5.6729942   -1.5633647 
H    -1.6844968    5.8725106   -3.6831034 
H    -0.5813099    3.7040826   -4.2762105 
H     0.4546948    2.3052488   -2.5070855 
H    -0.7139270    5.2160623    0.4800320 
H    -1.7618187    6.6098776   -1.2930185 
C    -2.0658826   -1.4887116    1.9315875 
C    -2.9261524   -0.4385373    1.1920458 
C    -1.1888286   -2.4000293    1.0344592 
C    -4.2236905   -1.0380981    0.6290321 
C    -1.1190840   -3.8504912    1.5349594 
C    -2.8924854    2.1740784   -0.0733077 
C    -2.1260803   -0.1210339   -1.7431850 
C     1.4042958   -2.5637209   -0.3762171 
C     1.3135960   -1.9291140    2.4932602 
C    -3.0815119    2.8469923    1.1546932 
C    -3.3732009   -0.2929815   -2.3870895 
C     0.7158982   -3.2010714   -1.4324157 
C     2.0012975   -3.1318549    2.7572116 
C    -3.3768314    2.7625081   -1.2575579 
C    -0.9504718   -0.4821765   -2.4355269 
C     2.8156274   -2.6067969   -0.3527756 
C     1.2042418   -0.9603132    3.5135053 
C    -3.7925960    4.0521928    1.2021436 
C    -3.4336943   -0.8324803   -3.6785347 
C     1.4256861   -3.8711105   -2.4374486 
C     2.5825823   -3.3478513    4.0141807 
C    -4.0859435    3.9712229   -1.2039932 
C    -1.0141627   -1.0221897   -3.7273425 
C     3.5179806   -3.2802539   -1.3606006 
C     1.7719189   -1.1870189    4.7745560 
C    -4.3081176    4.6110846    0.0223995 
C    -2.2570670   -1.2020882   -4.3497199 
C     2.8279952   -3.9123288   -2.4051931 
C     2.4690132   -2.3790661    5.0234435 
H    -1.4330549   -0.9867424    2.6868441 
H    -2.7580674   -2.1277494    2.5103686 
H    -3.2077770    0.3288072    1.9353302 
H    -1.5985564   -2.3890367    0.0055540 
H    -4.7887300   -1.5137875    1.4501079 
H    -4.0249739   -1.8080098   -0.1365671 
H    -4.8705145   -0.2619727    0.1869637 
H    -0.4441369   -4.4650135    0.9151110 
H    -0.7636792   -3.8917711    2.5787278 
H    -2.1256077   -4.3039666    1.4981133 
H    -2.6683540    2.4337821    2.0829339 
H    -4.2993932    0.0117579   -1.8943382 
H    -0.3764265   -3.1790145   -1.4824761 
H     2.0921074   -3.8959549    1.9788727 
H    -3.1940165    2.2899649   -2.2261105 
H     0.0233710   -0.3374345   -1.9507828 
H     3.3679820   -2.1264725    0.4592436 
H     0.6847166   -0.0157602    3.3095729 
H    -3.9421950    4.5564644    2.1624454 
H    -4.4062738   -0.9600041   -4.1649078 
H     0.8775798   -4.3662351   -3.2458177 
H     3.1239834   -4.2798477    4.2066040 
H    -4.4568496    4.4164466   -2.1324996 
H    -0.0894171   -1.3027831   -4.2417092 
H     4.6116916   -3.3053436   -1.3230375 
H     1.6799781   -0.4283369    5.5585811 
H    -4.8666936    5.5518947    0.0591196 
H    -2.3115307   -1.6220757   -5.3594442 
H     3.3800471   -4.4397320   -3.1899348 
H     2.9242861   -2.5533171    6.0037922 
