90
Energy =
C     0.8792688    2.7067377   -0.8411338 
C     2.0272132    2.1280523   -0.2092030 
C     2.6546977    0.9931110   -0.7689056 
H     2.3329161    2.4859937    0.7827515 
Pd    0.4415065    0.6103715   -0.2829619 
P     0.4835902   -1.5531109    0.6448737 
P    -1.8722875    0.5971123   -0.5762009 
H     0.8228287    2.6385802   -1.9380128 
H     2.4706730    0.8086917   -1.8392357 
C    -1.2541278    6.0173920    0.8981629 
C    -0.7409439    5.0053429    1.7264997 
C    -0.0626673    3.9173748    1.1674973 
C     0.1222861    3.8194262   -0.2321296 
C    -0.4210316    4.8306974   -1.0526505 
C    -1.0965156    5.9217649   -0.4919044 
H    -1.7815142    6.8712994    1.3356448 
H    -0.8726667    5.0655291    2.8120721 
H     0.3177412    3.1225146    1.8203309 
H    -0.3005397    4.7643782   -2.1389799 
H    -1.5044671    6.6993254   -1.1455570 
C     6.0201076   -1.2071500    0.7459249 
C     5.7062894   -1.2246028   -0.6214847 
C     4.6018281   -0.5070121   -1.0962356 
C     3.8062640    0.2654499   -0.2176542 
C     4.1505307    0.2934560    1.1541047 
C     5.2366907   -0.4453726    1.6312314 
H     6.8736910   -1.7801458    1.1223649 
H     6.3170178   -1.8070409   -1.3189766 
H     4.3462357   -0.5424766   -2.1609131 
H     3.5520600    0.8777276    1.8576961 
H     5.4738941   -0.4281264    2.6997592 
C    -1.9777816   -0.9993621    1.8147512 
C    -1.2448382   -2.1583285    1.0874755 
C    -2.8066810   -0.0272909    0.9403456 
C    -1.2345973   -3.4520310    1.9165667 
C    -4.2100393   -0.5680904    0.6242372 
C     1.2774986   -2.9156265   -0.2842564 
C     1.3452028   -1.4756862    2.2677259 
C    -2.7330861    2.1537386   -1.0357146 
C    -2.2548798   -0.5199110   -1.9964661 
C     2.6827184   -3.0525932   -0.2548891 
C     1.3589622   -0.2449230    2.9584044 
C    -2.7498150    2.5444721   -2.3933796 
C    -3.5543744   -0.6093336   -2.5450402 
C     0.5204884   -3.7765431   -1.1094349 
C     1.9453532   -2.6041483    2.8644382 
C    -3.3197897    3.0019911   -0.0747554 
C    -1.2164417   -1.2730407   -2.5817979 
C     3.3131532   -4.0322689   -1.0329550 
C     1.9617578   -0.1406631    4.2191606 
C    -3.3848904    3.7306563   -2.7823764 
C    -3.8074843   -1.4628987   -3.6262217 
C     1.1585535   -4.7538465   -1.8851804 
C     2.5604302   -2.4930853    4.1188896 
C    -3.9540498    4.1875342   -0.4700924 
C    -1.4721205   -2.1257623   -3.6653296 
C     2.5554120   -4.8835633   -1.8507190 
C     2.5703282   -1.2644161    4.7976830 
C    -3.9992503    4.5494722   -1.8233208 
C    -2.7701889   -2.2277298   -4.1842726 
H    -2.6754787   -1.4419001    2.5493849 
H    -1.2509647   -0.4245931    2.4172521 
H    -1.7386335   -2.3495281    0.1148139 
H    -2.9210716    0.8978226    1.5334924 
H    -2.2694906   -3.8163675    2.0449074 
H    -0.8093332   -3.2745879    2.9191369 
H    -0.6494018   -4.2497380    1.4289676 
H    -4.8142861    0.1698926    0.0707391 
H    -4.1656013   -1.4976364    0.0309478 
H    -4.7362213   -0.7910347    1.5692988 
H     3.2855024   -2.4022534    0.3850917 
H     0.9090030    0.6393081    2.4881627 
H    -2.2807763    1.9095232   -3.1526204 
H    -4.3653840    0.0052765   -2.1450422 
H    -0.5694352   -3.6926530   -1.1536379 
H     1.9415078   -3.5683399    2.3465266 
H    -3.2879269    2.7529251    0.9900207 
H    -0.1959458   -1.1835621   -2.1897598 
H     4.4033358   -4.1253936   -0.9958195 
H     1.9658209    0.8201272    4.7443510 
H    -3.4026782    4.0121973   -3.8403666 
H    -4.8192775   -1.5251234   -4.0399107 
H     0.5586934   -5.4196774   -2.5143962 
H     3.0308570   -3.3728281    4.5700171 
H    -4.4086969    4.8324053    0.2882966 
H    -0.6518423   -2.7047920   -4.1018172 
H     3.0505674   -5.6501332   -2.4555628 
H     3.0517962   -1.1839285    5.7777435 
H    -4.5013976    5.4730816   -2.1286642 
H    -2.9733594   -2.8905019   -5.0318039 
