90
Energy =
C     0.9610928    2.5657258   -0.8197838 
C     1.9850797    2.1684089    0.0841848 
C     2.6953756    0.9591943   -0.1010203 
H     2.1335270    2.7378629    1.0093804 
Pd    0.4531169    0.5664923    0.1061656 
P     0.4347939   -1.5980849    0.9722282 
P    -1.7811464    0.3579438   -0.5541142 
H     1.0394486    2.1800278   -1.8467516 
H     2.6683026    0.5180337   -1.1094548 
C    -1.2753673    6.2313423   -0.5533115 
C    -0.6163801    5.7373838    0.5843682 
C     0.0889696    4.5315754    0.5233125 
C     0.1677535    3.7990945   -0.6847058 
C    -0.5167608    4.3013870   -1.8150112 
C    -1.2301309    5.5029231   -1.7512657 
H    -1.8270027    7.1756000   -0.5030925 
H    -0.6547726    6.2959983    1.5254534 
H     0.5849788    4.1579532    1.4254428 
H    -0.4754856    3.7458547   -2.7586422 
H    -1.7511084    5.8728990   -2.6398523 
C     5.9450202   -0.5360017    2.2803083 
C     5.4036496   -1.3066563    1.2397804 
C     4.3414089   -0.8086876    0.4801369 
C     3.7892878    0.4656204    0.7491250 
C     4.3410845    1.2274234    1.8051060 
C     5.4114567    0.7327910    2.5571910 
H     6.7818350   -0.9210861    2.8717840 
H     5.8098341   -2.2993021    1.0222524 
H     3.9185887   -1.4159099   -0.3283284 
H     3.9514011    2.2262161    2.0262941 
H     5.8372658    1.3430175    3.3604477 
C    -2.4070511   -1.9280294    1.1314748 
C    -1.1163873   -1.9307129    1.9819688 
C    -2.9329495   -0.5716424    0.6099522 
C    -1.1857313   -0.9712842    3.1839597 
C    -4.3720064   -0.6911159    0.0696182 
C     0.4461664   -2.8576211   -0.3629649 
C     1.7732738   -2.0818004    2.1293052 
C    -2.7417363    1.8943532   -0.8188414 
C    -1.7115900   -0.4908969   -2.1821094 
C     1.0481261   -2.5149769   -1.5917730 
C     2.2117771   -1.1266936    3.0708765 
C    -2.8055068    2.8030833    0.2585886 
C    -2.1958191   -1.7924889   -2.4189056 
C    -0.1063688   -4.1470080   -0.2060330 
C     2.3435843   -3.3703639    2.1299098 
C    -3.4758294    2.1523505   -1.9930272 
C    -1.0387800    0.1854116   -3.2258299 
C     1.1063407   -3.4419175   -2.6396425 
C     3.1755993   -1.4699503    4.0258861 
C    -3.6183670    3.9387452    0.1728472 
C    -2.0199598   -2.3978878   -3.6714385 
C    -0.0578714   -5.0688491   -1.2615100 
C     3.3157369   -3.7048629    3.0831214 
C    -4.2769478    3.3005474   -2.0773934 
C    -0.8699776   -0.4195994   -4.4765776 
C     0.5506894   -4.7194858   -2.4767439 
C     3.7266441   -2.7604323    4.0349869 
C    -4.3555023    4.1886810   -0.9952061 
C    -1.3596489   -1.7160981   -4.7020874 
H    -2.3049674   -2.6452533    0.2996291 
H    -3.2059917   -2.3376785    1.7796640 
H    -0.9855828   -2.9581302    2.3705461 
H    -2.9587599    0.1348110    1.4617505 
H    -2.1375368   -1.1189638    3.7248313 
H    -1.1294973    0.0861434    2.8662269 
H    -0.3635308   -1.1558550    3.8934796 
H    -4.7708013    0.2904638   -0.2323386 
H    -4.4384939   -1.3685786   -0.7971336 
H    -5.0251745   -1.0947418    0.8636248 
H     1.4511647   -1.5063013   -1.7325999 
H     1.8058956   -0.1089550    3.0422789 
H    -2.2123017    2.6231243    1.1629501 
H    -2.7038817   -2.3521015   -1.6316333 
H    -0.5729754   -4.4421848    0.7396023 
H     2.0360940   -4.1118316    1.3859211 
H    -3.4369014    1.4522840   -2.8334439 
H    -0.6566837    1.1979877   -3.0579965 
H     1.5706967   -3.1591839   -3.5893463 
H     3.5120155   -0.7222339    4.7504651 
H    -3.6613929    4.6398419    1.0117153 
H    -2.3985025   -3.4115970   -3.8354355 
H    -0.4919556   -6.0655373   -1.1308306 
H     3.7542704   -4.7081777    3.0791895 
H    -4.8490940    3.4944822   -2.9906400 
H    -0.3554697    0.1223359   -5.2769027 
H     0.5876189   -5.4429205   -3.2977682 
H     4.4871924   -3.0251694    4.7766639 
H    -4.9853743    5.0814743   -1.0637353 
H    -1.2251029   -2.1920489   -5.6787735 
