90
Energy =
C     2.4367631    1.3997153    0.9450385 
C     1.8581211    2.2140103   -0.0612708 
C     0.6330284    2.9066521    0.1556502 
H     2.2684508    2.1869276   -1.0787183 
Pd    0.3359270    0.7100214    0.4320286 
P    -1.9478890    0.5891668   -0.0538176 
P     0.5172796   -1.5830673    0.8887037 
H     2.1658703    1.6244876    1.9876419 
H     0.3980176    3.2131173    1.1865642 
C     6.0253893   -0.9519040    0.5885928 
C     5.4659635   -0.3621496   -0.5570522 
C     4.2926806    0.3932293   -0.4624272 
C     3.6614896    0.5957345    0.7877273 
C     4.2419157    0.0031489    1.9341453 
C     5.4052467   -0.7689254    1.8349482 
H     6.9413849   -1.5464738    0.5104438 
H     5.9430673   -0.4992832   -1.5328411 
H     3.8659433    0.8263723   -1.3723826 
H     3.7686439    0.1459216    2.9107357 
H     5.8330055   -1.2221313    2.7349920 
C    -1.2716369    5.2450641   -2.9140574 
C    -0.6447719    4.0333399   -3.2495608 
C    -0.0400519    3.2562750   -2.2564024 
C    -0.0460164    3.6774524   -0.9061759 
C    -0.7045461    4.8815978   -0.5791874 
C    -1.3043867    5.6618526   -1.5755368 
H    -1.7420379    5.8547868   -3.6923518 
H    -0.6319662    3.6910666   -4.2896915 
H     0.4233342    2.3002835   -2.5255553 
H    -0.7358833    5.2119401    0.4644364 
H    -1.8047223    6.5966767   -1.3032333 
C    -2.0456865   -1.4939434    1.9439903 
C    -2.9185947   -0.4558220    1.2025822 
C    -1.1665653   -2.4034376    1.0468293 
C    -4.2102633   -1.0712747    0.6432760 
C    -1.0888104   -3.8526547    1.5494339 
C    -2.9039226    2.1580227   -0.0617715 
C    -2.1372119   -0.1336751   -1.7367962 
C     1.4256235   -2.5613859   -0.3647819 
C     1.3342271   -1.9057346    2.5004130 
C    -3.0879888    2.8294217    1.1678250 
C    -0.9642380   -0.4941231   -2.4339427 
C     2.8362956   -2.6150228   -0.3325998 
C     2.0156715   -3.1090097    2.7783989 
C    -3.3984918    2.7449828   -1.2425136 
C    -3.3869158   -0.3075935   -2.3750414 
C     0.7390464   -3.1925251   -1.4260730 
C     1.2327055   -0.9233784    3.5083345 
C    -3.8041820    4.0313689    1.2206036 
C    -1.0329774   -1.0355978   -3.7248918 
C     3.5395849   -3.2945159   -1.3358707 
C     2.5981604   -3.3122898    4.0368760 
C    -4.1130564    3.9502308   -1.1835727 
C    -3.4524645   -0.8479714   -3.6658745 
C     1.4498106   -3.8671063   -2.4272098 
C     1.8027771   -1.1366225    4.7706584 
C    -4.3301351    4.5884216    0.0445945 
C    -2.2784020   -1.2170534   -4.3418069 
C     2.8515232   -3.9204797   -2.3852418 
C     2.4933586   -2.3294142    5.0334201 
H    -1.4125565   -0.9817097    2.6922118 
H    -2.7291591   -2.1348350    2.5310041 
H    -3.2075173    0.3107360    1.9438449 
H    -1.5788090   -2.3967498    0.0188553 
H    -4.7667437   -1.5543864    1.4658716 
H    -4.0046549   -1.8381014   -0.1236069 
H    -4.8680981   -0.3030621    0.2037409 
H    -0.4129535   -4.4649237    0.9283385 
H    -0.7305500   -3.8908707    2.5923266 
H    -2.0934141   -4.3106470    1.5160585 
H    -2.6672963    2.4172972    2.0931724 
H     0.0115280   -0.3476925   -1.9535074 
H     3.3876579   -2.1378154    0.4820751 
H     2.1004945   -3.8835478    2.0097667 
H    -3.2194681    2.2741267   -2.2125813 
H    -4.3112864   -0.0037580   -1.8782569 
H    -0.3527889   -3.1622631   -1.4827030 
H     0.7166981    0.0206567    3.2934939 
H    -3.9497359    4.5344820    2.1821343 
H    -0.1101981   -1.3159147   -4.2429701 
H     4.6327831   -3.3285438   -1.2912524 
H     3.1336109   -4.2453201    4.2405851 
H    -4.4923145    4.3940884   -2.1093539 
H    -4.4270085   -0.9768603   -4.1479293 
H     0.9030472   -4.3565839   -3.2399300 
H     1.7172164   -0.3672581    5.5449411 
H    -4.8930138    5.5264893    0.0855374 
H    -2.3368279   -1.6379730   -5.3509179 
H     3.4044522   -4.4524118   -3.1662971 
H     2.9504150   -2.4933709    6.0147143 
