90
Energy =
C     2.4339498    1.3700184    1.0105929 
C     1.8807112    2.1986062    0.0021446 
C     0.6573121    2.8996019    0.2027565 
H     2.3095634    2.1779310   -1.0077628 
Pd    0.3347186    0.7044123    0.4507043 
P    -1.9401665    0.6100065   -0.0776384 
P     0.4825452   -1.5975167    0.8787430 
H     2.1428841    1.5840215    2.0500775 
H     0.4061187    3.1996656    1.2317299 
C     6.0047312   -1.0147411    0.6964503 
C     5.3553829   -0.8495589    1.9303553 
C     4.1993885   -0.0650329    2.0163808 
C     3.6548256    0.5575462    0.8682199 
C     4.3162009    0.3743750   -0.3693311 
C     5.4823834   -0.3935530   -0.4501458 
H     6.9151216   -1.6191365    0.6289462 
H     5.7541972   -1.3269572    2.8311666 
H     3.7031290    0.0631247    2.9834897 
H     3.9190660    0.8327103   -1.2803014 
H     5.9833029   -0.5153630   -1.4159963 
C    -1.1654078    5.2829847   -2.8822907 
C    -0.5445996    4.0677193   -3.2161663 
C     0.0335757    3.2764390   -2.2184302 
C     0.0060742    3.6862797   -0.8649870 
C    -0.6463184    4.8943618   -0.5402943 
C    -1.2191591    5.6890205   -1.5411565 
H    -1.6148110    5.9039370   -3.6641040 
H    -0.5159917    3.7337169   -4.2586694 
H     0.4925941    2.3181780   -2.4869191 
H    -0.6940440    5.2163702    0.5053051 
H    -1.7147402    6.6268363   -1.2704494 
C    -2.0952258   -1.4921399    1.8973557 
C    -2.9420897   -0.4330925    1.1549932 
C    -1.2119995   -2.4013877    1.0041307 
C    -4.2357278   -1.0229750    0.5730549 
C    -1.1553856   -3.8557177    1.4949846 
C    -2.8810272    2.1878891   -0.0918373 
C    -2.1063962   -0.0995384   -1.7687519 
C     1.3969720   -2.5678324   -0.3764947 
C     1.2751492   -1.9519163    2.4960054 
C    -3.3499716    2.7864629   -1.2771884 
C    -0.9243680   -0.4605309   -2.4501413 
C     0.7180940   -3.1939369   -1.4455279 
C     1.9536008   -3.1598637    2.7602907 
C    -3.0794032    2.8537806    1.1385228 
C    -3.3466880   -0.2614770   -2.4282432 
C     2.8076574   -2.6186042   -0.3362942 
C     1.1587956   -0.9890524    3.5210858 
C    -4.0532711    3.9985532   -1.2231087 
C    -0.9753339   -0.9904936   -3.7466787 
C     1.4364684   -3.8606818   -2.4466272 
C     2.5192767   -3.3866793    4.0224600 
C    -3.7844283    4.0625101    1.1864154 
C    -3.3944552   -0.7909619   -3.7243661 
C     3.5186258   -3.2886045   -1.3403923 
C     1.7106479   -1.2266034    4.7871493 
C    -4.2846877    4.6317350    0.0050355 
C    -2.2116699   -1.1603130   -4.3847624 
C     2.8380522   -3.9096260   -2.3976997 
C     2.3989118   -2.4236772    5.0364596 
H    -1.4688951   -0.9981350    2.6631852 
H    -2.7969347   -2.1318261    2.4638227 
H    -3.2288476    0.3306627    1.9000048 
H    -1.6093278   -2.3809975   -0.0294747 
H    -4.8122872   -1.5015323    1.3843955 
H    -4.0316049   -1.7886996   -0.1953236 
H    -4.8739582   -0.2410227    0.1287627 
H    -0.4762961   -4.4692535    0.8786867 
H    -0.8125194   -3.9062656    2.5425454 
H    -2.1636593   -4.3037817    1.4430915 
H    -3.1594260    2.3192675   -2.2468436 
H     0.0444359   -0.3237437   -1.9530919 
H    -0.3734055   -3.1656009   -1.5086416 
H     2.0494096   -3.9195765    1.9782519 
H    -2.6782260    2.4322336    2.0682722 
H    -4.2772886    0.0433284   -1.9439095 
H     3.3526328   -2.1470859    0.4858185 
H     0.6463107   -0.0406559    3.3172078 
H    -4.4122457    4.4516972   -2.1524716 
H    -0.0458601   -1.2710778   -4.2524542 
H     0.8956150   -4.3472716   -3.2649985 
H     3.0538716   -4.3225338    4.2151665 
H    -3.9411550    4.5615254    2.1483223 
H    -4.3618682   -0.9107882   -4.2228517 
H     4.6116593   -3.3197355   -1.2898725 
H     1.6132382   -0.4725337    5.5749538 
H    -4.8387203    5.5752128    0.0420809 
H    -2.2561562   -1.5722898   -5.3982701 
H     3.3968048   -4.4344130   -3.1794461 
H     2.8420431   -2.6063356    6.0208315 
