90
Energy =
C     2.4431867    1.1991547    1.0237488 
C     1.9057961    2.0261763    0.0037287 
C     0.7045117    2.7604880    0.1859379 
H     2.3386364    1.9873350   -1.0037732 
Pd    0.3252742    0.5625555    0.4599408 
P    -1.8792510    0.5571462   -0.3012714 
P     0.3807226   -1.6924561    1.0829255 
H     2.1788434    1.4422173    2.0632331 
H     0.4334209    3.0475474    1.2138980 
C     5.9636843   -1.2543385    0.6411774 
C     5.4121182   -0.6463976   -0.4988636 
C     4.2643331    0.1454836   -0.3923721 
C     3.6501571    0.3677973    0.8638289 
C     4.2294293   -0.2353829    2.0048856 
C     5.3654930   -1.0455381    1.8938045 
H     6.8577370   -1.8801771    0.5539168 
H     5.8748537   -0.7981343   -1.4795047 
H     3.8410431    0.5868875   -1.2998775 
H     3.7755168   -0.0733742    2.9870506 
H     5.7886496   -1.5091647    2.7907030 
C    -0.9785138    5.2532983   -2.8887945 
C    -0.4135878    4.0128306   -3.2307006 
C     0.1215511    3.1864512   -2.2374287 
C     0.0997557    3.5838555   -0.8805652 
C    -0.4957087    4.8186818   -0.5473432 
C    -1.0198451    5.6508230   -1.5445284 
H    -1.3924793    5.9020112   -3.6676681 
H    -0.3947841    3.6868027   -4.2759110 
H     0.5375911    2.2108532   -2.5120338 
H    -0.5405276    5.1296080    0.5018874 
H    -1.4700261    6.6098102   -1.2686344 
C    -2.4174884   -2.1098704    0.4682613 
C    -2.9894643   -0.6773322    0.5871247 
C    -1.2822959   -2.5175473    1.4401824 
C    -4.4565654   -0.6341524    0.1256947 
C    -1.7007375   -2.3331265    2.9114945 
C    -2.7793504    2.1410444   -0.1036712 
C    -1.9207486    0.0611388   -2.0680337 
C     1.1787514   -2.7305933   -0.2040604 
C     1.3278056   -1.9825571    2.6291743 
C    -3.2247879    2.9310057   -1.1796905 
C    -0.7357242   -0.4642333   -2.6276319 
C     0.4291943   -3.4382182   -1.1686111 
C     2.0377745   -3.1742976    2.8757145 
C    -2.9904299    2.5923798    1.2185469 
C    -3.0870399    0.1179313   -2.8645805 
C     2.5887437   -2.7415656   -0.2922256 
C     1.2694858   -0.9920568    3.6317719 
C    -3.9082480    4.1310734   -0.9337880 
C    -0.7130243   -0.9256526   -3.9507047 
C     1.0762402   -4.1402471   -2.1949082 
C     2.7001084   -3.3555508    4.0983997 
C    -3.6723350    3.7915196    1.4572121 
C    -3.0572196   -0.3362336   -4.1900766 
C     3.2286005   -3.4477415   -1.3186290 
C     1.9162044   -1.1848363    4.8592772 
C    -4.1422417    4.5592853    0.3793984 
C    -1.8737037   -0.8594092   -4.7346922 
C     2.4765913   -4.1458308   -2.2749603 
C     2.6414256   -2.3644070    5.0900497 
H    -3.2509111   -2.8102309    0.6677925 
H    -2.1300780   -2.2899898   -0.5840404 
H    -2.9459231   -0.3432008    1.6400880 
H    -1.0806695   -3.5926056    1.2732973 
H    -5.0761813   -1.2200225    0.8278085 
H    -4.5730233   -1.0839411   -0.8746681 
H    -4.8509928    0.3954518    0.1005175 
H    -1.0109290   -2.8486584    3.5970959 
H    -1.7324447   -1.2696574    3.2088548 
H    -2.7111713   -2.7549369    3.0584581 
H    -3.0181842    2.6325609   -2.2104498 
H     0.1731188   -0.5148784   -2.0146621 
H    -0.6629342   -3.4488474   -1.1352120 
H     2.0828950   -3.9576390    2.1124235 
H    -2.6180667    2.0060816    2.0675518 
H    -4.0181665    0.5225945   -2.4587308 
H     3.1901563   -2.2131604    0.4515077 
H     0.7146009   -0.0645916    3.4449679 
H    -4.2445596    4.7389754   -1.7795391 
H     0.2131560   -1.3377777   -4.3640378 
H     0.4792374   -4.6869909   -2.9321195 
H     3.2606032   -4.2788353    4.2779077 
H    -3.8376409    4.1273301    2.4862004 
H    -3.9650405   -0.2827639   -4.7998545 
H     4.3222985   -3.4476215   -1.3636463 
H     1.8624186   -0.4111744    5.6321429 
H    -4.6777180    5.4958366    0.5655465 
H    -1.8585624   -1.2144824   -5.7703583 
H     2.9793209   -4.6973353   -3.0761033 
H     3.1582889   -2.5122594    6.0438262 
