90
Energy =
C     2.3740731    1.3019341    1.1038754 
C     1.9393118    2.0305914   -0.0357971 
C     0.7448229    2.7970869   -0.0198531 
H     2.4583132    1.8664841   -0.9883299 
Pd    0.3269226    0.6171370    0.4713091 
P    -1.8694134    0.4427493   -0.3123481 
P     0.4515454   -1.5800895    1.2108156 
H     2.0682902    1.6808259    2.0913375 
H     0.3860162    3.1512317    0.9582981 
C     5.8176698   -1.2790365    1.2015022 
C     5.0825190   -1.1451818    0.0118615 
C     3.9635753   -0.3082736   -0.0330303 
C     3.5517877    0.4115105    1.1120243 
C     4.2960848    0.2615644    2.3020499 
C     5.4204602   -0.5715823    2.3450753 
H     6.6929944   -1.9357932    1.2359874 
H     5.3805061   -1.7005731   -0.8835236 
H     3.3913380   -0.2281212   -0.9627688 
H     3.9892525    0.8072657    3.2001773 
H     5.9838864   -0.6727031    3.2780387 
C    -0.8882202    4.9820590   -3.3539679 
C     0.1962464    4.1127083   -3.5568417 
C     0.7282603    3.3844369   -2.4879283 
C     0.2034399    3.5263299   -1.1810691 
C    -0.8790452    4.4171575   -0.9904257 
C    -1.4251560    5.1285101   -2.0651003 
H    -1.3065253    5.5466444   -4.1935479 
H     0.6248320    3.9945526   -4.5573467 
H     1.5594606    2.6984216   -2.6778519 
H    -1.2990452    4.5457519    0.0119837 
H    -2.2677750    5.8057673   -1.8924478 
C    -2.2577655   -2.2661381    0.7230020 
C    -2.9593632   -0.9259949    0.4031259 
C    -1.1840713   -2.2670048    1.8396099 
C    -4.2359800   -1.1435258   -0.4298562 
C    -1.6558122   -1.5778727    3.1304726 
C    -2.8846961    1.9182045    0.0940620 
C    -1.8359940    0.2378292   -2.1309937 
C     0.8669581   -2.7131706   -0.1727114 
C     1.6447382   -1.9138759    2.5662060 
C    -2.6551295    2.5160838    1.3520104 
C    -1.8272484    1.3577241   -2.9900890 
C     0.8016392   -4.1177867   -0.0336646 
C     1.5708384   -1.1026927    3.7206396 
C    -3.9054956    2.4267101   -0.7335625 
C    -1.6715893   -1.0517624   -2.6850558 
C     1.2146118   -2.1631696   -1.4226514 
C     2.6348178   -2.9122777    2.4911901 
C    -3.4228823    3.6102076    1.7708453 
C    -1.6899692    1.1825955   -4.3743292 
C     1.0923362   -4.9481614   -1.1238857 
C     2.4263722   -1.3319990    4.8049804 
C    -4.6605543    3.5332501   -0.3180674 
C    -1.5341218   -1.2182986   -4.0681612 
C     1.5052000   -2.9965237   -2.5118619 
C     3.5010298   -3.1254045    3.5736348 
C    -4.4210236    4.1272613    0.9298250 
C    -1.5474303   -0.1014102   -4.9182701 
C     1.4472186   -4.3893092   -2.3627853 
C     3.3889353   -2.3510822    4.7363938 
H    -3.0564661   -2.9546800    1.0604028 
H    -1.8461394   -2.7247482   -0.1939766 
H    -3.2589077   -0.4617359    1.3609262 
H    -0.9665398   -3.3254300    2.0742150 
H    -4.9252706   -1.8067821    0.1224761 
H    -4.0154311   -1.6140086   -1.4020840 
H    -4.7632482   -0.1940587   -0.6181306 
H    -0.9989272   -1.8215547    3.9799459 
H    -1.6856708   -0.4776347    3.0244359 
H    -2.6744352   -1.9214679    3.3856248 
H    -1.8604185    2.1252005    2.0001985 
H    -1.9249634    2.3686804   -2.5857235 
H     0.5273090   -4.5699409    0.9256063 
H     0.8492165   -0.2791998    3.7655072 
H    -4.1090831    1.9694710   -1.7065410 
H    -1.6376194   -1.9334304   -2.0398207 
H     1.2313419   -1.0735171   -1.5433683 
H     2.7475796   -3.5139988    1.5851445 
H    -3.2361250    4.0656034    2.7488087 
H    -1.6895395    2.0629854   -5.0248579 
H     1.0408232   -6.0355343   -1.0066143 
H     2.3503788   -0.7047875    5.6992863 
H    -5.4429421    3.9294095   -0.9735654 
H    -1.4133734   -2.2256169   -4.4799179 
H     1.7658960   -2.5540326   -3.4786189 
H     4.2720450   -3.8991490    3.5006158 
H    -5.0141168    4.9903314    1.2491706 
H    -1.4432978   -0.2326486   -6.0002528 
H     1.6728535   -5.0425873   -3.2120308 
H     4.0630745   -2.5269091    5.5809280 
