90
Energy =
C     2.4183947    1.3368232    1.0495279 
C     1.8086041    2.1497953    0.0604741 
C     0.5699261    2.8117755    0.2676641 
H     2.2229046    2.1524354   -0.9554628 
Pd    0.3114197    0.5999370    0.5277361 
P    -1.8866010    0.4647105   -0.2660724 
P     0.4370115   -1.6432630    1.1786021 
H     2.1679696    1.5330042    2.1022838 
H     0.2937853    3.0722605    1.3013358 
C     6.0423107   -0.9272485    0.4725362 
C     5.4334603   -0.2959334   -0.6252047 
C     4.2608892    0.4462909   -0.4522886 
C     3.6662415    0.5801550    0.8272636 
C     4.3066119   -0.0407734    1.9233115 
C     5.4752779   -0.7908436    1.7476446 
H     6.9575800   -1.5116011    0.3337239 
H     5.8776731   -0.3810505   -1.6225896 
H     3.8039388    0.9203289   -1.3269380 
H     3.8766638    0.0608373    2.9238302 
H     5.9442436   -1.2681849    2.6139436 
C    -1.2401555    5.2583337   -2.7716451 
C    -0.6075215    4.0563684   -3.1314141 
C    -0.0354276    3.2417033   -2.1491296 
C    -0.0834549    3.6147966   -0.7858646 
C    -0.7484383    4.8084956   -0.4348627 
C    -1.3129059    5.6276315   -1.4206673 
H    -1.6839534    5.8977728   -3.5416913 
H    -0.5652629    3.7507047   -4.1820778 
H     0.4315231    2.2933282   -2.4379996 
H    -0.8134059    5.0992552    0.6189894 
H    -1.8176967    6.5547850   -1.1308641 
C    -2.3199669   -2.1764681    0.6986493 
C    -2.9806892   -0.7810945    0.6288360 
C    -1.1936940   -2.3786527    1.7444674 
C    -4.4034263   -0.8789673    0.0514270 
C    -1.5942747   -1.8926921    3.1488493 
C    -2.8727424    2.0054380   -0.1347098 
C    -1.8520808   -0.0817697   -2.0189696 
C     1.0178643   -2.7313475   -0.1819354 
C     1.5803357   -1.9619538    2.5795481 
C    -3.1298849    2.4852431    1.1691539 
C    -0.6260140   -0.5603810   -2.5291829 
C     2.1768363   -2.3120475   -0.8700816 
C     1.5385601   -1.0884429    3.6880900 
C    -3.3482811    2.7335902   -1.2410343 
C    -2.9945603   -0.1089220   -2.8511898 
C     0.3763376   -3.9207815   -0.5812581 
C     2.4824081   -3.0428771    2.5834626 
C    -3.8879918    3.6465898    1.3605897 
C    -0.5396512   -1.0640892   -3.8335863 
C     2.6811199   -3.0624176   -1.9381263 
C     2.3675243   -1.3095361    4.7949150 
C    -4.1065345    3.8969065   -1.0427569 
C    -2.9012883   -0.6027538   -4.1594825 
C     0.8772485   -4.6626404   -1.6619255 
C     3.3252085   -3.2483792    3.6861196 
C    -4.3877610    4.3497379    0.2529113 
C    -1.6779363   -1.0840269   -4.6519009 
C     2.0258990   -4.2362803   -2.3434861 
C     3.2661140   -2.3892432    4.7930340 
H    -3.1179243   -2.8970468    0.9617116 
H    -1.9772288   -2.4672542   -0.3125912 
H    -3.0539783   -0.3554728    1.6459885 
H    -0.9953666   -3.4645788    1.8126334 
H    -5.0416239   -1.4452310    0.7530561 
H    -4.4081504   -1.4166323   -0.9114733 
H    -4.8581505    0.1155618   -0.0930181 
H    -0.9013469   -2.2679763    3.9177107 
H    -1.6130956   -0.7900879    3.2195440 
H    -2.6056304   -2.2647214    3.3921692 
H    -2.7318169    1.9523502    2.0414389 
H     0.2656368   -0.5425722   -1.8915028 
H     2.6936772   -1.3991456   -0.5589227 
H     0.8594748   -0.2277961    3.6793104 
H    -3.1103432    2.4150256   -2.2588108 
H    -3.9573680    0.2596322   -2.4879459 
H    -0.5131940   -4.2859220   -0.0602227 
H     2.5360259   -3.7172128    1.7228090 
H    -4.0879116    4.0039839    2.3760754 
H     0.4185599   -1.4420550   -4.2040863 
H     3.5881647   -2.7269196   -2.4518114 
H     2.3226002   -0.6320669    5.6538990 
H    -4.4659224    4.4568547   -1.9118194 
H    -3.7917523   -0.6141637   -4.7965202 
H     0.3668320   -5.5819608   -1.9668784 
H     4.0307176   -4.0856102    3.6779892 
H    -4.9823787    5.2568288    0.4016828 
H    -1.6145214   -1.4727288   -5.6735686 
H     2.4128667   -4.8211340   -3.1843273 
H     3.9228640   -2.5563196    5.6529590 
