90
Energy =
C     0.9244031    2.2625151   -1.2658909 
C     1.9452076    1.8927563   -0.3430088 
C     2.6340537    0.6618249   -0.4842892 
H     2.1041140    2.5082633    0.5511974 
Pd    0.3955190    0.3368595   -0.2198683 
P     0.5470365   -1.7394910    0.8275887 
P    -1.9050872    0.3577960   -0.6251419 
H     0.9905247    1.8346247   -2.2780769 
H     2.6409012    0.2257755   -1.4945204 
C    -1.1102722    6.0435929   -1.0803736 
C    -0.8577835    5.4287383   -2.3151045 
C    -0.2335119    4.1756961   -2.3605803 
C     0.1685285    3.5244074   -1.1727520 
C    -0.1235875    4.1410774    0.0660904 
C    -0.7518165    5.3884481    0.1100286 
H    -1.5968251    7.0236311   -1.0425282 
H    -1.1430521    5.9281983   -3.2468546 
H    -0.0277226    3.7032348   -3.3278333 
H     0.1301277    3.6295920    1.0011381 
H    -0.9737171    5.8505117    1.0771803 
C     5.7908059   -0.8730411    1.9956195 
C     5.5155367   -1.4473325    0.7463417 
C     4.4734631   -0.9442119   -0.0407982 
C     3.6865582    0.1440890    0.4028367 
C     3.9633302    0.6983549    1.6739710 
C     5.0076251    0.1984081    2.4561949 
H     6.6088230   -1.2597178    2.6120315 
H     6.1184494   -2.2845475    0.3798071 
H     4.2689602   -1.3912805   -1.0195278 
H     3.3591236    1.5266930    2.0563286 
H     5.2099917    0.6430626    3.4355426 
C    -2.1687316   -2.3256146    0.2933895 
C    -1.0803938   -2.5264461    1.3784145 
C    -2.8902230   -0.9565954    0.2938714 
C    -1.5351694   -2.1247550    2.7899117 
C    -4.3421393   -1.0742380   -0.1982877 
C     1.2695603   -3.0587597   -0.2309910 
C     1.5633306   -1.6268174    2.3533988 
C    -2.7697250    1.9106147   -0.1795790 
C    -2.2192919    0.0286648   -2.4051910 
C     1.3593931   -4.3984886    0.2089328 
C     2.5996720   -2.5203842    2.6824915 
C    -3.0199641    2.1718669    1.1865372 
C    -3.4609742    0.2800772   -3.0308908 
C     1.7216292   -2.7384571   -1.5261661 
C     1.2664507   -0.5608243    3.2333108 
C    -3.1211532    2.8842936   -1.1368611 
C    -1.1845449   -0.5659858   -3.1575006 
C     1.9054259   -5.3834390   -0.6246528 
C     3.2923605   -2.3754502    3.8933158 
C    -3.6562822    3.3556179    1.5789793 
C    -3.6505624   -0.0521949   -4.3788782 
C     2.2619343   -3.7252991   -2.3621656 
C     1.9491522   -0.4315309    4.4483064 
C    -3.7592672    4.0664738   -0.7378353 
C    -1.3801674   -0.9049642   -4.5030981 
C     2.3584826   -5.0490703   -1.9104270 
C     2.9593590   -1.3458575    4.7844497 
C    -4.0376685    4.3014699    0.6154320 
C    -2.6140880   -0.6456571   -5.1164393 
H    -1.7559331   -2.5460820   -0.7114482 
H    -2.9389660   -3.0995337    0.4713479 
H    -0.8522410   -3.6066839    1.3994796 
H    -2.9173836   -0.5708409    1.3275808 
H    -2.5186208   -2.5822298    3.0016066 
H    -1.6396884   -1.0326512    2.9118729 
H    -0.8228811   -2.4742669    3.5534918 
H    -4.8431087   -0.0913779   -0.2220891 
H    -4.3922085   -1.5215952   -1.2052713 
H    -4.9088443   -1.7256753    0.4907457 
H     1.0089926   -4.6810294    1.2079514 
H     2.8838383   -3.3188784    1.9919113 
H    -2.7175201    1.4504411    1.9541764 
H    -4.2798105    0.7410148   -2.4714477 
H     1.6473649   -1.7045167   -1.8775486 
H     0.4988076    0.1729188    2.9589198 
H    -2.8957968    2.7269811   -2.1947858 
H    -0.2206753   -0.7640319   -2.6743261 
H     1.9746346   -6.4166283   -0.2691346 
H     4.1022985   -3.0709723    4.1354852 
H    -3.8547006    3.5385729    2.6400981 
H    -4.6153924    0.1515633   -4.8546280 
H     2.6056553   -3.4595593   -3.3672205 
H     1.7006619    0.3902409    5.1278717 
H    -4.0289725    4.8114214   -1.4925490 
H    -0.5676704   -1.3688809   -5.0717666 
H     2.7811912   -5.8219840   -2.5604471 
H     3.4992592   -1.2437563    5.7314059 
H    -4.5388897    5.2254492    0.9211170 
H    -2.7695119   -0.9042074   -6.1689253 
