90
Energy =
C     0.5920313    1.0689674   -2.4776685 
C     0.8979715    2.0881712   -1.5287653 
C     1.9233766    1.8995684   -0.5698784 
H     0.2467135    2.9690808   -1.4669641 
Pd    0.2854701    0.3197496   -0.3746089 
P     0.4800153    0.0196487    1.9288085 
P    -1.0862485   -1.5138512   -0.8442964 
H     1.4065897    0.3794004   -2.7478574 
H     2.6899435    1.1518392   -0.8234801 
C    -2.3653622    1.6519745   -5.5416666 
C    -1.1911914    0.9344670   -5.8119566 
C    -0.2549397    0.7105624   -4.7944161 
C    -0.4660099    1.2203312   -3.4937754 
C    -1.6691897    1.9146099   -3.2282745 
C    -2.6059245    2.1304429   -4.2425193 
H    -3.0986112    1.8269494   -6.3356308 
H    -1.0012669    0.5502619   -6.8195988 
H     0.6665390    0.1587225   -5.0122585 
H    -1.8765108    2.2698282   -2.2125744 
H    -3.5347002    2.6649489   -4.0192394 
C     3.2452164    4.6713519    2.4371587 
C     2.0322766    4.9030891    1.7672484 
C     1.5754265    4.0035156    0.8004961 
C     2.3309198    2.8540310    0.4717579 
C     3.5441935    2.6281735    1.1630260 
C     3.9972639    3.5267681    2.1355114 
H     3.5989399    5.3800182    3.1930215 
H     1.4360468    5.7893920    2.0053428 
H     0.6237240    4.1986513    0.2971890 
H     4.1414079    1.7417834    0.9248268 
H     4.9433454    3.3368166    2.6527926 
C    -0.9210766   -2.4358649    1.8464151 
C    -1.8977040   -2.3161180    0.6521661 
C    -0.7526497   -1.1696819    2.7241370 
C    -2.5605366   -3.6635585    0.3199933 
C    -2.0845411   -0.5208430    3.1319608 
C    -2.4962834   -1.2003075   -1.9713261 
C    -0.0739840   -2.8523860   -1.5935288 
C     2.0941711   -0.6792763    2.4672721 
C     0.2400328    1.6101459    2.8153462 
C    -3.6735024   -0.6144000   -1.4550313 
C    -0.6356993   -3.9351928   -2.3061123 
C     2.3416580   -1.0289723    3.8136240 
C    -0.8674053    2.3945160    2.4194373 
C    -2.4090888   -1.4508500   -3.3568303 
C     1.3202113   -2.8240821   -1.3811956 
C     3.1080309   -0.8960256    1.5135087 
C     1.0796816    2.0766656    3.8437767 
C    -4.7561485   -0.3338070   -2.2977446 
C     0.1873260   -4.9574520   -2.7971007 
C     3.5789626   -1.5677537    4.1906599 
C    -1.1645104    3.5901125    3.0836738 
C    -3.4966504   -1.1705811   -4.1942297 
C     2.1394211   -3.8528163   -1.8656938 
C     4.3434560   -1.4408369    1.8897468 
C     0.7868582    3.2841029    4.4942519 
C    -4.6738585   -0.6207359   -3.6683708 
C     1.5733691   -4.9201367   -2.5774429 
C     4.5816820   -1.7747462    3.2304827 
C    -0.3408220    4.0329524    4.1299543 
H    -1.3152731   -3.2293887    2.5087436 
H     0.0675235   -2.8017620    1.5037237 
H    -2.6970668   -1.6042506    0.9207697 
H    -0.2451409   -1.4926097    3.6501687 
H    -3.1627053   -3.9968408    1.1840629 
H    -1.8078503   -4.4422322    0.1106376 
H    -3.2345620   -3.5807528   -0.5495534 
H    -1.9362560    0.2339415    3.9199175 
H    -2.5933755   -0.0223520    2.2886227 
H    -2.7654654   -1.2978137    3.5241781 
H    -3.7544201   -0.3743264   -0.3891689 
H    -1.7139291   -3.9797960   -2.4843522 
H     1.5724936   -0.8770618    4.5790399 
H    -1.4954742    2.0646699    1.5829942 
H    -1.4933887   -1.8657162   -3.7864512 
H     1.7589367   -1.9859177   -0.8279510 
H     2.9230920   -0.6325629    0.4673534 
H     1.9718929    1.5130918    4.1294143 
H    -5.6668154    0.1084463   -1.8807460 
H    -0.2580106   -5.7894591   -3.3522478 
H     3.7591567   -1.8289160    5.2384938 
H    -2.0327202    4.1824002    2.7766714 
H    -3.4152026   -1.3739115   -5.2662276 
H     3.2194763   -3.8176147   -1.6893902 
H     5.1188810   -1.6054383    1.1343589 
H     1.4509638    3.6420075    5.2875346 
H    -5.5214735   -0.4049844   -4.3266827 
H     2.2106851   -5.7225431   -2.9630815 
H     5.5455447   -2.2002909    3.5279174 
H    -0.5673724    4.9706501    4.6477000 
