90
Energy =
C     1.4750360    0.4658477   -2.5279965 
C     1.8062410    1.4681016   -1.5810574 
C     2.5870899    1.2015719   -0.4256135 
H     1.3237625    2.4507284   -1.6547316 
Pd    0.7474923   -0.0823091   -0.4256741 
P     0.4686217   -0.1843056    1.8966418 
P    -1.0000205   -1.5605771   -0.9074151 
H     2.1393802   -0.4075123   -2.6031046 
H     3.3028335    0.3660617   -0.4715700 
C    -1.0633762    1.0651143   -5.9609755 
C    -0.3165197   -0.1126982   -5.8158636 
C     0.5142482   -0.2877847   -4.7030648 
C     0.6091344    0.7024702   -3.6995045 
C    -0.1389042    1.8941626   -3.8695294 
C    -0.9621808    2.0718655   -4.9860106 
H    -1.7120032    1.2051590   -6.8316884 
H    -0.3769369   -0.9012630   -6.5727024 
H     1.0954976   -1.2088342   -4.6040051 
H    -0.0859331    2.6918279   -3.1214492 
H    -1.5276286    3.0029776   -5.0986314 
C     3.5477707    4.2697083    2.4316380 
C     2.2638927    4.2263993    1.8622513 
C     1.9341253    3.2207846    0.9480181 
C     2.8833831    2.2374529    0.5848321 
C     4.1588927    2.2744986    1.1864085 
C     4.4908957    3.2882230    2.0939696 
H     3.8068037    5.0601799    3.1436163 
H     1.5152491    4.9769626    2.1366485 
H     0.9219877    3.1809700    0.5298063 
H     4.8971991    1.5064308    0.9324954 
H     5.4884356    3.3065406    2.5445187 
C    -1.4419039   -2.2879558    1.8135455 
C    -1.2847409   -2.8846273    0.3916164 
C    -0.1541958   -1.8409446    2.5425987 
C    -0.2224943   -3.9969893    0.3311792 
C    -0.3503655   -1.8754624    4.0682478 
C    -2.6055442   -0.6838204   -1.0718703 
C    -0.8012382   -2.5058037   -2.4688881 
C     1.9922555    0.0687206    2.8849837 
C    -0.7916097    1.0482525    2.4103781 
C    -2.6180640    0.4454087   -1.9189374 
C     0.4551675   -3.0883421   -2.7428639 
C     3.0181841   -0.8900946    2.7287105 
C    -1.5500371    1.6703366    1.3953727 
C    -3.7887635   -1.0489959   -0.3994116 
C    -1.8576646   -2.6759964   -3.3839714 
C     2.1982155    1.1619079    3.7467670 
C    -1.0807943    1.3501334    3.7608826 
C    -3.7861830    1.1973880   -2.0863043 
C     0.6424616   -3.8545364   -3.9000612 
C     4.2092144   -0.7785502    3.4562274 
C    -2.5806790    2.5636193    1.7158396 
C    -4.9542397   -0.2835363   -0.5585183 
C    -1.6587271   -3.4261771   -4.5525891 
C     3.3936570    1.2680706    4.4728998 
C    -2.1052063    2.2528343    4.0768818 
C    -4.9564286    0.8400627   -1.3972469 
C    -0.4150180   -4.0211453   -4.8093455 
C     4.3948287    0.2971037    4.3393443 
C    -2.8589160    2.8572343    3.0583008 
H    -2.1672930   -1.4523410    1.8138409 
H    -1.9021144   -3.0826134    2.4313665 
H    -2.2550775   -3.3363481    0.1126702 
H     0.6727713   -2.5288069    2.2890248 
H    -0.3696945   -4.6920287    1.1771920 
H     0.8055770   -3.5973254    0.3969802 
H    -0.2994574   -4.5774111   -0.6012208 
H     0.5233487   -1.4690928    4.6050310 
H    -1.2484138   -1.3102242    4.3687702 
H    -0.4911454   -2.9220479    4.3923877 
H    -1.7100260    0.7290073   -2.4598034 
H     1.2907613   -2.9343928   -2.0500993 
H     2.8892350   -1.7272269    2.0317230 
H    -1.3314146    1.4444674    0.3451879 
H    -3.8219181   -1.9277928    0.2508207 
H    -2.8316839   -2.2153896   -3.1907665 
H     1.4433806    1.9467765    3.8373913 
H    -0.5063928    0.8907570    4.5694351 
H    -3.7790323    2.0627585   -2.7573591 
H     1.6174510   -4.3109499   -4.0999572 
H     4.9941353   -1.5320019    3.3330521 
H    -3.1643943    3.0249348    0.9129113 
H    -5.8658729   -0.5733705   -0.0260139 
H    -2.4823496   -3.5463351   -5.2638941 
H     3.5433200    2.1258476    5.1360565 
H    -2.3169965    2.4824387    5.1262961 
H    -5.8698650    1.4313754   -1.5188965 
H    -0.2663935   -4.6108799   -5.7197545 
H     5.3250505    0.3839955    4.9100057 
H    -3.6611352    3.5573709    3.3135973 
