90
Energy =
C     1.6073770    0.2568560   -2.4311337 
C     1.8170601    1.4034989   -1.6188091 
C     2.5398155    1.3318225   -0.3992091 
H     1.2734748    2.3238781   -1.8663405 
Pd    0.7533756   -0.0719247   -0.3761937 
P     0.3060637   -0.1138675    1.9184583 
P    -0.9594279   -1.5355180   -0.9403227 
H     2.3578355   -0.5465616   -2.3725914 
H     3.2667256    0.5127542   -0.2909515 
C    -0.7624237    0.1886678   -6.0236190 
C    -1.1075304    1.0629185   -4.9795131 
C    -0.3443674    1.0959680   -3.8087120 
C     0.7801022    0.2532988   -3.6537984 
C     1.1109330   -0.6243054   -4.7087528 
C     0.3499756   -0.6532959   -5.8835537 
H    -1.3617945    0.1624423   -6.9394573 
H    -1.9792770    1.7183262   -5.0772135 
H    -0.6367681    1.7704832   -2.9975974 
H     1.9757794   -1.2874687   -4.6047366 
H     0.6244095   -1.3414109   -6.6893340 
C     3.2028976    4.6010112    2.3269805 
C     3.8699121    3.3771793    2.4951527 
C     3.6493303    2.3264247    1.5970434 
C     2.7412572    2.4659831    0.5209930 
C     2.0712767    3.7036575    0.3700510 
C     2.3094045    4.7602029    1.2549162 
H     3.3828722    5.4277473    3.0218019 
H     4.5720466    3.2412679    3.3240232 
H     4.1817165    1.3796916    1.7318374 
H     1.3543220    3.8479205   -0.4440653 
H     1.7871752    5.7119039    1.1127876 
C    -1.7470405   -2.1875776    1.7060660 
C    -1.3101270   -2.8396306    0.3705887 
C    -0.6415313   -1.5959068    2.6106393 
C    -0.1499664   -3.8346000    0.5366294 
C    -1.1604641   -1.3349662    4.0365595 
C    -2.5603187   -0.6463433   -1.0741244 
C    -0.7361989   -2.4903317   -2.4928487 
C     1.8341915   -0.1967157    2.9338914 
C    -0.6180435    1.3999957    2.3709522 
C    -3.7887981   -1.3335596   -1.1975199 
C     0.4722788   -3.2031958   -2.6585731 
C     1.9790957    0.4146503    4.1952986 
C     0.0573251    2.5866296    2.7286892 
C    -2.5657880    0.7610930   -1.0052676 
C    -1.6967340   -2.5190584   -3.5220024 
C     2.8867672   -0.9890982    2.4269506 
C    -2.0232982    1.4293603    2.2235659 
C    -4.9922657   -0.6193882   -1.2633434 
C     0.6841934   -3.9842438   -3.8011686 
C     3.1698898    0.2571299    4.9195836 
C    -0.6654719    3.7645076    2.9648370 
C    -3.7714969    1.4732228   -1.0722289 
C    -1.4708134   -3.2885433   -4.6727466 
C     4.0676227   -1.1584312    3.1611471 
C    -2.7376682    2.6097844    2.4597738 
C    -4.9851822    0.7840284   -1.2042690 
C    -0.2923886   -4.0350322   -4.8079457 
C     4.2143863   -0.5255985    4.4057899 
C    -2.0611460    3.7807530    2.8359339 
H    -2.5432443   -1.4448262    1.5188716 
H    -2.2287308   -2.9887333    2.2991814 
H    -2.1852282   -3.3929625   -0.0174989 
H     0.1743103   -2.3389521    2.6811698 
H    -0.3461533   -4.4954604    1.4001233 
H     0.8126641   -3.3206252    0.7146408 
H    -0.0370590   -4.4733122   -0.3531861 
H    -0.3610301   -0.9594732    4.6960706 
H    -1.9855207   -0.6039396    4.0446237 
H    -1.5362558   -2.2796215    4.4683475 
H    -3.8120665   -2.4276656   -1.2463739 
H     1.2561999   -3.1360372   -1.8958513 
H     1.1704606    1.0222109    4.6128590 
H     1.1464082    2.5992413    2.8223069 
H    -1.6175750    1.2953579   -0.8730837 
H    -2.6141316   -1.9297171   -3.4399974 
H     2.7805125   -1.4657407    1.4441313 
H    -2.5678778    0.5344407    1.9115720 
H    -5.9392676   -1.1602172   -1.3603339 
H     1.6192288   -4.5432068   -3.9117132 
H     3.2781893    0.7467947    5.8928181 
H    -0.1243762    4.6737804    3.2453031 
H    -3.7599116    2.5661198   -1.0100800 
H    -2.2214505   -3.2967522   -5.4695574 
H     4.8770700   -1.7757361    2.7581070 
H    -3.8265905    2.6123061    2.3455449 
H    -5.9284034    1.3376955   -1.2560223 
H    -0.1250007   -4.6402904   -5.7047406 
H     5.1411616   -0.6459400    4.9760666 
H    -2.6208901    4.7027770    3.0237033 
