90
Energy =
C     1.5131578    0.4645716   -2.4955895 
C     1.7666873    1.6203556   -1.7118044 
C     2.4817892    1.5257414   -0.4825541 
H     1.2597411    2.5598743   -1.9639875 
Pd    0.6798479    0.2134480   -0.4195317 
P     0.5366010   -0.1612529    1.8773875 
P    -1.2079124   -1.0794263   -0.8705946 
H     2.2069995   -0.3809025   -2.3665808 
H     3.2246090    0.7186904   -0.3918085 
C    -0.6848322    0.2529117   -6.1843113 
C     0.0718985   -0.8390492   -5.7349357 
C     0.7650100   -0.7586710   -4.5212955 
C     0.7188813    0.4151392   -3.7338914 
C    -0.0739518    1.4957498   -4.1852556 
C    -0.7601056    1.4161355   -5.4000877 
H    -1.2202497    0.1975166   -7.1376722 
H     0.1307598   -1.7527438   -6.3354389 
H     1.3629701   -1.6107302   -4.1784020 
H    -0.1539065    2.4085590   -3.5869801 
H    -1.3627951    2.2653618   -5.7369158 
C     3.0327163    4.7173677    2.3549078 
C     1.9772178    4.7849260    1.4289564 
C     1.7892034    3.7587770    0.4990502 
C     2.6531310    2.6381445    0.4716619 
C     3.7068759    2.5828345    1.4103965 
C     3.8961651    3.6133104    2.3398659 
H     3.1781515    5.5226534    3.0822232 
H     1.2969001    5.6430254    1.4357989 
H     0.9539899    3.8244414   -0.2073402 
H     4.3790901    1.7178035    1.4127618 
H     4.7204725    3.5487204    3.0574903 
C    -1.6514152   -2.0078036    1.8090028 
C    -2.2851355   -1.1699775    0.6719542 
C    -0.1340752   -1.9106619    2.1026676 
C    -3.7412046   -1.6053958    0.4405735 
C     0.2032256   -2.5996690    3.4353057 
C    -2.2862798   -0.2564535   -2.1002002 
C    -0.8968191   -2.7933675   -1.4324031 
C     2.1728991   -0.1835000    2.6988131 
C    -0.5306088    0.9964805    2.8084448 
C    -2.7483442    1.0414107   -1.7827444 
C    -1.9340607   -3.6914703   -1.7695577 
C     3.1634389   -1.0289751    2.1501816 
C    -0.9074450    0.7872621    4.1531590 
C    -2.6350760   -0.8312928   -3.3359873 
C     0.4416255   -3.2360351   -1.4940988 
C     2.4912917    0.6310435    3.8007124 
C    -0.9999975    2.1410935    2.1303758 
C    -3.5816179    1.7309684   -2.6710680 
C    -1.6301900   -5.0039051   -2.1560780 
C     4.4435135   -1.0760217    2.7143738 
C    -1.7471978    1.7058362    4.7978821 
C    -3.4656010   -0.1315978   -4.2235444 
C     0.7413311   -4.5496420   -1.8802262 
C     3.7774760    0.5816067    4.3607138 
C    -1.8347611    3.0594965    2.7805677 
C    -3.9481271    1.1413217   -3.8915691 
C    -0.2953502   -5.4349363   -2.2105314 
C     4.7520145   -0.2704473    3.8243079 
C    -2.2117535    2.8403516    4.1138665 
H    -2.1999959   -1.7426691    2.7329928 
H    -1.8685069   -3.0759773    1.6175520 
H    -2.2884302   -0.1075305    0.9851212 
H     0.4083939   -2.4439001    1.2971306 
H    -4.3206737   -1.4500242    1.3682639 
H    -3.8050462   -2.6773499    0.1885139 
H    -4.2213853   -1.0233928   -0.3626683 
H     1.2833063   -2.5700975    3.6513783 
H    -0.3344466   -2.1380861    4.2805197 
H    -0.1073430   -3.6587420    3.3865444 
H    -2.4582648    1.5117038   -0.8352404 
H    -2.9778745   -3.3651233   -1.7467690 
H     2.9315965   -1.6496489    1.2754018 
H    -0.5381590   -0.0831188    4.7031587 
H    -2.2515717   -1.8158190   -3.6169765 
H     1.2483739   -2.5382146   -1.2372795 
H     1.7453726    1.3159248    4.2144320 
H    -0.6979262    2.3046947    1.0893857 
H    -3.9446356    2.7309281   -2.4117055 
H    -2.4401151   -5.6925665   -2.4178465 
H     5.2035680   -1.7386229    2.2876144 
H    -2.0367203    1.5366195    5.8401149 
H    -3.7275638   -0.5856138   -5.1844308 
H     1.7838501   -4.8811076   -1.9254323 
H     4.0174229    1.2218827    5.2157255 
H    -2.1884967    3.9476835    2.2469675 
H    -4.5997927    1.6802311   -4.5868995 
H    -0.0640490   -6.4613298   -2.5133428 
H     5.7539878   -0.3052899    4.2640338 
H    -2.8657432    3.5555541    4.6233238 
