90
Energy =
C     1.8676243    2.1126655   -0.4784374 
C     1.8116962    1.5032928   -1.7626867 
C     0.5841707    1.3603439   -2.4507403 
H     2.7085664    1.0175450   -2.1652769 
Pd    0.5140475    0.3023552   -0.4257739 
P    -1.0530727   -1.3763299   -0.8280548 
P     0.2344222    0.0585318    1.8837866 
H     1.0726548    2.8364550   -0.2463924 
H    -0.2436431    2.0102595   -2.1270808 
C     5.4686829    2.7652461    1.7835015 
C     4.2961380    3.4763747    2.0788058 
C     3.1274507    3.2362076    1.3485524 
C     3.1022128    2.2812130    0.3065332 
C     4.2856795    1.5529383    0.0397468 
C     5.4561558    1.7992760    0.7639753 
H     6.3863686    2.9567550    2.3488643 
H     4.2923391    4.2224805    2.8795739 
H     2.2196814    3.8057854    1.5771763 
H     4.2942896    0.7868216   -0.7428653 
H     6.3651683    1.2336012    0.5340248 
C    -0.0181118   -0.2633703   -6.3835203 
C    -1.1111747    0.1034034   -5.5831586 
C    -0.8977368    0.6226702   -4.3031980 
C     0.4113248    0.7773345   -3.7898155 
C     1.5021801    0.3970582   -4.6055490 
C     1.2877872   -0.1114832   -5.8907230 
H    -0.1827085   -0.6633827   -7.3891267 
H    -2.1322194   -0.0181850   -5.9577282 
H    -1.7542083    0.9035153   -3.6797685 
H     2.5287062    0.5233889   -4.2469375 
H     2.1444733   -0.3852426   -6.5152484 
C    -1.0375320   -2.5553803    1.7837480 
C     0.0000059   -1.6921148    2.5365930 
C    -0.7825212   -2.8634734    0.2906661 
C    -0.2180685   -1.7446804    4.0620065 
C     0.6046639   -3.4789525    0.0316640 
C     1.5838893    0.6435029    2.9746863 
C    -1.2348195    1.0838391    2.2898536 
C    -2.7618902   -0.7969047   -0.4909951 
C    -1.1003218   -2.1379242   -2.4958824 
C     1.3746638    1.5127472    4.0631902 
C    -1.1334279    2.4716983    2.0386564 
C    -3.0360706    0.5787989   -0.6397612 
C     0.1267748   -2.3719002   -3.1518968 
C     2.8688704    0.1078211    2.7455914 
C    -2.4651294    0.5635888    2.7373554 
C    -3.8048262   -1.6660110   -0.1042357 
C    -2.3048393   -2.5232905   -3.1173834 
C     2.4395143    1.8270704    4.9202040 
C    -2.2299511    3.3166763    2.2453068 
C    -4.3253973    1.0768290   -0.4155857 
C     0.1499249   -3.0202380   -4.3919910 
C     3.9227478    0.4140778    3.6134428 
C    -3.5631911    1.4122295    2.9383901 
C    -5.0923124   -1.1626358    0.1307539 
C    -2.2752949   -3.1635971   -4.3641976 
C     3.7093507    1.2739667    4.7020552 
C    -3.4503576    2.7874447    2.6949416 
C    -5.3548386    0.2067966   -0.0272794 
C    -1.0509113   -3.4194099   -4.9983358 
H    -1.0568985   -3.5333505    2.3028811 
H    -2.0496773   -2.1348234    1.9087621 
H     1.0042955   -2.1108736    2.3331163 
H    -1.5477529   -3.5972549   -0.0249371 
H    -0.1835810   -2.7965579    4.3972727 
H    -1.1944306   -1.3288925    4.3594292 
H     0.5676784   -1.1905336    4.5997619 
H     1.4112509   -2.7319796    0.1497014 
H     0.7879824   -4.3005600    0.7469436 
H     0.6756518   -3.8960008   -0.9854235 
H     0.3811729    1.9309225    4.2528864 
H    -0.1835876    2.8918737    1.6909803 
H    -2.2256731    1.2645060   -0.9100194 
H     1.0618491   -2.0298783   -2.6938790 
H     3.0442892   -0.5451999    1.8824863 
H    -2.5857273   -0.5049700    2.9237482 
H    -3.6220764   -2.7395299    0.0113265 
H    -3.2659947   -2.3206240   -2.6346867 
H     2.2709010    2.4998753    5.7674864 
H    -2.1314761    4.3905874    2.0556165 
H    -4.5207123    2.1477170   -0.5276503 
H     1.1056422   -3.1950995   -4.8953071 
H     4.9168831   -0.0036803    3.4284400 
H    -4.5121916    0.9896172    3.2827725 
H    -5.8939648   -1.8446598    0.4326154 
H    -3.2145474   -3.4615015   -4.8416536 
H     4.5367835    1.5188503    5.3757854 
H    -4.3098402    3.4467673    2.8535543 
H    -6.3617609    0.5954193    0.1566688 
H    -1.0321373   -3.9182656   -5.9726984 
