90
Energy =
C     1.3570507    0.4867416   -2.3873032 
C     1.5271328    1.6648330   -1.6080551 
C     2.2872646    1.6451731   -0.4107162 
H     0.9352181    2.5538944   -1.8608175 
Pd    0.5715228    0.1552753   -0.3114160 
P     0.3317869    0.0618001    2.0067053 
P    -0.9543668   -1.5447546   -0.7917688 
H     2.1561314   -0.2686005   -2.3323891 
H     3.0269895    0.8370277   -0.3021337 
C    -1.0333738    0.2416908   -5.9574205 
C    -1.4544765    1.0574919   -4.8937004 
C    -0.6857667    1.1464302   -3.7292488 
C     0.5164533    0.4146185   -3.5990109 
C     0.9215861   -0.4093007   -4.6706521 
C     0.1582102   -0.4882595   -5.8418452 
H    -1.6351790    0.1740730   -6.8695979 
H    -2.3888015    1.6231716   -4.9716152 
H    -1.0324639    1.7744007   -2.9022388 
H     1.8432519   -0.9935928   -4.5809876 
H     0.4917479   -1.1307190   -6.6630588 
C     2.8881254    4.8850767    2.3547323 
C     3.5292013    3.6513520    2.5397084 
C     3.3382033    2.6149654    1.6190205 
C     2.4866546    2.7832253    0.5027136 
C     1.8632616    4.0397709    0.3185290 
C     2.0636909    5.0773638    1.2335585 
H     3.0384313    5.6982133    3.0721633 
H     4.1860303    3.4950928    3.4016795 
H     3.8495645    1.6577296    1.7638347 
H     1.2150240    4.2127066   -0.5469775 
H     1.5753539    6.0440806    1.0724893 
C    -0.4776864   -2.6468158    1.8584377 
C    -1.2657156   -2.8746653    0.5482626 
C    -0.7592285   -1.3374734    2.6412021 
C    -1.0699153   -4.3159910    0.0464992 
C    -2.2480110   -0.9480423    2.6634224 
C    -2.6354800   -0.8625518   -1.0699461 
C    -0.4937074   -2.4861934   -2.2989458 
C     1.9879874   -0.2902151    2.7339604 
C    -0.3279712    1.5604162    2.8247843 
C    -3.7426077   -1.7045096   -1.3157923 
C     0.7974108   -3.0586055   -2.3233824 
C     2.8456731   -1.1508127    2.0119903 
C    -0.5969664    1.6066443    4.2118363 
C    -2.8363153    0.5288970   -0.9766412 
C    -1.3389057   -2.6446146   -3.4120974 
C     2.4596459    0.3005069    3.9231189 
C    -0.6198891    2.6845268    2.0303379 
C    -5.0199210   -1.1550733   -1.4874920 
C     1.2148972   -3.8192305   -3.4217039 
C     4.1361717   -1.4313428    2.4794124 
C    -1.1226755    2.7697628    4.7878023 
C    -4.1164439    1.0750078   -1.1436653 
C    -0.9120792   -3.4014278   -4.5139798 
C     3.7543675    0.0219833    4.3854127 
C    -1.1433430    3.8482561    2.6104379 
C    -5.2078201    0.2340782   -1.4049132 
C     0.3549268   -3.9997325   -4.5172521 
C     4.5936740   -0.8438614    3.6693645 
C    -1.3906432    3.8936409    3.9889888 
H    -0.7458889   -3.4864519    2.5276673 
H     0.6068802   -2.7575617    1.6695126 
H    -2.3391732   -2.7394254    0.7660891 
H    -0.4154161   -1.5019487    3.6793036 
H    -1.4164658   -5.0175619    0.8261502 
H    -0.0105241   -4.5402568   -0.1626973 
H    -1.6413073   -4.5152197   -0.8746988 
H    -2.6008719   -0.5964871    1.6778810 
H    -2.8583150   -1.8230565    2.9510376 
H    -2.4446787   -0.1455603    3.3906166 
H    -3.6114430   -2.7908001   -1.3756226 
H     1.4786207   -2.9067589   -1.4766029 
H     2.5086071   -1.5815549    1.0605844 
H    -0.4100939    0.7322972    4.8451330 
H    -1.9812667    1.1778452   -0.7520158 
H    -2.3205644   -2.1636413   -3.4360081 
H     1.8364484    1.0079531    4.4760632 
H    -0.4290909    2.6424469    0.9529273 
H    -5.8722122   -1.8139434   -1.6828922 
H     2.2134536   -4.2685390   -3.4253956 
H     4.7890967   -2.0993152    1.9081890 
H    -1.3280548    2.7981423    5.8628650 
H    -4.2616118    2.1572614   -1.0635729 
H    -1.5744611   -3.5117369   -5.3785050 
H     4.1110931    0.4955412    5.3059519 
H    -1.3537320    4.7202994    1.9831968 
H    -6.2083545    0.6588303   -1.5360835 
H     0.6806096   -4.5929305   -5.3778140 
H     5.6054568   -1.0531011    4.0312804 
H    -1.7996278    4.8017011    4.4438194 
