90
Energy =
C     1.4591337    0.4280518   -2.5403072 
C     1.8077440    1.4359383   -1.6056227 
C     2.5945101    1.1738453   -0.4533070 
H     1.3338884    2.4222865   -1.6849743 
Pd    0.7422665   -0.0929492   -0.4268389 
P     0.4729925   -0.1615827    1.8973222 
P    -1.0149973   -1.5673301   -0.8821753 
H     2.1137832   -0.4527999   -2.6125877 
H     3.3014398    0.3306705   -0.4951638 
C    -1.1068405    1.0213180   -5.9541455 
C    -0.9771339    2.0402529   -4.9953572 
C    -0.1444668    1.8644777   -3.8855626 
C     0.5851687    0.6626915   -3.7063788 
C     0.4619102   -0.3402488   -4.6942378 
C    -0.3786555   -0.1669828   -5.7999708 
H    -1.7629409    1.1598245   -6.8194860 
H    -1.5273967    2.9794839   -5.1154911 
H    -0.0695694    2.6719861   -3.1500719 
H     1.0280971   -1.2698778   -4.5881514 
H    -0.4613302   -0.9654223   -6.5442459 
C     3.6043457    4.2628432    2.3641629 
C     2.3164338    4.2262980    1.8034699 
C     1.9706249    3.2140607    0.9025890 
C     2.9076003    2.2172295    0.5442343 
C     4.1871334    2.2476869    1.1375902 
C     4.5352076    3.2679617    2.0316904 
H     3.8759890    5.0585041    3.0655806 
H     1.5771489    4.9873400    2.0743491 
H     0.9553505    3.1798111    0.4914928 
H     4.9159836    1.4693743    0.8875873 
H     5.5357222    3.2810372    2.4757808 
C    -1.4571248   -2.2495400    1.8496113 
C    -1.3034702   -2.8697826    0.4374136 
C    -0.1663575   -1.8004985    2.5718365 
C    -0.2454541   -3.9869038    0.3929695 
C    -0.3641257   -1.8049521    4.0976214 
C    -2.6173635   -0.6874023   -1.0592772 
C    -0.8202258   -2.5375980   -2.4286932 
C     2.0042707    0.0871868    2.8750121 
C    -0.7713864    1.0929906    2.3966806 
C    -3.8033661   -1.0430288   -0.3865062 
C    -1.8783421   -2.7202802   -3.3393266 
C     3.0184434   -0.8849682    2.7243404 
C    -1.0487578    1.4232014    3.7430087 
C    -2.6251299    0.4322434   -1.9189838 
C     0.4352379   -3.1253248   -2.6959913 
C     2.2276033    1.1880367    3.7225373 
C    -1.5306349    1.7031689    1.3749832 
C    -4.9671930   -0.2778946   -0.5585917 
C    -1.6819444   -3.4876125   -4.4972377 
C     4.2148228   -0.7784802    3.4437508 
C    -2.0613159    2.3428141    4.0483363 
C    -3.7915993    1.1838604   -2.0990894 
C     0.6202235   -3.9078954   -3.8425443 
C     3.4283733    1.2891441    4.4405672 
C    -2.5498169    2.6131081    1.6850195 
C    -4.9648535    0.8358239   -1.4104510 
C    -0.4389146   -4.0867016   -4.7476695 
C     4.4177024    0.3053475    4.3129422 
C    -2.8154338    2.9357638    3.0233722 
H    -2.1766550   -1.4088915    1.8358882 
H    -1.9232955   -3.0307280    2.4800205 
H    -2.2756813   -3.3223033    0.1664930 
H     0.6545755   -2.5004518    2.3321051 
H    -0.3939100   -4.6681696    1.2498904 
H     0.7842558   -3.5901682    0.4509194 
H    -0.3259613   -4.5814235   -0.5302266 
H     0.5136246   -1.3982485    4.6275598 
H    -1.2561473   -1.2245068    4.3869094 
H    -0.5163256   -2.8438240    4.4408309 
H    -3.8398807   -1.9142065    0.2737749 
H    -2.8515142   -2.2557312   -3.1513425 
H     2.8761924   -1.7284046    2.0375840 
H    -0.4745095    0.9725878    4.5565658 
H    -1.7147963    0.7086035   -2.4596794 
H     1.2719100   -2.9622852   -2.0066023 
H     1.4825277    1.9827134    3.8078331 
H    -1.3218183    1.4546891    0.3278636 
H    -5.8811033   -0.5601797   -0.0259253 
H    -2.5068681   -3.6175963   -5.2053096 
H     4.9904628   -1.5421929    3.3250542 
H    -2.2636419    2.5945344    5.0945380 
H    -3.7806380    2.0415430   -2.7798715 
H     1.5945641   -4.3677727   -4.0375453 
H     3.5915766    2.1529623    5.0925952 
H    -3.1345636    3.0646188    0.8772710 
H    -5.8771229    1.4267325   -1.5423859 
H    -0.2920984   -4.6892706   -5.6499255 
H     5.3521451    0.3884104    4.8772385 
H    -3.6083133    3.6493533    3.2704645 
