90
Energy =
C     1.3038947    0.4508799   -2.5574879 
C     1.6452214    1.5005635   -1.6659065 
C     2.4871531    1.2880548   -0.5426264 
H     1.1324355    2.4668816   -1.7509720 
Pd    0.6722381   -0.0314536   -0.4186405 
P     0.5329973   -0.1046236    1.9080190 
P    -1.0821297   -1.5260841   -0.8242778 
H     1.9993719   -0.3982356   -2.6275425 
H     3.2173345    0.4658973   -0.6011142 
C    -1.3628133    0.8081752   -5.9219546 
C    -1.2746228    1.8556186   -4.9898880 
C    -0.4208420    1.7506874   -3.8871779 
C     0.3851421    0.6017347   -3.7004403 
C     0.2989286   -0.4358425   -4.6583563 
C    -0.5722786   -0.3390314   -5.7497674 
H    -2.0379380    0.8895501   -6.7799714 
H    -1.8832007    2.7567031   -5.1183444 
H    -0.3904989    2.5702005   -3.1625817 
H     0.9162745   -1.3310007   -4.5375769 
H    -0.6276271   -1.1600115   -6.4718240 
C     3.5176933    4.4267280    2.2119702 
C     2.2079143    4.3445787    1.7093242 
C     1.8574049    3.3190832    0.8253548 
C     2.8102018    2.3523489    0.4290441 
C     4.1139117    2.4296520    0.9626874 
C     4.4671246    3.4649024    1.8374180 
H     3.7927547    5.2331283    2.8996754 
H     1.4558056    5.0807926    2.0116792 
H     0.8275137    3.2503729    0.4579102 
H     4.8565566    1.6746733    0.6830529 
H     5.4860856    3.5146728    2.2345209 
C    -1.4820569   -2.0861332    1.9888267 
C    -1.5300883   -2.7167816    0.5748088 
C    -0.0932008   -1.7478796    2.5810004 
C    -0.6991232   -4.0123199    0.5030281 
C    -0.1217593   -1.8166158    4.1177948 
C    -2.6378973   -0.6416309   -1.2340705 
C    -0.7480653   -2.6526584   -2.2353207 
C     2.1212453    0.1285352    2.7916685 
C    -0.6703374    1.1493307    2.4980612 
C    -3.6184548   -0.3618868   -0.2575580 
C    -1.7687116   -3.1622315   -3.0623814 
C     2.4078065    1.2347008    3.6129131 
C    -1.4921425    1.7719204    1.5334771 
C    -2.8132548   -0.1371458   -2.5419159 
C     0.5819819   -3.0766827   -2.4371086 
C     3.1148360   -0.8547409    2.5852947 
C    -0.8561197    1.4665843    3.8628700 
C    -4.7470634    0.4025170   -0.5837353 
C    -1.4537795   -4.0610969   -4.0915871 
C     3.6533086    1.3312616    4.2509920 
C    -2.4797404    2.6881672    1.9196036 
C    -3.9452816    0.6232836   -2.8614328 
C     0.8900171   -3.9897556   -3.4537907 
C     4.3564976   -0.7515704    3.2236519 
C    -1.8387408    2.3905251    4.2435384 
C    -4.9134968    0.8991857   -1.8849319 
C    -0.1278259   -4.4757726   -4.2894072 
C     4.6245855    0.3385964    4.0673004 
C    -2.6522358    3.0008449    3.2756183 
H    -2.1222320   -1.1867210    2.0502369 
H    -1.9522339   -2.8258679    2.6645650 
H    -2.5860271   -2.9744638    0.3685767 
H     0.6565079   -2.4727458    2.2140459 
H    -0.9304256   -4.6422848    1.3805421 
H     0.3877824   -3.8149620    0.5064518 
H    -0.9279865   -4.5913827   -0.4046655 
H     0.8278639   -1.4762894    4.5635381 
H    -0.9452315   -1.2087101    4.5289704 
H    -0.2912215   -2.8618897    4.4322414 
H    -3.5140392   -0.7306836    0.7656436 
H    -2.8078427   -2.8528105   -2.9111869 
H     1.6772992    2.0379273    3.7371467 
H    -1.3560711    1.5288447    0.4720396 
H    -2.0745246   -0.3520738   -3.3180691 
H     1.3785575   -2.6853661   -1.7927586 
H     2.9197662   -1.7048416    1.9202039 
H    -0.2322115    1.0021924    4.6313318 
H    -5.4994583    0.6064034    0.1851740 
H    -2.2503720   -4.4427922   -4.7385506 
H     3.8653611    2.1992163    4.8831570 
H    -3.1131345    3.1539218    1.1577212 
H    -4.0636568    0.9987334   -3.8827683 
H     1.9251847   -4.3149545   -3.6001596 
H     5.1162662   -1.5235163    3.0629511 
H    -1.9705127    2.6327955    5.3031440 
H    -5.7973228    1.4939385   -2.1376157 
H     0.1120405   -5.1799475   -5.0927303 
H     5.5944997    0.4182473    4.5687373 
H    -3.4195346    3.7199354    3.5806731 
