90
Energy =
C     1.4634917    0.4519864   -2.5314342 
C     1.8078735    1.4540066   -1.5887416 
C     2.5927172    1.1859214   -0.4366515 
H     1.3316794    2.4396815   -1.6620257 
Pd    0.7434405   -0.0864436   -0.4244293 
P     0.4640558   -0.1698086    1.8984426 
P    -1.0032866   -1.5680978   -0.8964855 
H     2.1207060   -0.4264316   -2.6095881 
H     3.3012495    0.3442967   -0.4823373 
C    -1.0999843    1.0654890   -5.9437720 
C    -0.9713009    2.0784958   -4.9785882 
C    -0.1394206    1.8960746   -3.8692786 
C     0.5905828    0.6934722   -3.6970223 
C     0.4682490   -0.3034322   -4.6910906 
C    -0.3716359   -0.1235511   -5.7962964 
H    -1.7554482    1.2091376   -6.8087600 
H    -1.5218834    3.0182309   -5.0931981 
H    -0.0653356    2.6990781   -3.1288190 
H     1.0343062   -1.2337414   -4.5902174 
H    -0.4535787   -0.9174653   -6.5454838 
C     3.5895857    4.2576135    2.4041268 
C     2.3037201    4.2235721    1.8385886 
C     1.9618843    3.2166538    0.9302597 
C     2.9010282    2.2229257    0.5688945 
C     4.1784294    2.2506972    1.1670031 
C     4.5224450    3.2655708    2.0687852 
H     3.8580171    5.0490093    3.1115825 
H     1.5629483    4.9824759    2.1114004 
H     0.9480200    3.1840836    0.5155439 
H     4.9089222    1.4747360    0.9144902 
H     5.5213031    3.2765750    2.5166435 
C    -1.4569376   -2.2661918    1.8288490 
C    -1.2895717   -2.8790506    0.4149481 
C    -0.1738233   -1.8136875    2.5623133 
C    -0.2223644   -3.9874153    0.3718183 
C    -0.3830996   -1.8237963    4.0865059 
C    -2.6109304   -0.6986870   -1.0776781 
C    -0.7932509   -2.5289111   -2.4468922 
C     1.9894403    0.0785344    2.8855004 
C    -0.7867154    1.0785916    2.3976119 
C    -2.6214552    0.4280537   -1.9279923 
C     0.4676935   -3.1066281   -2.7103295 
C     3.0063830   -0.8911173    2.7373013 
C    -1.0704656    1.4030703    3.7440026 
C    -3.7991225   -1.0699781   -0.4172705 
C    -1.8446625   -2.7127950   -3.3649945 
C     2.2059512    1.1770209    3.7378726 
C    -1.5443719    1.6894935    1.3751513 
C    -3.7929963    1.1709510   -2.1114417 
C     0.6648175   -3.8803411   -3.8608632 
C     4.1984641   -0.7847668    3.4638536 
C    -2.0877044    2.3177284    4.0486563 
C    -4.9681437   -0.3135587   -0.5925014 
C    -1.6362371   -3.4713474   -4.5265990 
C     3.4024019    1.2779722    4.4630984 
C    -2.5682013    2.5944585    1.6844538 
C    -4.9686876    0.8070393   -1.4353123 
C    -0.3876831   -4.0603070   -4.7735155 
C     4.3942621    0.2964078    4.3379493 
C    -2.8402156    2.9113450    3.0228985 
H    -2.1809685   -1.4294218    1.8136271 
H    -1.9233415   -3.0527367    2.4523885 
H    -2.2564189   -3.3380565    0.1359146 
H     0.6518478   -2.5094216    2.3267218 
H    -0.3704336   -4.6738983    1.2246372 
H     0.8037376   -3.5826270    0.4378174 
H    -0.2925080   -4.5782338   -0.5546002 
H     0.4893961   -1.4160711    4.6243071 
H    -1.2790881   -1.2471025    4.3709957 
H    -0.5344684   -2.8642772    4.4251877 
H    -1.7092189    0.7169974   -2.4587804 
H     1.2991163   -2.9425775   -2.0148575 
H     2.8697301   -1.7325544    2.0469773 
H    -0.4977118    0.9516931    4.5581925 
H    -3.8332296   -1.9467548    0.2357142 
H    -2.8218731   -2.2555521   -3.1801092 
H     1.4588825    1.9699745    3.8216750 
H    -1.3305292    1.4455911    0.3279483 
H    -3.7840185    2.0342906   -2.7850665 
H     1.6433986   -4.3323168   -4.0530525 
H     4.9762643   -1.5465530    3.3469228 
H    -2.2949910    2.5649778    5.0949544 
H    -5.8837852   -0.6080802   -0.0695207 
H    -2.4559953   -3.6021332   -5.2405038 
H     3.5602566    2.1399748    5.1188332 
H    -3.1515346    3.0466530    0.8760539 
H    -5.8850325    1.3909939   -1.5699425 
H    -0.2313321   -4.6557409   -5.6789006 
H     5.3251882    0.3791852    4.9080727 
H    -3.6368939    3.6208783    3.2694566 
