90
Energy =
C     1.8961049    2.1050973   -0.4593242 
C     1.8539799    1.4780293   -1.7352903 
C     0.6597438    1.3512225   -2.4794369 
H     2.7535768    0.9647855   -2.0946506 
Pd    0.4769475    0.3504440   -0.4079948 
P    -1.1613765   -1.2675510   -0.8259010 
P     0.2754848    0.1166539    1.9230842 
H     1.1265435    2.8606269   -0.2419197 
H    -0.1697390    2.0252803   -2.2152503 
C     5.5448774    2.6719167    1.7463412 
C     5.4573793    1.6315718    0.8068328 
C     4.2647986    1.4086689    0.1125552 
C     3.1354510    2.2346078    0.3273499 
C     3.2313251    3.2582666    1.2966278 
C     4.4235495    3.4766539    1.9957103 
H     6.4800499    2.8471022    2.2879114 
H     6.3238609    0.9892136    0.6177319 
H     4.2121548    0.5827920   -0.6051321 
H     2.3630495    3.8979634    1.4883823 
H     4.4774278    4.2791298    2.7380819 
C     0.3061428   -0.3308616   -6.4252254 
C    -0.8259893    0.1379086   -5.7419535 
C    -0.6954905    0.6756630   -4.4581853 
C     0.5639383    0.7463306   -3.8185797 
C     1.6943101    0.2640779   -4.5203405 
C     1.5663005   -0.2608548   -5.8099024 
H     0.2084515   -0.7451574   -7.4337376 
H    -1.8131773    0.0853951   -6.2113775 
H    -1.5850686    1.0450754   -3.9376401 
H     2.6892340    0.3180018   -4.0674634 
H     2.4560887   -0.6138825   -6.3414257 
C    -1.0767231   -2.3792621    1.8174273 
C     0.1737889   -1.7009635    2.4249574 
C    -1.0388500   -2.7517705    0.3160548 
C     0.2542725   -1.9794100    3.9383071 
C     0.1848681   -3.6165521   -0.0421071 
C     1.6054196    0.7668022    3.0010878 
C    -1.2706218    0.9291834    2.4943612 
C    -2.8666366   -0.6069724   -0.6342688 
C    -1.1752885   -2.0394280   -2.4900875 
C     2.8761306    0.1541454    2.9373890 
C    -1.7709367    0.7850550    3.8087186 
C    -3.1678687    0.5914793   -1.3172560 
C     0.0583223   -2.3312704   -3.1081706 
C     1.3956810    1.8304305    3.9012452 
C    -1.9819652    1.7328527    1.5808997 
C    -3.8762590   -1.2270822    0.1271172 
C    -2.3778735   -2.3950783   -3.1333327 
C     3.8992684    0.5640995    3.7987585 
C    -2.9706470    1.4061180    4.1793209 
C    -4.4452553    1.1568607   -1.2433912 
C     0.0885751   -2.9996085   -4.3373712 
C     2.4272599    2.2382854    4.7596917 
C    -3.1797455    2.3563263    1.9548684 
C    -5.1517615   -0.6482307    0.2164295 
C    -2.3409432   -3.0521887   -4.3711910 
C     3.6740070    1.6000706    4.7189606 
C    -3.6804396    2.1862946    3.2526599 
C    -5.4398095    0.5409277   -0.4667189 
C    -1.1108274   -3.3600296   -4.9705025 
H    -1.2199252   -3.3321137    2.3623571 
H    -1.9659329   -1.7647786    2.0505420 
H     1.0828318   -2.1204769    1.9557250 
H    -1.9471774   -3.3450135    0.0985750 
H     0.4782436   -3.0499128    4.0928914 
H    -0.7059320   -1.7718389    4.4382209 
H     1.0452836   -1.3916514    4.4312184 
H     0.0722926   -4.0839560   -1.0325386 
H     1.1194540   -3.0267283   -0.0512210 
H     0.2973863   -4.4228229    0.7045410 
H     3.0668547   -0.6491449    2.2169008 
H    -1.2171623    0.2070732    4.5522961 
H    -2.3882946    1.0850395   -1.9067417 
H     0.9935383   -2.0262421   -2.6252861 
H     0.4251009    2.3337725    3.9436754 
H    -1.5911106    1.8611324    0.5651896 
H    -3.6865926   -2.1667619    0.6533083 
H    -3.3413359   -2.1596577   -2.6694282 
H     4.8795408    0.0808667    3.7437731 
H    -3.3491643    1.2850456    5.1995686 
H    -4.6632734    2.0830638   -1.7852277 
H     1.0494485   -3.2213981   -4.8113573 
H     2.2512379    3.0583123    5.4636217 
H    -3.7222253    2.9682124    1.2278279 
H    -5.9244502   -1.1368892    0.8187054 
H    -3.2779895   -3.3264726   -4.8668128 
H     4.4761243    1.9173906    5.3929850 
H    -4.6185182    2.6679961    3.5473216 
H    -6.4375285    0.9861665   -0.3972106 
H    -1.0857951   -3.8734676   -5.9371551 
