90
Energy =
C     1.2689704    0.8931972   -2.5495254 
C     1.4668433    1.9400110   -1.6137663 
C     2.2879170    1.7530141   -0.4654040 
H     0.8660662    2.8541452   -1.7008032 
Pd    0.6113663    0.2740800   -0.4553836 
P     0.6802485   -0.2771359    1.8092908 
P    -1.1701469   -1.1850801   -0.8603701 
H     2.0491641    0.1171015   -2.5972944 
H     3.0971849    1.0107458   -0.5417397 
C    -1.1901137    1.0833453   -6.0747135 
C    -0.1100840    0.1915529   -6.0022028 
C     0.6802459    0.1410858   -4.8475771 
C     0.4050464    0.9761377   -3.7391596 
C    -0.6867746    1.8696919   -3.8297386 
C    -1.4706193    1.9245011   -4.9854502 
H    -1.8096858    1.1260770   -6.9762608 
H     0.1242714   -0.4592478   -6.8509775 
H     1.5389669   -0.5394252   -4.8067063 
H    -0.9353180    2.5165636   -2.9830260 
H    -2.3136296    2.6205551   -5.0339064 
C     2.8647988    4.6327719    2.6817306 
C     1.7021292    4.6884044    1.8936173 
C     1.5023727    3.7612918    0.8674252 
C     2.4596370    2.7525492    0.6056490 
C     3.6195316    2.7056034    1.4097710 
C     3.8221401    3.6395642    2.4335528 
H     3.0201455    5.3614542    3.4839746 
H     0.9477733    5.4590101    2.0838544 
H     0.5864929    3.8150241    0.2687439 
H     4.3653848    1.9234379    1.2306061 
H     4.7301833    3.5852569    3.0427683 
C    -1.4289154   -2.1830610    1.8722834 
C    -2.1672560   -1.4614553    0.7131681 
C     0.1055377   -2.0650015    2.0008751 
C    -3.5611844   -2.0725674    0.4805321 
C     0.5992516   -2.7943996    3.2609616 
C    -2.4223090   -0.4076747   -1.9545713 
C    -0.7230345   -2.7910452   -1.6152411 
C     2.3796426   -0.2658634    2.4903889 
C    -0.3766855    0.7469699    2.8967618 
C    -2.9378261   -1.0258666   -3.1083700 
C    -0.9542563   -4.0385258   -1.0000030 
C     3.3528439   -1.0204022    1.7969350 
C    -0.5461673    0.4862054    4.2748806 
C    -2.9043600    0.8640064   -1.5732504 
C    -0.0494439   -2.7530389   -2.8564466 
C     2.7578986    0.4781399    3.6226863 
C    -1.0734440    1.8237513    2.3101742 
C    -3.9265239   -0.3800173   -3.8653804 
C    -0.5228024   -5.2217122   -1.6186025 
C     4.6769559   -1.0505119    2.2497066 
C    -1.4009837    1.2892532    5.0421496 
C    -3.9089345    1.4920508   -2.3185639 
C     0.3668454   -3.9368848   -3.4756512 
C     4.0871286    0.4429479    4.0723307 
C    -1.9256209    2.6255955    3.0809326 
C    -4.4202022    0.8708417   -3.4690895 
C     0.1348037   -5.1753117   -2.8556973 
C     5.0455520   -0.3205970    3.3930512 
C    -2.0911573    2.3575214    4.4476058 
H    -1.8874392   -1.8222331    2.8125523 
H    -1.6598689   -3.2637356    1.8277967 
H    -2.3061368   -0.4059082    1.0195670 
H     0.5710842   -2.5461923    1.1169861 
H    -4.1079323   -2.1120713    1.4397075 
H    -3.4984200   -3.1002031    0.0842888 
H    -4.1540758   -1.4694858   -0.2253853 
H     0.1271186   -2.3934785    4.1735651 
H     0.3295208   -3.8636455    3.1929022 
H     1.6928443   -2.7249476    3.3744091 
H    -2.5762214   -2.0117953   -3.4153480 
H    -1.4737011   -4.1004023   -0.0412596 
H     3.0725586   -1.5835400    0.8978490 
H    -0.0049745   -0.3345758    4.7546472 
H    -2.4916445    1.3627381   -0.6874162 
H     0.1315580   -1.7903058   -3.3440741 
H     2.0267740    1.1020067    4.1444726 
H    -0.9340704    2.0267216    1.2417652 
H    -4.3172551   -0.8642612   -4.7661111 
H    -0.7096283   -6.1840588   -1.1310956 
H     5.4237824   -1.6420067    1.7100833 
H    -1.5268451    1.0809108    6.1096027 
H    -4.2855781    2.4723018   -2.0083162 
H     0.8767494   -3.8918441   -4.4436944 
H     4.3729105    1.0278638    4.9525316 
H    -2.4577177    3.4613495    2.6150098 
H    -5.1991282    1.3650582   -4.0587159 
H     0.4650338   -6.1015542   -3.3368291 
H     6.0814182   -0.3435370    3.7466104 
H    -2.7565770    2.9822007    5.0523636 
