90
Energy =
C     1.9872623    2.1694247   -0.3731623 
C     1.6439359    1.7548583   -1.7008034 
C     0.3296562    1.9320382   -2.1866343 
H     2.3685735    1.1754892   -2.2878996 
Pd    0.3863559    0.6442600   -0.2822301 
P    -1.1534022   -1.0671133   -0.7704186 
P     0.4446136    0.1441876    1.9934786 
H     1.4560297    3.0435663    0.0324049 
H    -0.2838159    2.6907286   -1.6752544 
C     5.8924391    1.4671913    1.2984420 
C     5.2987958    0.4928944    0.4786752 
C     4.0230556    0.7059060   -0.0536392 
C     3.3143951    1.9004829    0.2174534 
C     3.9136233    2.8585850    1.0623731 
C     5.1924510    2.6461882    1.5920852 
H     6.8928027    1.3027200    1.7118478 
H     5.8335451   -0.4366321    0.2563947 
H     3.5590869   -0.0685385   -0.6761743 
H     3.3738484    3.7823442    1.2955119 
H     5.6423951    3.4048696    2.2403854 
C    -1.2805777    0.7874353   -6.0021980 
C    -1.8610095    1.8263370   -5.2590353 
C    -1.3269661    2.1806888   -4.0143383 
C    -0.1843678    1.5229308   -3.5010275 
C     0.4045176    0.4944650   -4.2734141 
C    -0.1460195    0.1229656   -5.5031310 
H    -1.7055438    0.4976881   -6.9686743 
H    -2.7381270    2.3558334   -5.6450234 
H    -1.7980359    2.9759080   -3.4262631 
H     1.2845345   -0.0360139   -3.9008133 
H     0.3115976   -0.6896915   -6.0762911 
C     0.0602906   -2.5965743    1.2087669 
C     0.6216570   -1.7026348    2.3410587 
C    -1.3572275   -2.2581187    0.6749260 
C     0.1155529   -2.1224406    3.7301752 
C    -2.1564750   -3.5181580    0.3077720 
C     1.7155166    0.9348477    3.0589270 
C    -1.1398291    0.7283942    2.7413151 
C    -2.8462696   -0.6285688   -1.3108316 
C    -0.4513196   -2.1200162   -2.1047911 
C     1.4806496    2.2430413    3.5382455 
C    -1.3441858    0.7380037    4.1397987 
C    -3.0760883   -0.2650336   -2.6559422 
C     0.9509844   -2.1533465   -2.2606944 
C     2.9411020    0.3077894    3.3614062 
C    -2.1594126    1.2219439    1.9016664 
C    -3.9123256   -0.5539192   -0.3871943 
C    -1.2539651   -2.9258797   -2.9391373 
C     2.4300843    2.8845549    4.3436060 
C    -2.5557100    1.1950393    4.6735520 
C    -4.3464369    0.1609175   -3.0649745 
C     1.5418905   -2.9720986   -3.2323980 
C     3.8873374    0.9547745    4.1676730 
C    -3.3711185    1.6801947    2.4386611 
C    -5.1799639   -0.1256799   -0.8038996 
C    -0.6608232   -3.7323444   -3.9200109 
C     3.6309073    2.2374997    4.6706747 
C    -3.5739353    1.6601847    3.8254646 
C    -5.4003766    0.2342157   -2.1422303 
C     0.7347900   -3.7572579   -4.0690439 
H     0.7755788   -2.6173093    0.3663474 
H     0.0428169   -3.6312731    1.5979162 
H     1.7185564   -1.8341138    2.3210918 
H    -1.9099070   -1.6835650    1.4435082 
H     0.3689381   -3.1830121    3.9053486 
H    -0.9795151   -2.0146879    3.8157587 
H     0.5877087   -1.5287861    4.5307210 
H    -3.1333906   -3.2711646   -0.1407248 
H    -1.5967664   -4.1460411   -0.4064037 
H    -2.3390277   -4.1172463    1.2176907 
H     0.5429149    2.7551865    3.2974724 
H    -0.5490040    0.4117733    4.8157218 
H    -2.2661334   -0.3257117   -3.3881818 
H     1.5767685   -1.5142025   -1.6240033 
H     3.1748284   -0.6875702    2.9724548 
H    -1.9983978    1.2559540    0.8172342 
H    -3.7635440   -0.8285047    0.6613039 
H    -2.3430387   -2.9172651   -2.8305907 
H     2.2270679    3.8926491    4.7196939 
H    -2.7022275    1.1947035    5.7586003 
H    -4.5069363    0.4359916   -4.1123799 
H     2.6311511   -2.9887428   -3.3430792 
H     4.8318984    0.4516412    4.3965978 
H    -4.1511428    2.0553160    1.7681658 
H    -5.9993698   -0.0800203   -0.0789076 
H    -1.2928130   -4.3478131   -4.5685246 
H     4.3698489    2.7367490    5.3056128 
H    -4.5175787    2.0196511    4.2487168 
H    -6.3926804    0.5653714   -2.4651943 
H     1.1924462   -4.3892843   -4.8371348 
