90
Energy =
C     1.5449734    2.4151260   -0.7018488 
C     1.9667040    1.5038286   -1.6944402 
C     1.0233530    0.9764774   -2.6369738 
H     2.9831125    1.0911656   -1.6610761 
Pd    0.4094643    0.4053102   -0.5978654 
P    -1.2170353   -1.1758217   -1.0861774 
P     0.2384757   -0.0439900    1.6991690 
H     0.5894118    2.9314246   -0.8875890 
H     0.1969608    1.6360229   -2.9406570 
C     3.8555405    4.3017863    2.3883674 
C     2.5736773    4.7689181    2.0616752 
C     1.8388790    4.1398656    1.0509282 
C     2.3644158    3.0276463    0.3495580 
C     3.6599594    2.5738993    0.6880590 
C     4.3954064    3.2070815    1.6934244 
H     4.4356703    4.7915873    3.1770112 
H     2.1506812    5.6304716    2.5884393 
H     0.8476473    4.5223649    0.7804716 
H     4.0950633    1.7174163    0.1651674 
H     5.3958941    2.8408392    1.9431464 
C     1.9263390   -2.1768260   -5.4284713 
C     2.5520237   -2.1568009   -4.1704594 
C     2.2689598   -1.1331901   -3.2605424 
C     1.3551484   -0.1038253   -3.5885448 
C     0.7324283   -0.1400449   -4.8546011 
C     1.0161805   -1.1650267   -5.7654922 
H     2.1464632   -2.9797806   -6.1394385 
H     3.2608284   -2.9460362   -3.8978982 
H     2.7429156   -1.1425719   -2.2719917 
H     0.0207156    0.6462784   -5.1254711 
H     0.5204097   -1.1739239   -6.7412796 
C    -0.9836019   -2.6762143    1.3112011 
C     0.0800685   -1.8820375    2.1048366 
C    -0.8014926   -2.7851730   -0.2264653 
C     0.0038867   -2.1642200    3.6185427 
C     0.6183237   -3.2441993   -0.6163082 
C     1.8014568    0.3249582    2.5963918 
C    -1.0975100    0.8938167    2.5267005 
C    -2.8396002   -0.6172452   -0.4245959 
C    -1.6534526   -1.5765333   -2.8268966 
C     2.9723914   -0.2830686    2.0922346 
C    -0.9806555    2.3020257    2.5381247 
C    -3.9104174   -1.5172807   -0.2391116 
C    -2.3221452   -0.5687564   -3.5566771 
C     1.8764483    1.0976647    3.7700469 
C    -2.2733764    0.3008532    3.0267852 
C    -3.0365282    0.7545368   -0.1705268 
C    -1.3778918   -2.8067880   -3.4529725 
C     4.1879771   -0.1567056    2.7745364 
C    -2.0057888    3.0947754    3.0676950 
C    -5.1487998   -1.0484176    0.2175049 
C    -2.7207327   -0.7952661   -4.8786904 
C     3.1038911    1.2460187    4.4331668 
C    -3.2986778    1.0992490    3.5530834 
C    -4.2834762    1.2231931    0.2656145 
C    -1.7700486   -3.0246104   -4.7822274 
C     4.2554342    0.6105438    3.9475616 
C    -3.1676888    2.4944022    3.5794586 
C    -5.3373472    0.3213627    0.4667814 
C    -2.4441688   -2.0251330   -5.4959186 
H    -0.9435606   -3.7117014    1.7009200 
H    -1.9982013   -2.3089822    1.5430198 
H     1.0735043   -2.2306441    1.7672524 
H    -1.5351371   -3.5303154   -0.5874057 
H     0.1627678   -3.2429161    3.7948114 
H    -0.9730994   -1.8944804    4.0493765 
H     0.7844709   -1.6124203    4.1676753 
H     0.7234802   -3.4165510   -1.6985303 
H     1.3699690   -2.4818245   -0.3456542 
H     0.8686585   -4.1830695   -0.0908060 
H     2.9300064   -0.8591895    1.1587345 
H    -0.0784922    2.7751328    2.1360059 
H    -3.7850284   -2.5829954   -0.4606119 
H    -2.5481856    0.3920130   -3.0798572 
H     0.9788023    1.5716697    4.1781211 
H    -2.4126890   -0.7816162    2.9916916 
H    -2.2026692    1.4544286   -0.3045908 
H    -0.8651175   -3.6098823   -2.9179209 
H     5.0861973   -0.6448840    2.3823993 
H    -1.8967726    4.1843948    3.0813533 
H    -5.9743544   -1.7521310    0.3664243 
H    -3.2499423   -0.0096370   -5.4278562 
H     3.1539619    1.8519740    5.3436432 
H    -4.2076929    0.6241258    3.9351085 
H    -4.4229233    2.2903053    0.4636979 
H    -1.5475834   -3.9854087   -5.2574292 
H     5.2066951    0.7184098    4.4786371 
H    -3.9702573    3.1141933    3.9922570 
H    -6.3098961    0.6835680    0.8158033 
H    -2.7540554   -2.2029887   -6.5307456 
