90
Energy =
C     1.4519626    2.3280924   -0.3004015 
C     1.4092317    1.7284200   -1.5928918 
C     0.1760838    1.5600020   -2.2702049 
H     2.3242656    1.2834173   -2.0034636 
Pd    0.1928504    0.4577376   -0.2738187 
P    -1.2278007   -1.2763915   -0.9105050 
P     0.2056366    0.0631137    2.0310467 
H     0.6439616    3.0332202   -0.0517906 
H    -0.6404188    2.2287637   -1.9583586 
C     5.1587270    3.0545734    1.7503195 
C     4.0977012    3.9659474    1.8512536 
C     2.8786823    3.6976839    1.2156550 
C     2.7067089    2.5234356    0.4489574 
C     3.7747619    1.5987943    0.3824284 
C     4.9877832    1.8641799    1.0234447 
H     6.1120079    3.2623342    2.2469894 
H     4.2201579    4.8911521    2.4240256 
H     2.0554769    4.4176170    1.2876634 
H     3.6427962    0.6568181   -0.1615721 
H     5.8026812    1.1355542    0.9667717 
C    -0.4708714   -0.1277907   -6.1693460 
C    -1.4889560    0.5815214   -5.5160639 
C    -1.2645621    1.1117627   -4.2405742 
C    -0.0186654    0.9455892   -3.5918478 
C     0.9913197    0.2121116   -4.2564365 
C     0.7675285   -0.3121040   -5.5322350 
H    -0.6400876   -0.5392676   -7.1696751 
H    -2.4580366    0.7293932   -6.0036268 
H    -2.0606004    1.6727429   -3.7396975 
H     1.9602638    0.0494005   -3.7749050 
H     1.5622701   -0.8738678   -6.0327860 
C    -1.7553722   -1.9900446    1.7740312 
C    -0.4866242   -1.6024530    2.5700781 
C    -1.5230875   -2.6237513    0.3785617 
C    -0.7159048   -1.6914671    4.0880585 
C    -0.4693588   -3.7420552    0.3764279 
C     1.8450889    0.1184201    2.8473987 
C    -0.8668565    1.3039292    2.8608133 
C    -2.9419097   -0.7428645   -1.3114622 
C    -0.5649676   -2.1623793   -2.3768047 
C     2.6969034   -1.0043637    2.7473217 
C    -0.8139328    1.5645051    4.2483653 
C    -3.9629686   -1.6754760   -1.6012092 
C    -1.3301031   -2.4975543   -3.5094686 
C     2.3156158    1.2763686    3.5009641 
C    -1.8315152    1.9712378    2.0773189 
C    -3.2586837    0.6297861   -1.3089444 
C     0.8028288   -2.5174515   -2.3384504 
C     3.9684715   -0.9862424    3.3333748 
C    -1.7043616    2.4782261    4.8276882 
C    -5.2616223   -1.2376401   -1.8930015 
C    -0.7459273   -3.2165842   -4.5623917 
C     3.5876059    1.2870938    4.0882884 
C    -2.7266108    2.8776865    2.6613145 
C    -4.5589928    1.0673251   -1.5958468 
C     1.3757846   -3.2504637   -3.3840894 
C     4.4127558    0.1565438    4.0150045 
C    -2.6618721    3.1344462    4.0382602 
C    -5.5622282    0.1334359   -1.8911490 
C     0.5982050   -3.6090947   -4.4959057 
H    -2.2978096   -2.7426359    2.3766478 
H    -2.4429614   -1.1242794    1.6948083 
H     0.3212868   -2.3080655    2.3108302 
H    -2.4836984   -3.0742194    0.0723220 
H    -0.9520014   -2.7356516    4.3604310 
H    -1.5613491   -1.0585374    4.4063325 
H     0.1830854   -1.3903256    4.6523572 
H    -0.4889145   -4.3072634   -0.5684070 
H     0.5579884   -3.3615352    0.5126261 
H    -0.6799932   -4.4458680    1.2019574 
H     2.3725385   -1.9027586    2.2105231 
H    -0.0750778    1.0607837    4.8781397 
H    -3.7502654   -2.7502426   -1.6074556 
H    -2.3756428   -2.1865594   -3.5841491 
H     1.6923852    2.1730036    3.5534005 
H    -1.8757225    1.7700888    1.0008916 
H    -2.4749700    1.3588540   -1.0805092 
H     1.4200652   -2.2119797   -1.4849256 
H     4.6127795   -1.8682865    3.2577187 
H    -1.6509604    2.6762711    5.9031863 
H    -6.0421487   -1.9709666   -2.1203717 
H    -1.3479342   -3.4651914   -5.4422686 
H     3.9367375    2.1912161    4.5960198 
H    -3.4717518    3.3844759    2.0394358 
H    -4.7877708    2.1380693   -1.5868870 
H     2.4329811   -3.5314815   -3.3366450 
H     5.4050430    0.1693867    4.4771531 
H    -3.3553833    3.8463867    4.4975431 
H    -6.5790329    0.4715569   -2.1155674 
H     1.0452774   -4.1773202   -5.3180391 
