109
Energy =
C     1.9622720    2.8935164    1.4672863 
C     0.6563218    3.4617644    1.6236444 
C    -0.2727712    2.8621319    2.5042767 
H     0.3210305    4.2533778    0.9421012 
Pd    0.4374453    1.3936759    0.9102479 
P    -1.5767464    0.3958291    0.2766351 
P     1.8278025   -0.2973397    0.0888232 
H     2.4138481    2.4195797    2.3498321 
H     0.1423006    2.1872457    3.2700677 
C     4.7834318    3.9636955   -1.6039418 
C     3.4176320    4.2418594   -1.7853433 
C     2.4934099    3.9109252   -0.7905187 
C     2.9136988    3.2965113    0.4140843 
C     4.2899910    3.0256386    0.5827195 
C     5.2141428    3.3556603   -0.4161332 
H     5.5052863    4.2207519   -2.3859093 
H     3.0734397    4.7145037   -2.7113427 
H     1.4292421    4.1128123   -0.9587707 
H     4.6328134    2.5446635    1.5051349 
H     6.2756188    3.1337967   -0.2646830 
C    -4.3400120    3.9653068    3.3221398 
C    -3.5928555    4.7189650    2.4022157 
C    -2.2700041    4.3727527    2.1129524 
C    -1.6627113    3.2651218    2.7477925 
C    -2.4288029    2.5141730    3.6710957 
C    -3.7542945    2.8577386    3.9538572 
H    -5.3753644    4.2425135    3.5454856 
H    -4.0463382    5.5824465    1.9058168 
H    -1.7031209    4.9768313    1.3985793 
H    -1.9733339    1.6510733    4.1687785 
H    -4.3294086    2.2651456    4.6726169 
O    -1.7592676   -3.9817549   -0.4001868 
O     0.2511362   -3.4142094   -2.6847112 
O     1.2345504   -4.4965777    3.0834782 
O    -1.9942940   -0.0260320   -4.8842280 
N    -0.2670115   -4.2525605    1.3403284 
N    -0.8820821   -1.7357060   -3.7925245 
C    -0.0782423   -2.3496843   -0.1699489 
C    -0.6306663   -1.6704863   -1.3704257 
C     1.0682894   -1.9208732    0.5424946 
C    -1.3832462   -0.4724803   -1.3428098 
C    -0.6828095   -3.5510263    0.2850459 
C    -0.4429570   -2.2603500   -2.6478843 
C     1.5245675   -2.6553352    1.6461451 
C    -1.8636715    0.0838772   -2.5364679 
C     2.1262269   -0.3796681   -1.7115024 
C     3.4759939   -0.2689867    0.8992355 
C    -2.3071342   -0.8518260    1.3950321 
C    -2.8372467    1.6888110   -0.0474667 
C     0.8033033   -3.8124399    2.0070112 
C    -1.5628136   -0.5879176   -3.7392668 
C     1.7403547    0.7084190   -2.5179729 
C     4.6808104   -0.3073322    0.1723952 
C    -1.7261252   -1.0487922    2.6638332 
C    -4.1548065    1.6322149    0.4414098 
C     2.7346153   -1.5109440   -2.2956279 
C     3.5222588   -0.1174616    2.3037993 
C    -3.4047705   -1.6422745    0.9955853 
C    -2.4345969    2.7948685   -0.8307100 
C     1.9565504    0.6654327   -3.9014385 
C     5.9102936   -0.2214989    0.8437425 
C    -2.2419008   -2.0206015    3.5304217 
C    -5.0662553    2.6468064    0.1138668 
C     2.9601489   -1.5401222   -3.6772881 
C     4.7513699   -0.0425941    2.9700069 
C    -3.9258692   -2.6019403    1.8730770 
C    -3.3550378    3.7928404   -1.1722366 
C     2.5670146   -0.4570571   -4.4803120 
C     5.9501458   -0.0952984    2.2389910 
C    -3.3452076   -2.7935418    3.1368562 
C    -4.6762808    3.7154875   -0.7053451 
C    -2.3603750   -5.2173855    0.0188588 
C     0.4124952   -4.0489852   -3.9634805 
C     0.5072375   -5.6814170    3.4513240 
C    -1.6847284   -0.7053297   -6.1133696 
H     2.4116131   -2.3828370    2.2197905 
H    -2.4578484    0.9980047   -2.5727611 
H     1.2641883    1.5793930   -2.0559268 
H     4.6646234   -0.3872018   -0.9181240 
H    -0.8513687   -0.4550713    2.9527910 
H    -4.4708961    0.8029382    1.0808777 
H     3.0106287   -2.3693635   -1.6746056 
H     2.5889702   -0.0526219    2.8764953 
H    -3.8345805   -1.5203814   -0.0039980 
H    -1.3968497    2.8631289   -1.1809043 
H     1.6441232    1.5074876   -4.5272521 
H     6.8409240   -0.2478221    0.2675486 
H    -1.7771679   -2.1812426    4.5086021 
H    -6.0884212    2.5979781    0.5028529 
H     3.4359034   -2.4158685   -4.1306509 
H     4.7746032    0.0644432    4.0593975 
H    -4.7802354   -3.2126281    1.5632710 
H    -3.0388807    4.6353558   -1.7960907 
H     2.7368097   -0.4901437   -5.5616920 
H     6.9117487   -0.0298556    2.7582087 
H    -3.7496350   -3.5532525    3.8139566 
H    -5.3969654    4.4969212   -0.9674501 
H    -3.2039494   -5.3751333   -0.6680052 
H    -2.7145113   -5.1434418    1.0606963 
H    -1.6371642   -6.0467891   -0.0568559 
H     0.9420288   -3.3826275   -4.6646732 
H    -0.5688926   -4.3131800   -4.3922753 
H     1.0039049   -4.9538149   -3.7639583 
H    -0.5422241   -5.4365017    3.6894844 
H     0.5235261   -6.4211969    2.6329763 
H     1.0241946   -6.0745858    4.3379105 
H    -0.5924584   -0.7899936   -6.2468296 
H    -2.1247671   -1.7169676   -6.1241008 
H    -2.1249042   -0.0840629   -6.9059806 
