109
Energy =
C     1.8251380    3.2595919    0.4333852 
C     1.1779374    3.3013530    1.7028239 
C     1.4835374    2.3666609    2.7175942 
H     0.3145191    3.9646604    1.8411806 
Pd    0.7965370    1.3100106    0.8099518 
P    -0.4591352   -0.5099745    1.5953369 
P     0.9895855    0.4788461   -1.3747204 
H     2.8612068    2.8944785    0.4053230 
H     2.4264150    1.8037887    2.6235008 
C     0.7225478    5.6989593   -2.9387854 
C    -0.2315583    5.4077781   -1.9486735 
C     0.1150633    4.6199723   -0.8478396 
C     1.4253371    4.1030266   -0.7100541 
C     2.3729833    4.4048735   -1.7125557 
C     2.0252486    5.1962075   -2.8142601 
H     0.4485308    6.3145804   -3.8016912 
H    -1.2522159    5.7934972   -2.0409150 
H    -0.6461306    4.3881281   -0.0942961 
H     3.3906548    4.0095695   -1.6251457 
H     2.7763439    5.4163311   -3.5798970 
C    -0.2433190    2.2590501    6.6484322 
C     0.4511900    1.1482272    6.1432925 
C     1.0118620    1.1950612    4.8641123 
C     0.8754141    2.3475217    4.0562095 
C     0.1757766    3.4598131    4.5786300 
C    -0.3727229    3.4159912    5.8646207 
H    -0.6765868    2.2249305    7.6532163 
H     0.5517067    0.2419876    6.7486823 
H     1.5442357    0.3226500    4.4678185 
H     0.0870836    4.3779799    3.9889836 
H    -0.8984652    4.2909753    6.2606025 
O    -0.8243002   -4.3273695   -0.8309437 
O    -1.9734365   -2.4834832   -2.9528997 
O     3.6942069   -3.9385950   -1.7192070 
O    -5.1490801   -0.1310550   -0.5583549 
N     1.4294457   -4.1453246   -1.2931506 
N    -3.5737466   -1.3309446   -1.7546478 
C     0.0388557   -2.1534615   -1.1073067 
C    -1.3219904   -1.6104254   -0.8644847 
C     1.1723024   -1.3594967   -1.4035303 
C    -1.7183107   -0.9125330    0.3020130 
C     0.2493084   -3.5573065   -1.0941491 
C    -2.3298433   -1.8014530   -1.8477154 
C     2.4180376   -1.9632105   -1.6243659 
C    -3.0249688   -0.4168561    0.4160945 
C    -0.4175332    0.8209004   -2.4915227 
C     2.5093449    1.0983775   -2.2010119 
C     0.4331456   -2.0766152    1.9116764 
C    -1.4494052   -0.1562253    3.1001704 
C     2.4879138   -3.3686801   -1.5392256 
C    -3.9077080   -0.6427070   -0.6594689 
C    -0.5039111    0.2075331   -3.7594254 
C     2.5118156    1.6450650   -3.4972712 
C    -0.2594673   -3.2966041    2.0673673 
C    -2.0093391    1.1340685    3.2187644 
C    -1.4343703    1.6960480   -2.0637126 
C     3.7170784    1.0502726   -1.4687506 
C     1.8390396   -2.0548363    2.0023763 
C    -1.6675144   -1.0993161    4.1233638 
C    -1.5913797    0.4917561   -4.5947443 
C     3.7096100    2.1116781   -4.0604972 
C     0.4531131   -4.4730014    2.3294677 
C    -2.8074550    1.4609511    4.3207755 
C    -2.5270263    1.9633255   -2.8982039 
C     4.9107363    1.5112740   -2.0372597 
C     2.5474870   -3.2390606    2.2482349 
C    -2.4607260   -0.7638204    5.2290498 
C    -2.6031685    1.3655962   -4.1649829 
C     4.9085604    2.0418731   -3.3381778 
C     1.8543050   -4.4468458    2.4159550 
C    -3.0367689    0.5106028    5.3269666 
C    -0.6428247   -5.7519114   -0.8715879 
C    -2.9897762   -2.7243734   -3.9390833 
C     3.7701660   -5.3720112   -1.6326048 
C    -6.0518044   -0.3613182   -1.6538447 
H     3.3197857   -1.4007400   -1.8699874 
H    -3.3825740    0.1204800    1.2961239 
H     0.2637370   -0.5043326   -4.0799714 
H     1.5801893    1.7268701   -4.0638254 
H    -1.3476037   -3.3294849    1.9522849 
H    -1.8078773    1.8856595    2.4454985 
H    -1.3711537    2.1477416   -1.0685358 
H     3.7196238    0.6481787   -0.4478836 
H     2.3746007   -1.1089820    1.8576952 
H    -1.2130923   -2.0922633    4.0680201 
H    -1.6556017    0.0188874   -5.5801685 
H     3.6993165    2.5399347   -5.0680592 
H    -0.0873197   -5.4169736    2.4539697 
H    -3.2348975    2.4648757    4.4034823 
H    -3.3224342    2.6326886   -2.5550534 
H     5.8422583    1.4607303   -1.4641556 
H     3.6407043   -3.2191415    2.3017713 
H    -2.6249169   -1.5033605    6.0196376 
H    -3.4562909    1.5757923   -4.8186036 
H     5.8402177    2.4068377   -3.7824412 
H     2.4071552   -5.3720759    2.6092993 
H    -3.6534600    0.7692742    6.1937485 
H     0.1130574   -6.0702675   -0.1342751 
H    -0.3193996   -6.0732588   -1.8760471 
H    -1.6275681   -6.1755971   -0.6284610 
H    -3.3928609   -1.7721938   -4.3224619 
H    -3.8152315   -3.3165969   -3.5093666 
H    -2.4872457   -3.2849713   -4.7400182 
H     3.4531102   -5.7191774   -0.6341376 
H     3.1286654   -5.8455641   -2.3951340 
H     4.8267645   -5.6169091   -1.8101955 
H    -6.9896081    0.1336207   -1.3648549 
H    -5.6526835    0.0749679   -2.5856629 
H    -6.2147042   -1.4416569   -1.8072390 
