109
Energy =
C     2.2472146    3.0608024    0.6765596 
C     0.9335530    3.5953016    0.8502291 
C     0.1731505    3.3277180    2.0108334 
H     0.4519663    4.1031471    0.0046853 
Pd    0.7752555    1.4031258    0.9347618 
P    -1.2869147    0.2594932    1.0577985 
P     1.8886248   -0.3688727   -0.1010019 
H     2.8652539    2.9209674    1.5755767 
H     0.7255717    3.0289697    2.9157670 
C     4.4111225    3.3410870   -3.0372156 
C     5.0976744    3.2987463   -1.8150975 
C     4.3887172    3.2188255   -0.6104611 
C     2.9776341    3.1798935   -0.6012091 
C     2.2995101    3.2298367   -1.8423212 
C     3.0067344    3.3089727   -3.0462015 
H     4.9662416    3.3940300   -3.9793088 
H     6.1918943    3.3196299   -1.7987421 
H     4.9325506    3.1837070    0.3388947 
H     1.2060356    3.1680796   -1.8698210 
H     2.4591395    3.3222016   -3.9945432 
C    -3.8194084    4.6978624    2.8218052 
C    -3.3748136    4.6129387    1.4917912 
C    -2.0815942    4.1651019    1.2084859 
C    -1.2041376    3.7864683    2.2512080 
C    -1.6706895    3.8637255    3.5829212 
C    -2.9622487    4.3213028    3.8659380 
H    -4.8319649    5.0519182    3.0411100 
H    -4.0407800    4.8975935    0.6706312 
H    -1.7584615    4.1003272    0.1658366 
H    -1.0078110    3.5652689    4.4018060 
H    -3.3021710    4.3770597    4.9047461 
O    -2.2860254   -2.2899947   -2.4831346 
O    -0.1249251   -4.1984777   -1.2738491 
O     0.2097550    0.8220201   -4.8202626 
O    -1.7701364   -4.5080260    3.0337833 
N    -1.0175437   -0.7793118   -3.6816463 
N    -0.9753597   -4.3686304    0.8661332 
C    -0.3536672   -1.4484324   -1.4318966 
C    -0.7432031   -2.1955386   -0.2077839 
C     0.8025425   -0.6420614   -1.5572704 
C    -1.2576820   -1.5849118    0.9619249 
C    -1.2060505   -1.4917527   -2.5698552 
C    -0.6396548   -3.6097371   -0.1780420 
C     1.0000988    0.1325276   -2.7130507 
C    -1.6252619   -2.3691716    2.0630249 
C     3.6274846   -0.1710184   -0.6618021 
C     2.0377329   -1.9608269    0.8095238 
C    -2.2367815    0.6131653    2.5858450 
C    -2.3227630    0.7250865   -0.3854306 
C     0.0394541    0.0362540   -3.7370307 
C    -1.4498428   -3.7645352    1.9585907 
C     4.5445105    0.1761593    0.3533830 
C     1.7141659   -2.0338143    2.1763703 
C    -1.5475893    0.4664163    3.8097973 
C    -3.5442627    0.0672204   -0.6410953 
C     4.1053185   -0.4707464   -1.9513273 
C     2.5721942   -3.0894263    0.1528904 
C    -3.5872880    1.0053451    2.5952061 
C    -1.8673760    1.7159325   -1.2771091 
C     5.9167829    0.2191597    0.0850478 
C     1.8992913   -3.2327922    2.8798600 
C    -2.2157302    0.6558324    5.0255322 
C    -4.3131376    0.4327647   -1.7538166 
C     5.4810151   -0.4032520   -2.2201153 
C     2.7543857   -4.2829141    0.8598015 
C    -4.2466909    1.2110774    3.8159249 
C    -2.6316724    2.0670747   -2.3966572 
C     6.3874957   -0.0633737   -1.2066555 
C     2.4155853   -4.3574564    2.2213389 
C    -3.5706650    1.0226428    5.0293441 
C    -3.8603500    1.4317969   -2.6303925 
C    -3.1427751   -2.3752922   -3.6336372 
C    -0.0156849   -5.6314968   -1.2663278 
C    -0.7711378    0.7255278   -5.8681700 
C    -1.5778070   -5.9302553    2.9376104 
H     1.8423186    0.8150175   -2.8297717 
H    -2.0253653   -1.9488683    2.9870300 
H     4.1775804    0.4022139    1.3620509 
H     1.3043745   -1.1524871    2.6826117 
H    -0.4838878    0.1986921    3.8065726 
H    -3.8813880   -0.7409410    0.0162891 
H     3.4165486   -0.7728227   -2.7448419 
H     2.8359795   -3.0348477   -0.9081861 
H    -4.1235657    1.1655008    1.6558017 
H    -0.8925586    2.1842166   -1.1005624 
H     6.6192475    0.4816691    0.8828519 
H     1.6322068   -3.2884242    3.9399799 
H    -1.6769761    0.5246101    5.9696583 
H    -5.2637575   -0.0757468   -1.9452232 
H     5.8433652   -0.6309800   -3.2279208 
H     3.1665988   -5.1586457    0.3477818 
H    -5.2954959    1.5247950    3.8144836 
H    -2.2597677    2.8255345   -3.0932688 
H     7.4603769   -0.0221320   -1.4211006 
H     2.5606595   -5.2937970    2.7702403 
H    -4.0941007    1.1763737    5.9786189 
H    -4.4612551    1.7056111   -3.5039396 
H    -2.5870718   -2.7639342   -4.5035370 
H    -3.5561880   -1.3840952   -3.8838379 
H    -3.9444638   -3.0695500   -3.3448337 
H    -1.0089164   -6.0971036   -1.1512759 
H     0.6347317   -5.9663956   -0.4408500 
H     0.4240061   -5.8925733   -2.2393235 
H    -0.8085275   -0.2984452   -6.2767993 
H    -1.7725277    0.9953393   -5.4908621 
H    -0.4425479    1.4371460   -6.6386596 
H    -2.1906014   -6.3545278    2.1241919 
H    -0.5171304   -6.1670091    2.7463431 
H    -1.8954988   -6.3313796    3.9102513 
