109
Energy =
C     2.2167243    2.7092231    1.7034296 
C     1.0625316    3.4722813    1.4169956 
C    -0.1965660    3.1697268    2.0139603 
H     1.1048145    4.2027684    0.5988584 
Pd    0.5396330    1.3851341    0.8901652 
P    -1.4655279    0.1715598    0.9656325 
P     1.6639732   -0.1870331   -0.4411265 
H     2.1988917    2.0794077    2.6077406 
H    -0.1870996    2.7441261    3.0270339 
C     6.1416581    3.3839916    0.0958455 
C     5.1769958    4.4006360    0.0226133 
C     3.8921976    4.1898115    0.5341175 
C     3.5520442    2.9583956    1.1400997 
C     4.5400754    1.9502860    1.2231136 
C     5.8185357    2.1576326    0.6984266 
H     7.1452375    3.5487402   -0.3092865 
H     5.4294708    5.3650736   -0.4300544 
H     3.1579200    5.0007630    0.4908714 
H     4.2871821    0.9878909    1.6828698 
H     6.5657448    1.3599307    0.7546876 
C    -3.9133858    5.0476826    0.9197396 
C    -2.8653146    4.9809238   -0.0144043 
C    -1.6531998    4.3770156    0.3303096 
C    -1.4592515    3.8241450    1.6186269 
C    -2.5213928    3.8989178    2.5460960 
C    -3.7349054    4.5063058    2.2004931 
H    -4.8630653    5.5193440    0.6471734 
H    -2.9987090    5.3974165   -1.0182866 
H    -0.8529426    4.3170045   -0.4160367 
H    -2.3915432    3.4713392    3.5460270 
H    -4.5449185    4.5517370    2.9357449 
O    -2.4147826   -2.8694944   -2.1831371 
O    -0.0129244   -4.3538920   -1.0604395 
O    -0.4382302    0.0581001   -5.1621730 
O    -1.0394535   -4.3696815    3.4454038 
N    -1.4194704   -1.4295778   -3.6870122 
N    -0.5414400   -4.3771255    1.1859007 
C    -0.5358675   -1.6664175   -1.4280442 
C    -0.7014372   -2.3153519   -0.1025420 
C     0.4902426   -0.7474687   -1.7549654 
C    -1.1607228   -1.6489884    1.0587032 
C    -1.4477106   -1.9780456   -2.4721805 
C    -0.4332368   -3.7019925    0.0410437 
C     0.5358725   -0.1668313   -3.0304713 
C    -1.2895220   -2.3473554    2.2673922 
C     3.0934138    0.4936376   -1.3710076 
C     2.2494559   -1.7167302    0.3761512 
C    -2.4290899    0.5505571    2.4834245 
C    -2.5913074    0.3815178   -0.4602618 
C    -0.4642736   -0.5343636   -3.9533665 
C    -0.9464249   -3.7148153    2.2728903 
C     2.9883642    1.8207085   -1.8401059 
C     2.3171509   -1.7547188    1.7830863 
C    -1.7339549    0.5632077    3.7137848 
C    -2.3048065    1.3711194   -1.4201781 
C     4.2682323   -0.2386856   -1.6306214 
C     2.6345073   -2.8487852   -0.3738174 
C    -3.8005386    0.8637535    2.4648314 
C    -3.7258190   -0.4430023   -0.6161102 
C     4.0245782    2.3915432   -2.5877114 
C     2.7684892   -2.9101413    2.4357313 
C    -2.4080510    0.8499491    4.9070581 
C    -3.1482084    1.5413989   -2.5253407 
C     5.3060667    0.3403038   -2.3735684 
C     3.1005872   -3.9936929    0.2837620 
C    -4.4704276    1.1573680    3.6625948 
C    -4.5727847   -0.2568294   -1.7155842 
C     5.1848943    1.6505830   -2.8576763 
C     3.1646203   -4.0274394    1.6859671 
C    -3.7813703    1.1456148    4.8828666 
C    -4.2840270    0.7312510   -2.6707081 
C    -3.3196793   -3.2305327   -3.2388762 
C     0.2062118   -5.7693272   -0.9484842 
C    -1.4567889   -0.3163434   -6.1058107 
C    -0.6902854   -5.7646680    3.4556962 
H     1.3090393    0.5412184   -3.3342234 
H    -1.6523421   -1.8878436    3.1877214 
H     2.0919354    2.4083849   -1.6070645 
H     1.9940725   -0.8817951    2.3627066 
H    -0.6587027    0.3461815    3.7343229 
H    -1.4091753    1.9897110   -1.3041353 
H     4.3833920   -1.2559956   -1.2468141 
H     2.5389987   -2.8440807   -1.4642264 
H    -4.3462414    0.8982957    1.5179296 
H    -3.9314890   -1.2389440    0.1071467 
H     3.9341337    3.4224647   -2.9433278 
H     2.8042246   -2.9395899    3.5294670 
H    -1.8614394    0.8474512    5.8556930 
H    -2.9127085    2.3016574   -3.2769901 
H     6.2156693   -0.2364885   -2.5704336 
H     3.4031206   -4.8684108   -0.3010473 
H    -5.5366900    1.4044028    3.6359627 
H    -5.4551045   -0.8942891   -1.8337575 
H     5.9995646    2.1004485   -3.4342576 
H     3.5189881   -4.9297562    2.1951808 
H    -4.3089757    1.3742188    5.8145148 
H    -4.9444812    0.8650446   -3.5339579 
H    -4.0139374   -3.9542848   -2.7888499 
H    -2.7721677   -3.6886949   -4.0797358 
H    -3.8633658   -2.3437867   -3.6052897 
H     0.5420206   -6.0892231   -1.9450777 
H    -0.7277911   -6.2856893   -0.6694909 
H     0.9749853   -5.9861970   -0.1880880 
H    -1.4064899   -1.3954988   -6.3296116 
H    -2.4597745   -0.0806804   -5.7102694 
H    -1.2471076    0.2755877   -7.0078044 
H    -1.3404437   -6.3367964    2.7721444 
H     0.3607174   -5.9052740    3.1497890 
H    -0.8382946   -6.0922417    4.4943036 
