109
Energy =
C     2.2266109    2.7163808    1.6779005 
C     1.0764845    3.4817927    1.3818678 
C    -0.1850893    3.1910985    1.9796947 
H     1.1235918    4.2037654    0.5564562 
Pd    0.5442491    1.3919591    0.8755779 
P    -1.4648326    0.1858265    0.9638715 
P     1.6630873   -0.1977900   -0.4392544 
H     2.2042000    2.0954616    2.5882404 
H    -0.1793360    2.7761138    2.9971827 
C     6.1563575    3.3549800    0.0673956 
C     5.1975618    4.3764607   -0.0150918 
C     3.9112775    4.1772881    0.4973042 
C     3.5638421    2.9531354    1.1138058 
C     4.5461306    1.9402648    1.2063058 
C     5.8259732    2.1357695    0.6804446 
H     7.1610185    3.5103871   -0.3387381 
H     5.4558544    5.3355996   -0.4756614 
H     3.1813965    4.9917548    0.4462746 
H     4.2877447    0.9834692    1.6746054 
H     6.5686383    1.3343888    0.7441129 
C    -3.8911817    5.0753344    0.8601850 
C    -2.8406092    4.9975397   -0.0702602 
C    -1.6320499    4.3910617    0.2824033 
C    -1.4439417    3.8474036    1.5754857 
C    -2.5084207    3.9336100    2.4993258 
C    -3.7185922    4.5428998    2.1455019 
H    -4.8382384    5.5485223    0.5812213 
H    -2.9691824    5.4075326   -1.0774434 
H    -0.8300761    4.3219950   -0.4613352 
H    -2.3829762    3.5136272    3.5030334 
H    -4.5305490    4.5970825    2.8780232 
O    -2.4250363   -2.8831796   -2.1552989 
O    -0.0295098   -4.3650744   -1.0171624 
O    -0.4414502    0.0125585   -5.1606273 
O    -1.0545780   -4.3316924    3.4888890 
N    -1.4261149   -1.4594554   -3.6720880 
N    -0.5569708   -4.3635394    1.2295253 
C    -0.5421887   -1.6790862   -1.4115019 
C    -0.7097913   -2.3143490   -0.0796372 
C     0.4867675   -0.7664951   -1.7472360 
C    -1.1662393   -1.6347083    1.0750325 
C    -1.4554045   -1.9972175   -2.4524833 
C    -0.4466981   -3.7004614    0.0778256 
C     0.5336471   -0.1973350   -3.0278346 
C    -1.2977687   -2.3204243    2.2906246 
C     3.0947637    0.4686207   -1.3762573 
C     2.2430210   -1.7214746    0.3929421 
C    -2.4259644    0.5835419    2.4784435 
C    -2.5911506    0.3853929   -0.4630170 
C    -0.4683865   -0.5695352   -3.9468301 
C    -0.9594644   -3.6889764    2.3098572 
C     4.2660980   -0.2710420   -1.6307082 
C     2.3105599   -1.7458924    1.8001886 
C    -3.7966062    0.9001395    2.4576980 
C    -2.3040379    1.3667062   -1.4311803 
C     2.9951315    1.7921393   -1.8563971 
C     2.6236371   -2.8623940   -0.3457845 
C    -1.7295118    0.6081550    3.7078650 
C    -3.7271845   -0.4385026   -0.6109962 
C     5.3058382    0.2971106   -2.3793443 
C     2.7574454   -2.8965476    2.4642093 
C    -4.4642426    1.2099979    3.6526256 
C    -3.1485071    1.5296449   -2.5366362 
C     4.0331656    2.3520823   -2.6097356 
C     3.0850293   -4.0026532    0.3230623 
C    -2.4013157    0.9113549    4.8983560 
C    -4.5749834   -0.2598467   -1.7110444 
C     5.1899207    1.6037469   -2.8745032 
C     3.1489574   -4.0228209    1.7255309 
C    -3.7736967    1.2112070    4.8721226 
C    -4.2858191    0.7202613   -2.6742384 
C    -3.3313065   -3.2508876   -3.2075881 
C     0.1837653   -5.7802394   -0.8912063 
C    -1.4620682   -0.3665378   -6.1001990 
C    -0.7099944   -5.7276627    3.5131728 
H     1.3090015    0.5053980   -3.3383079 
H    -1.6595087   -1.8504424    3.2060929 
H     4.3773010   -1.2855180   -1.2383423 
H     1.9905860   -0.8661812    2.3712150 
H    -4.3434383    0.9243030    1.5111159 
H    -1.4072810    1.9847555   -1.3211305 
H     2.1016572    2.3858399   -1.6272946 
H     2.5280220   -2.8681854   -1.4361819 
H    -0.6549218    0.3880137    3.7298154 
H    -3.9332728   -1.2283745    0.1187737 
H     6.2127902   -0.2852610   -2.5719533 
H     2.7931871   -2.9152809    3.5581764 
H    -5.5298710    1.4595699    3.6243009 
H    -2.9126948    2.2836032   -3.2945002 
H     3.9469109    3.3803512   -2.9739713 
H     3.3837047   -4.8844242   -0.2530710 
H    -1.8536014    0.9186879    5.8463278 
H    -5.4584775   -0.8967739   -1.8231535 
H     6.0057768    2.0449384   -3.4560915 
H     3.4995234   -4.9215516    2.2436365 
H    -4.2993851    1.4531418    5.8014817 
H    -4.9474595    0.8487853   -3.5373835 
H    -2.7853083   -3.7174463   -4.0447925 
H    -3.8729867   -2.3659139   -3.5811838 
H    -4.0271309   -3.9690891   -2.7511294 
H    -0.7522150   -6.2897882   -0.6063777 
H     0.9521920   -5.9927159   -0.1292250 
H     0.5174731   -6.1114609   -1.8847945 
H    -1.4155906   -1.4477280   -6.3147787 
H    -2.4638939   -0.1240981   -5.7058201 
H    -1.2511812    0.2169856   -7.0073705 
H    -1.3621478   -6.3044538    2.8354681 
H     0.3404835   -5.8747677    3.2085402 
H    -0.8589438   -6.0442624    4.5550382 
