109
Energy =
C     2.1376453    2.8124696    1.3735814 
C     0.8968981    3.2204830    1.9626008 
C     0.2781792    2.4064856    2.9388981 
H     0.3457421    4.0696479    1.5396767 
Pd    0.5994461    1.2734575    0.9863741 
P    -1.4580018    0.1959769    0.7417152 
P     1.7954282   -0.1304252   -0.4515323 
H     2.8388921    2.2565230    2.0111374 
H     0.9224929    1.6671453    3.4414058 
C     3.9441869    4.6061602   -2.0985384 
C     4.7160781    3.8676906   -1.1902908 
C     4.1213168    3.3014436   -0.0561530 
C     2.7399059    3.4611599    0.1932030 
C     1.9729590    4.2091043   -0.7328247 
C     2.5689447    4.7759521   -1.8628384 
H     4.4084051    5.0482998   -2.9860011 
H     5.7881092    3.7284877   -1.3644589 
H     4.7293883    2.7207758    0.6458068 
H     0.8947386    4.3312792   -0.5773873 
H     1.9591716    5.3496362   -2.5688534 
C    -3.4615981    2.9709494    4.9702720 
C    -3.0344543    3.9266619    4.0339261 
C    -1.8252561    3.7589432    3.3532288 
C    -1.0110533    2.6305604    3.6035615 
C    -1.4553545    1.6754269    4.5489389 
C    -2.6690088    1.8410289    5.2232557 
H    -4.4092666    3.1085233    5.5009831 
H    -3.6500507    4.8087951    3.8325743 
H    -1.5076124    4.5182236    2.6327069 
H    -0.8371059    0.7942613    4.7518692 
H    -2.9942024    1.0914121    5.9518761 
O    -1.5946013   -4.0256460   -0.5854714 
O    -0.3204534   -2.9375391   -3.1962091 
O     2.2677994   -4.7617507    1.8451152 
O    -3.2501433    0.5144572   -4.1236549 
N     0.3327377   -4.4078488    0.6269058 
N    -1.7973563   -1.2271391   -3.6672554 
C     0.0003010   -2.2946479   -0.5403291 
C    -0.8955637   -1.5010207   -1.4209849 
C     1.2758142   -1.8688056   -0.0953542 
C    -1.6721906   -0.3978012   -0.9945394 
C    -0.3935279   -3.6012695   -0.1485019 
C    -1.0355236   -1.8731493   -2.7836973 
C     2.0563131   -2.7114645    0.7086224 
C    -2.4889864    0.2826668   -1.9082620 
C     1.5884823    0.0868056   -2.2534054 
C     3.5996303   -0.0653416   -0.1129926 
C    -1.7902231   -1.2676462    1.7850975 
C    -2.8210001    1.4000114    0.9830246 
C     1.5221567   -3.9715266    1.0499255 
C    -2.4946758   -0.1697414   -3.2438557 
C     2.0680542   -0.8814224   -3.1610746 
C     4.5570486    0.1207963   -1.1279118 
C    -2.9175928   -2.0861982    1.5656020 
C    -3.9509631    1.1489853    1.7819761 
C     0.9421381    1.2427633   -2.7321339 
C     4.0243064   -0.1216588    1.2340261 
C    -0.8702992   -1.5990688    2.8001805 
C    -2.7015163    2.6437654    0.3213018 
C     1.9059322   -0.6809368   -4.5373767 
C     5.9180577    0.2224660   -0.8008341 
C    -3.1292502   -3.2094117    2.3757504 
C    -4.9654561    2.1125978    1.8807099 
C     0.7712684    1.4290885   -4.1100961 
C     5.3841114   -0.0302479    1.5544094 
C    -1.0789103   -2.7324278    3.5960401 
C    -3.7273825    3.5924993    0.4067016 
C     1.2540081    0.4690268   -5.0117997 
C     6.3352798    0.1417625    0.5346826 
C    -2.2118336   -3.5341590    3.3876757 
C    -4.8659686    3.3239129    1.1820792 
C    -1.9948658   -5.3594096   -0.2325178 
C    -0.4853006   -3.3570699   -4.5604109 
C     1.7295314   -6.0489933    2.1937521 
C    -3.2564287    0.0577628   -5.4873080 
H     3.0526133   -2.4438321    1.0633593 
H    -3.1162320    1.1312058   -1.6318146 
H     2.5465679   -1.7937308   -2.7903744 
H     4.2444054    0.2033632   -2.1726353 
H    -3.6136499   -1.8560537    0.7523280 
H    -4.0398420    0.2077316    2.3321878 
H     0.5693305    1.9859070   -2.0195457 
H     3.2834494   -0.2321791    2.0353367 
H     0.0220312   -0.9785998    2.9404397 
H    -1.8034936    2.8590820   -0.2715621 
H     2.2815948   -1.4297398   -5.2423593 
H     6.6534006    0.3719787   -1.5981340 
H    -4.0070203   -3.8418580    2.2070763 
H    -5.8392583    1.9114104    2.5088097 
H     0.2573153    2.3226309   -4.4785705 
H     5.7018855   -0.0858368    2.6006891 
H    -0.3525512   -2.9955453    4.3717848 
H    -3.6346328    4.5448493   -0.1256166 
H     1.1216031    0.6153321   -6.0890021 
H     7.3982699    0.2204374    0.7845095 
H    -2.3768128   -4.4195912    4.0105328 
H    -5.6678286    4.0659574    1.2538220 
H    -2.9864829   -5.4927318   -0.6877298 
H    -2.0509810   -5.4709653    0.8632395 
H    -1.2808094   -6.0984968   -0.6331705 
H    -0.2024734   -2.5473562   -5.2535811 
H    -1.5324270   -3.6449426   -4.7539751 
H     0.1821938   -4.2223746   -4.6789067 
H     0.7764021   -5.9381972    2.7390878 
H     1.5546256   -6.6584347    1.2908804 
H     2.4902098   -6.5168416    2.8343756 
H    -2.2399383    0.0960297   -5.9152811 
H    -3.6320904   -0.9775577   -5.5525552 
H    -3.9272957    0.7463853   -6.0199601 
