109
Energy =
C     1.7860658    3.2853167    0.4003363 
C     1.1758424    3.3087870    1.6885114 
C     1.5257756    2.3720341    2.6868758 
H     0.3068697    3.9577665    1.8569613 
Pd    0.8001298    1.3173606    0.7929388 
P    -0.4046127   -0.5271462    1.6023419 
P     0.9393498    0.5039117   -1.4024380 
H     2.8266544    2.9372789    0.3398466 
H     2.4739061    1.8244938    2.5605186 
C     0.5466070    5.7311958   -2.9190699 
C    -0.3750501    5.4121724   -1.9070382 
C     0.0160736    4.6216276   -0.8231841 
C     1.3394840    4.1298177   -0.7248389 
C     2.2539521    4.4588830   -1.7493294 
C     1.8616977    5.2530683   -2.8338974 
H     0.2377334    6.3489729   -3.7685519 
H    -1.4051749    5.7783468   -1.9687182 
H    -0.7201105    4.3674011   -0.0522570 
H     3.2811398    4.0829769   -1.6926169 
H     2.5876927    5.4946722   -3.6170317 
C    -0.0800017    2.2114839    6.6669390 
C     0.6111785    1.1128740    6.1313983 
C     1.1323071    1.1768032    4.8363429 
C     0.9584634    2.3342962    4.0429367 
C     0.2625082    3.4340718    4.5957828 
C    -0.2460149    3.3733543    5.8974738 
H    -0.4822982    2.1640290    7.6839816 
H     0.7400207    0.2027898    6.7255186 
H     1.6621994    0.3138907    4.4166393 
H     0.1456704    4.3559602    4.0169583 
H    -0.7687022    4.2391682    6.3169745 
O    -0.7728494   -4.3367206   -0.8323744 
O    -2.0165750   -2.5033291   -2.9107588 
O     3.7108773   -3.8630294   -1.8464201 
O    -5.1603741   -0.2165048   -0.4130293 
N     1.4631618   -4.1122813   -1.3575388 
N    -3.6006197   -1.3841913   -1.6603982 
C     0.0431436   -2.1464469   -1.1226458 
C    -1.3194993   -1.6290494   -0.8376365 
C     1.1534295   -1.3309033   -1.4469867 
C    -1.6936738   -0.9443668    0.3438247 
C     0.2788744   -3.5463773   -1.1223682 
C    -2.3521155   -1.8328041   -1.7921541 
C     2.4028070   -1.9113564   -1.7062974 
C    -3.0046458   -0.4716880    0.4985580 
C    -0.5082641    0.8272467   -2.4721074 
C     2.4209302    1.1559893   -2.2718783 
C     0.5218225   -2.0803111    1.8852800 
C    -1.3572917   -0.1965653    3.1365409 
C     2.5001981   -3.3157051   -1.6297809 
C    -3.9142095   -0.7069934   -0.5523820 
C    -0.6219275    0.2232106   -3.7423609 
C     2.3715575    1.7150092   -3.5619537 
C    -0.1456422   -3.3126756    2.0526377 
C    -1.9300308    1.0855344    3.2799785 
C    -1.5286278    1.6778665   -2.0048968 
C     3.6526245    1.1225002   -1.5797546 
C     1.9290324   -2.0348627    1.9393352 
C    -1.5347772   -1.1494215    4.1585327 
C    -1.7406332    0.4922015   -4.5406862 
C     3.5420589    2.2076999   -4.1593178 
C     0.5934483   -4.4777874    2.2906681 
C    -2.7000143    1.3949695    4.4067729 
C    -2.6520297    1.9299509   -2.8024695 
C     4.8190109    1.6090910   -2.1825554 
C     2.6636588   -3.2077185    2.1616856 
C    -2.3001065   -0.8314687    5.2887818 
C    -2.7558238    1.3415635   -4.0716499 
C     4.7651714    2.1514711   -3.4774971 
C     1.9957200   -4.4278859    2.3416950 
C    -2.8885935    0.4350332    5.4123238 
C    -0.5670489   -5.7575960   -0.8845084 
C    -3.0571373   -2.7572992   -3.8679855 
C     3.8150604   -5.2951937   -1.7682052 
C    -6.0906805   -0.4573031   -1.4828900 
H     3.2869692   -1.3319088   -1.9751819 
H    -3.3454091    0.0550110    1.3916098 
H     0.1496340   -0.4697551   -4.0934231 
H     1.4205879    1.7861817   -4.0968952 
H    -1.2356563   -3.3637449    1.9652751 
H    -1.7605370    1.8446257    2.5063906 
H    -1.4437764    2.1216925   -1.0077930 
H     3.6955960    0.7116969   -0.5632850 
H     2.4444521   -1.0794396    1.7848868 
H    -1.0700185   -2.1362114    4.0830381 
H    -1.8263667    0.0262243   -5.5277502 
H     3.4912404    2.6456013   -5.1614718 
H     0.0725905   -5.4314278    2.4244867 
H    -3.1369932    2.3929682    4.5089912 
H    -3.4496032    2.5799357   -2.4285099 
H     5.7695014    1.5696325   -1.6405930 
H     3.7573908   -3.1692239    2.1874516 
H    -2.4324204   -1.5783623    6.0784256 
H    -3.6331293    1.5397511   -4.6963569 
H     5.6754990    2.5362458   -3.9484697 
H     2.5690427   -5.3442135    2.5169945 
H    -3.4835681    0.6799611    6.2980647 
H     0.2154305   -6.0649773   -0.1706880 
H    -0.2670168   -6.0691113   -1.8992658 
H    -1.5365882   -6.1999388   -0.6149512 
H    -3.8599832   -3.3644852   -3.4168817 
H    -2.5690620   -3.3066379   -4.6854771 
H    -3.4866304   -1.8104387   -4.2355640 
H     3.5324965   -5.6518647   -0.7627549 
H     3.1610269   -5.7773280   -2.5145340 
H     4.8704895   -5.5201844   -1.9763944 
H    -5.7266211   -0.0097464   -2.4236883 
H    -6.2393211   -1.5395773   -1.6370755 
H    -7.0279997    0.0198887   -1.1640421 
