109
Energy =
C     2.2954573    2.6263952    1.7250123 
C     1.1624634    3.4250648    1.4515767 
C    -0.1035703    3.1501949    2.0474740 
H     1.2233685    4.1643245    0.6425192 
Pd    0.5793020    1.3606303    0.8994344 
P    -1.4565123    0.1992748    0.9723914 
P     1.6558045   -0.2261490   -0.4527262 
H     2.2622794    1.9854172    2.6209654 
H    -0.1040353    2.7122013    3.0552750 
C     6.2339432    3.2119417    0.1156091 
C     5.2980411    4.2561105    0.0582954 
C     4.0089343    4.0746283    0.5701839 
C     3.6357278    2.8453626    1.1608854 
C     4.5951323    1.8087817    1.2277282 
C     5.8777600    1.9871486    0.7025288 
H     7.2408992    3.3538908   -0.2897839 
H     5.5766120    5.2191252   -0.3819417 
H     3.2974823    4.9062209    0.5393601 
H     4.3162943    0.8477617    1.6752233 
H     6.6024451    1.1681539    0.7464157 
C    -3.7678621    5.1463624    0.9857504 
C    -2.7236930    5.0625045    0.0486361 
C    -1.5285721    4.4199564    0.3826966 
C    -1.3480642    3.8448359    1.6632167 
C    -2.4061918    3.9369603    2.5937298 
C    -3.6026665    4.5828868    2.2587470 
H    -4.7042944    5.6482626    0.7214708 
H    -2.8469333    5.4960044   -0.9493378 
H    -0.7315904    4.3475740   -0.3660664 
H    -2.2867130    3.4925183    3.5875774 
H    -4.4098947    4.6412282    2.9961597 
O    -2.4989963   -2.7819153   -2.2054651 
O    -0.1327612   -4.3405601   -1.1093094 
O    -0.4634326    0.1314453   -5.1585362 
O    -1.1446688   -4.3795034    3.3997295 
N    -1.4746957   -1.3491807   -3.6966461 
N    -0.6545343   -4.3748871    1.1384931 
C    -0.5864054   -1.6362459   -1.4453940 
C    -0.7633661   -2.2952717   -0.1263630 
C     0.4617074   -0.7404846   -1.7668307 
C    -1.1999418   -1.6297027    1.0441034 
C    -1.5109748   -1.9117529   -2.4885241 
C    -0.5319762   -3.6900873    0.0008424 
C     0.5159707   -0.1455090   -3.0353619 
C    -1.3428755   -2.3377580    2.2455505 
C     3.0993800    0.4263709   -1.3810602 
C     2.2036994   -1.7791500    0.3465416 
C    -2.4018447    0.5871311    2.4994403 
C    -2.5839244    0.4541692   -0.4447435 
C    -0.4982325   -0.4754468   -3.9571277 
C    -1.0375193   -3.7141121    2.2343614 
C     4.2526450   -0.3345724   -1.6546817 
C     2.2761938   -1.8329546    1.7527422 
C    -3.7647135    0.9362259    2.4914330 
C    -2.2779979    1.4480848   -1.3941981 
C     3.0291631    1.7617271   -1.8328342 
C     2.5555326   -2.9135473   -0.4161310 
C    -1.7002689    0.5691321    3.7260449 
C    -3.7391979   -0.3402797   -0.6043836 
C     5.3035061    0.2253226   -2.3939438 
C     2.6993379   -3.0063395    2.3920709 
C    -4.4203674    1.2355908    3.6956426 
C    -3.1226546    1.6524954   -2.4926665 
C     4.0783391    2.3136991   -2.5765616 
C     2.9935904   -4.0769376    0.2281787 
C    -2.3602440    0.8620930    4.9256809 
C    -4.5868198   -0.1201908   -1.6970751 
C     5.2169495    1.5447548   -2.8603275 
C     3.0624827   -4.1263034    1.6296983 
C    -3.7253581    1.1941863    4.9118952 
C    -4.2787306    0.8721562   -2.6417390 
C    -3.4179484   -3.1066301   -3.2608468 
C     0.0490015   -5.7624996   -1.0138619 
C    -1.4963106   -0.2047825   -6.1009955 
C    -0.8340073   -5.7836002    3.3929562 
H     1.3055784    0.5461995   -3.3344143 
H    -1.6893393   -1.8787826    3.1724511 
H     4.3412197   -1.3595046   -1.2843534 
H     1.9787362   -0.9576003    2.3423303 
H    -4.3142582    0.9943771    1.5478967 
H    -1.3668619    2.0431146   -1.2754266 
H     2.1497940    2.3705543   -1.5893586 
H     2.4554894   -2.8956225   -1.5059675 
H    -0.6310800    0.3234406    3.7386711 
H    -3.9608303   -1.1394792    0.1105128 
H     6.1961788   -0.3736837   -2.6016976 
H     2.7388890   -3.0474394    3.4853048 
H    -5.4799694    1.5104763    3.6772945 
H    -2.8725098    2.4160220   -3.2362281 
H     4.0151855    3.3513590   -2.9182307 
H     3.2701441   -4.9536045   -0.3664834 
H    -1.8088636    0.8360352    5.8712071 
H    -5.4849718   -0.7345432   -1.8182622 
H     6.0418541    1.9795945   -3.4338825 
H     3.3948605   -5.0426990    2.1284886 
H    -4.2417663    1.4277549    5.8485701 
H    -4.9401687    1.0327580   -3.4996379 
H    -2.8863319   -3.5676261   -4.1103081 
H    -3.9409148   -2.2018877   -3.6131185 
H    -4.1278922   -3.8184468   -2.8162867 
H    -0.8977294   -6.2569896   -0.7381242 
H     0.8136041   -6.0082759   -0.2580701 
H     0.3736834   -6.0798953   -2.0149296 
H    -1.4747113   -1.2818861   -6.3388490 
H    -2.4907725    0.0511919   -5.6966667 
H    -1.2765139    0.3932338   -6.9965472 
H    -1.5022800   -6.3298230    2.7056911 
H     0.2115524   -5.9495751    3.0811946 
H    -0.9870876   -6.1187003    4.4284257 
