109
Energy =
C     1.8668060    2.9750845    1.4287956 
C     0.5431971    3.5061379    1.5656286 
C    -0.3743260    2.8952615    2.4506294 
H     0.1890256    4.2742982    0.8670543 
Pd    0.3913803    1.4195034    0.8894145 
P    -1.5879195    0.3540891    0.2569748 
P     1.8359723   -0.2452578    0.1082975 
H     2.3263989    2.5309485    2.3226086 
H     0.0544332    2.2471941    3.2319116 
C     4.6750926    4.0709653   -1.6452307 
C     5.1151499    3.4920742   -0.4463259 
C     4.1947735    3.1542039    0.5533676 
C     2.8127835    3.3867688    0.3740778 
C     2.3830883    3.9720421   -0.8416731 
C     3.3035928    4.3114086   -1.8371293 
H     5.3940856    4.3346843   -2.4276110 
H     6.1810796    3.2991332   -0.2867848 
H     4.5452636    2.6974487    1.4851431 
H     1.3151281    4.1450423   -1.0178122 
H     2.9521247    4.7611598   -2.7717564 
C    -4.4790996    3.8910247    3.2174663 
C    -3.8665583    2.8114899    3.8718778 
C    -2.5290758    2.5028664    3.6057729 
C    -1.7775386    3.2609500    2.6763663 
C    -2.4116238    4.3397907    2.0186139 
C    -3.7464779    4.6515469    2.2915353 
H    -5.5240051    4.1411748    3.4279270 
H    -4.4303480    2.2134373    4.5950715 
H    -2.0526746    1.6619989    4.1215647 
H    -1.8566868    4.9486098    1.2989456 
H    -4.2206763    5.4934818    1.7777816 
O    -1.6429977   -4.0371267   -0.3392588 
O     0.3709737   -3.4555692   -2.6201714 
O     1.3309772   -4.3993450    3.1805423 
O    -1.9483564   -0.1708477   -4.8985780 
N    -0.1597826   -4.2321740    1.4191119 
N    -0.7987487   -1.8292051   -3.7672102 
C    -0.0094134   -2.3551715   -0.1274769 
C    -0.5703839   -1.7139941   -1.3447693 
C     1.1183539   -1.8808566    0.5861486 
C    -1.3563060   -0.5372405   -1.3448640 
C    -0.5848855   -3.5635746    0.3462929 
C    -0.3552216   -2.3210598   -2.6097620 
C     1.5847403   -2.5805945    1.7080165 
C    -1.8414708   -0.0156812   -2.5522101 
C     2.1518894   -0.3503924   -1.6877260 
C     3.4759155   -0.1555233    0.9308055 
C    -2.2944846   -0.8928108    1.3915117 
C    -2.8798515    1.6063551   -0.1015018 
C     0.8917851   -3.7494497    2.0861761 
C    -1.5114828   -0.7000432   -3.7402040 
C     1.7462361    0.7143516   -2.5153595 
C     4.6871993   -0.1732133    0.2140011 
C    -1.7197204   -1.0516312    2.6684992 
C    -2.4993599    2.7092847   -0.9000757 
C     2.7945115   -1.4750194   -2.2475363 
C     3.5062988    0.0240265    2.3325095 
C    -3.3674502   -1.7189883    0.9973054 
C    -4.2002255    1.5224413    0.3756679 
C     1.9766188    0.6545232   -3.8959312 
C     5.9081869   -0.0387978    0.8928492 
C    -2.2178479   -2.0207226    3.5483854 
C    -3.4428076    3.6761082   -1.2674192 
C     3.0337245   -1.5208092   -3.6264398 
C     4.7272785    0.1473136    3.0064128 
C    -3.8713464   -2.6758696    1.8878204 
C    -5.1352486    2.5064308    0.0222193 
C     2.6207118   -0.4613252   -4.4507123 
C     5.9329583    0.1155900    2.2856164 
C    -3.2974208   -2.8289857    3.1599192 
C    -4.7659264    3.5713511   -0.8113152 
C    -2.2137958   -5.2804306    0.0990203 
C     0.5612842   -4.1080121   -3.8860082 
C     0.6322586   -5.5956365    3.5663971 
C    -1.6094341   -0.8630522   -6.1126737 
H     2.4588911   -2.2725171    2.2833857 
H    -2.4605305    0.8806400   -2.6096541 
H     1.2446040    1.5806925   -2.0718918 
H     4.6821003   -0.2745167   -0.8748548 
H    -0.8631693   -0.4302399    2.9537941 
H    -1.4603932    2.7994620   -1.2415913 
H     3.0865341   -2.3157517   -1.6098969 
H     2.5668657    0.0727121    2.8966553 
H    -3.7913932   -1.6264172   -0.0079315 
H    -4.5003330    0.6958562    1.0262316 
H     1.6493047    1.4782960   -4.5382511 
H     6.8438871   -0.0492257    0.3244195 
H    -1.7575873   -2.1518090    4.5330656 
H    -3.1434002    4.5158689   -1.9031392 
H     3.5363784   -2.3910408   -4.0609887 
H     4.7386298    0.2755386    4.0936954 
H    -4.7066763   -3.3142620    1.5819976 
H    -6.1596350    2.4364250    0.4020042 
H     2.8014521   -0.5076242   -5.5298354 
H     6.8879849    0.2193869    2.8107004 
H    -3.6883262   -3.5862288    3.8476442 
H    -5.5044909    4.3288898   -1.0930747 
H    -3.0458163   -5.4752942   -0.5923914 
H    -2.5802519   -5.1956004    1.1357377 
H    -1.4671851   -6.0906816    0.0469236 
H     1.1758908   -4.9922662   -3.6654515 
H     1.0782414   -3.4395389   -4.5945544 
H    -0.4085227   -4.4070980   -4.3182276 
H    -0.4255997   -5.3743098    3.7900585 
H     0.6760736   -6.3513261    2.7637344 
H     1.1511748   -5.9564672    4.4655021 
H    -0.5141172   -0.9193121   -6.2358095 
H    -2.0208442   -1.8867204   -6.1086039 
H    -2.0600398   -0.2687043   -6.9199297 
