109
Energy =
C     2.2539485    3.0607682    0.6583558 
C     0.9415876    3.5974020    0.8351568 
C     0.1851332    3.3345821    1.9994386 
H     0.4574190    4.1029482   -0.0102863 
Pd    0.7811148    1.4057505    0.9283807 
P    -1.2821072    0.2648639    1.0628239 
P     1.8892070   -0.3711851   -0.1045713 
H     2.8752069    2.9230017    1.5554707 
H     0.7405876    3.0384219    2.9033689 
C     4.4036407    3.3267415   -3.0647412 
C     5.0949462    3.2860924   -1.8452295 
C     4.3906324    3.2105559   -0.6376017 
C     2.9795139    3.1743425   -0.6226627 
C     2.2965851    3.2219085   -1.8612417 
C     2.9991935    3.2967530   -3.0681066 
H     4.9550989    3.3767445   -4.0091420 
H     6.1892619    3.3046296   -1.8332526 
H     4.9381441    3.1771573    0.3096875 
H     1.2029401    3.1614695   -1.8843256 
H     2.4478997    3.3086500   -4.0143236 
C    -3.8028457    4.7123286    2.8199821 
C    -3.3632358    4.6219597    1.4886708 
C    -2.0716536    4.1713654    1.2022765 
C    -1.1908096    3.7956066    2.2431830 
C    -1.6523326    3.8784470    3.5763159 
C    -2.9423105    4.3386058    3.8623594 
H    -4.8142426    5.0682165    3.0416664 
H    -4.0317308    4.9048177    0.6689408 
H    -1.7525172    4.1020015    0.1586847 
H    -0.9865890    3.5827891    4.3938919 
H    -3.2784570    4.3983601    4.9021752 
O    -2.2943216   -2.2969499   -2.4674244 
O    -0.1359365   -4.2024919   -1.2591280 
O     0.1966056    0.8049812   -4.8229686 
O    -1.7714627   -4.4961660    3.0533017 
N    -1.0282558   -0.7916227   -3.6751309 
N    -0.9818691   -4.3646901    0.8832497 
C    -0.3586686   -1.4525314   -1.4245461 
C    -0.7458509   -2.1949983   -0.1968275 
C     0.7978558   -0.6475386   -1.5563108 
C    -1.2558676   -1.5798977    0.9725227 
C    -1.2141907   -1.4995826   -2.5600523 
C    -0.6462537   -3.6094277   -0.1635883 
C     0.9923114    0.1229869   -2.7153361 
C    -1.6224353   -2.3602287    2.0767552 
C     3.6266501   -0.1759651   -0.6708462 
C     2.0388299   -1.9610433    0.8093481 
C    -2.2265605    0.6248659    2.5926760 
C    -2.3219553    0.7265258   -0.3788932 
C     0.0288548    0.0233640   -3.7363343 
C    -1.4515772   -3.7563804    1.9754259 
C     4.5469551    0.1699848    0.3418653 
C     1.7188881   -2.0307367    2.1772177 
C    -1.5339303    0.4804737    3.8149688 
C    -3.5449045    0.0689910   -0.6284344 
C     4.1003784   -0.4737128   -1.9623032 
C     2.5681541   -3.0922499    0.1530632 
C    -3.5762396    1.0198341    2.6049339 
C    -1.8675521    1.7125783   -1.2763875 
C     5.9182713    0.2143732    0.0689641 
C     1.9011227   -3.2294958    2.8818126 
C    -2.1980282    0.6747983    5.0321404 
C    -4.3155619    0.4294467   -1.7415940 
C     5.4751548   -0.4050333   -2.2355737 
C     2.7481588   -4.2853048    0.8612802 
C    -4.2315467    1.2304658    3.8270232 
C    -2.6338153    2.0588236   -2.3961226 
C     6.3848191   -0.0658550   -1.2247724 
C     2.4117404   -4.3569285    2.2235517 
C    -3.5522540    1.0441837    5.0389498 
C    -3.8634213    1.4233231   -2.6243412 
C    -3.1537539   -2.3869018   -3.6155420 
C    -0.0318756   -5.6358574   -1.2486179 
C    -0.7868034    0.7045042   -5.8681411 
C    -1.5848875   -5.9193320    2.9598523 
H     1.8343461    0.8048426   -2.8369147 
H    -2.0190077   -1.9363740    3.0006668 
H     4.1833637    0.3942140    1.3521594 
H     1.3138267   -1.1471285    2.6832939 
H    -0.4707719    0.2106358    3.8093277 
H    -3.8817934   -0.7351138    0.0340326 
H     3.4091424   -0.7743144   -2.7542022 
H     2.8289286   -3.0401972   -0.9088920 
H    -4.1149465    1.1785291    1.6666735 
H    -0.8916987    2.1804284   -1.1045139 
H     6.6231901    0.4767215    0.8646568 
H     1.6356902   -3.2829802    3.9424585 
H    -1.6566765    0.5453593    5.9750285 
H    -5.2668038   -0.0794800   -1.9287659 
H     5.8342216   -0.6311479   -3.2449148 
H     3.1567629   -5.1629761    0.3496926 
H    -5.2796979    1.5463674    3.8278145 
H    -2.2627051    2.8135647   -3.0971846 
H     7.4569401   -0.0235616   -1.4427799 
H     2.5542240   -5.2931978    2.7732562 
H    -4.0725916    1.2014583    5.9893472 
H    -4.4656000    1.6929500   -3.4983139 
H    -2.6002107   -2.7795428   -4.4850251 
H    -3.5674013   -1.3966570   -3.8691070 
H    -3.9550302   -3.0795984   -3.3218688 
H    -1.0265778   -6.0975737   -1.1305941 
H     0.6189233   -5.9713242   -0.4236659 
H     0.4049648   -5.9007081   -2.2218780 
H    -0.8256353   -0.3211841   -6.2723137 
H    -1.7871872    0.9763900   -5.4896510 
H    -0.4597109    1.4126839   -6.6424273 
H    -2.2019032   -6.3431333    2.1493779 
H    -0.5257530   -6.1606558    2.7657665 
H    -1.9010219   -6.3169739    3.9344302 
