109
Energy =
C     1.9063833    2.9235253    1.4825761 
C     0.5914764    3.4769795    1.6143219 
C    -0.3445657    2.8719487    2.4838634 
H     0.2575758    4.2600665    0.9223636 
Pd    0.4077879    1.4020383    0.9109240 
P    -1.5849264    0.3798916    0.2491351 
P     1.8293119   -0.2781678    0.1203739 
H     2.3496674    2.4600941    2.3748310 
H     0.0657569    2.2068534    3.2607454 
C     4.7633069    4.0050774   -1.5514306 
C     5.1815671    3.4060651   -0.3546145 
C     4.2455989    3.0725492    0.6319743 
C     2.8696347    3.3307199    0.4418130 
C     2.4620697    3.9365699   -0.7714568 
C     3.3980593    4.2709730   -1.7540641 
H     5.4943889    4.2647474   -2.3239059 
H     6.2425726    3.1943491   -0.1863044 
H     4.5788435    2.5987063    1.5615656 
H     1.3989628    4.1294080   -0.9561649 
H     3.0636583    4.7368759   -2.6870423 
C    -4.4375966    3.9305059    3.2287868 
C    -3.8497437    2.8322772    3.8746694 
C    -2.5156590    2.5034252    3.6158836 
C    -1.7430018    3.2596364    2.7024177 
C    -2.3523930    4.3575382    2.0529214 
C    -3.6839142    4.6892955    2.3184769 
H    -5.4796418    4.1965673    3.4338245 
H    -4.4301008    2.2353713    4.5856054 
H    -2.0585143    1.6479447    4.1250380 
H    -1.7807369    4.9653250    1.3455568 
H    -4.1390540    5.5453773    1.8109043 
O    -1.7112576   -4.0022886   -0.4050494 
O     0.3309257   -3.4267618   -2.6608927 
O     1.2292206   -4.4648308    3.1309763 
O    -1.9072482   -0.0704975   -4.9160026 
N    -0.2450353   -4.2473863    1.3612047 
N    -0.7987455   -1.7645679   -3.7965850 
C    -0.0506314   -2.3519877   -0.1577115 
C    -0.5901665   -1.6851525   -1.3708801 
C     1.0794697   -1.9070738    0.5709357 
C    -1.3552883   -0.4948118   -1.3621886 
C    -0.6504351   -3.5566270    0.2948201 
C    -0.3746886   -2.2794589   -2.6418757 
C     1.5251310   -2.6302302    1.6863156 
C    -1.8205838    0.0507961   -2.5667704 
C     2.1581966   -0.3664574   -1.6743027 
C     3.4637131   -0.2277977    0.9571699 
C    -2.3211575   -0.8693614    1.3620963 
C    -2.8528626    1.6580824   -0.1033309 
C     0.8094874   -3.7921896    2.0427442 
C    -1.4913907   -0.6232393   -3.7608574 
C     1.7763428    0.7144075   -2.4922907 
C     3.4855448   -0.0676806    2.3613875 
C    -1.7587601   -1.0540016    2.6411145 
C    -4.1783189    1.5899319    0.3621495 
C     2.7870005   -1.4946770   -2.2425232 
C     4.6804311   -0.2571123    0.2500288 
C    -3.4043044   -1.6727756    0.9492453 
C    -2.4478532    2.7645493   -0.8847923 
C     2.0168706    0.6672437   -3.8716096 
C     4.7028419    0.0244753    3.0468472 
C    -2.2789504   -2.0262544    3.5045232 
C    -5.0943397    2.5932184    0.0132382 
C     3.0366952   -1.5279090   -3.6199195 
C     5.8978825   -0.1536021    0.9405464 
C    -3.9302359   -2.6327896    1.8234864 
C    -3.3723845    3.7511368   -1.2476360 
C     2.6476196   -0.4520957   -4.4346029 
C     5.9137564   -0.0190306    2.3354965 
C    -3.3683036   -2.8119204    3.0975107 
C    -4.7008734    3.6621635   -0.8039554 
C    -2.3064504   -5.2415723    0.0115799 
C     0.5206781   -4.0660839   -3.9334739 
C     0.5071634   -5.6540995    3.4948137 
C    -1.5689838   -0.7521621   -6.1362040 
H     2.4001001   -2.3454212    2.2723887 
H    -2.4239799    0.9581338   -2.6177227 
H     1.2847652    1.5832463   -2.0424836 
H     2.5424103   -0.0094422    2.9184296 
H    -0.8946987   -0.4500494    2.9408332 
H    -4.4970893    0.7605298    1.0001177 
H     3.0601328   -2.3475993   -1.6127410 
H     4.6826311   -0.3438889   -0.8400750 
H    -3.8189814   -1.5604871   -0.0578347 
H    -1.4047930    2.8418304   -1.2168312 
H     1.7074970    1.5034815   -4.5066621 
H     4.7073896    0.1377676    4.1358380 
H    -1.8283134   -2.1775266    4.4907575 
H    -6.1228326    2.5353389    0.3838780 
H     3.5283880   -2.4011341   -4.0609601 
H     6.8379471   -0.1723589    0.3795809 
H    -4.7735885   -3.2533667    1.5033327 
H    -3.0540316    4.5939056   -1.8700282 
H     2.8366115   -0.4883656   -5.5126931 
H     6.8660563    0.0602229    2.8697326 
H    -3.7762873   -3.5719007    3.7721718 
H    -5.4246922    4.4350635   -1.0822221 
H    -3.1365795   -5.4124424   -0.6884011 
H    -2.6789953   -5.1649870    1.0467814 
H    -1.5734473   -6.0637579   -0.0466238 
H    -0.4504999   -4.3414893   -4.3781764 
H     1.1168345   -4.9643943   -3.7191556 
H     1.0562831   -3.3981789   -4.6285660 
H    -0.5483943   -5.4176682    3.7138204 
H     0.5440460   -6.3991713    2.6819545 
H     1.0129653   -6.0363606    4.3925359 
H    -0.4737040   -0.8265006   -6.2497392 
H    -1.9986742   -1.7681980   -6.1501311 
H    -2.0009714   -0.1388844   -6.9394707 
