109
Energy =
C     2.3039900    3.0139459    0.7018384 
C     1.0001156    3.5716268    0.8763191 
C     0.2324829    3.3108061    2.0337129 
H     0.5298641    4.0938318    0.0331216 
Pd    0.8006875    1.3824385    0.9462851 
P    -1.2828163    0.2772978    1.0584034 
P     1.8823530   -0.4033220   -0.0992316 
H     2.9173894    2.8568742    1.6012039 
H     0.7774638    2.9961001    2.9377561 
C     4.4803721    3.2816135   -3.0055520 
C     5.1635044    3.2195497   -1.7823604 
C     4.4507461    3.1430613   -0.5797350 
C     3.0392032    3.1280449   -0.5736324 
C     2.3646638    3.1973895   -1.8157570 
C     3.0756640    3.2725529   -3.0176565 
H     5.0383207    3.3319074   -3.9461172 
H     6.2578843    3.2223311   -1.7636333 
H     4.9918813    3.0922655    0.3704575 
H     1.2703456    3.1542401   -1.8457723 
H     2.5303956    3.3009036   -3.9669945 
C    -3.7338280    4.7539636    2.8466543 
C    -3.2892547    4.6670132    1.5167549 
C    -2.0046836    4.1953287    1.2327320 
C    -1.1362419    3.7942586    2.2746109 
C    -1.6030477    3.8735861    3.6061080 
C    -2.8857060    4.3551113    3.8898839 
H    -4.7395146    5.1267503    3.0665259 
H    -3.9484748    4.9687560    0.6962534 
H    -1.6813495    4.1297660    0.1902004 
H    -0.9472372    3.5579674    4.4242577 
H    -3.2257813    4.4123993    4.9285594 
O    -2.3221249   -2.2320891   -2.5016398 
O    -0.2035840   -4.1869741   -1.3011225 
O     0.2367212    0.8455499   -4.8158736 
O    -1.8697844   -4.4934614    2.9986445 
N    -1.0229755   -0.7386108   -3.6887370 
N    -1.0639684   -4.3548242    0.8350518 
C    -0.3772016   -1.4321517   -1.4410703 
C    -0.7838862   -2.1793475   -0.2225948 
C     0.7940848   -0.6466658   -1.5592635 
C    -1.2889821   -1.5666426    0.9501384 
C    -1.2274500   -1.4533749   -2.5812968 
C    -0.7093123   -3.5955618   -0.2025607 
C     1.0086525    0.1306097   -2.7102250 
C    -1.6757062   -2.3509634    2.0446136 
C     3.6257128   -0.2339635   -0.6553309 
C     1.9991474   -2.0044463    0.7998360 
C    -2.2282589    0.6392121    2.5871942 
C    -2.3069481    0.7712523   -0.3837853 
C     0.0490437    0.0575508   -3.7371150 
C    -1.5294781   -3.7489234    1.9303654 
C     4.5467739    0.0904497    0.3637158 
C     1.6719629   -2.0814813    2.1656117 
C    -1.5441723    0.4707609    3.8112059 
C    -1.8304068    1.7572499   -1.2697383 
C     4.1006843   -0.5345140   -1.9457252 
C     2.5112790   -3.1385967    0.1350508 
C    -3.5706290    1.0583702    2.5970079 
C    -3.5401482    0.1380840   -0.6454336 
C     5.9201310    0.1105571    0.0982226 
C     1.8306828   -3.2896916    2.8596848 
C    -2.2102928    0.6660405    5.0271179 
C    -2.5845986    2.1274261   -2.3899755 
C     5.4779207   -0.4903717   -2.2114133 
C     2.6675614   -4.3411772    0.8326990 
C    -4.2277308    1.2696112    3.8180282 
C    -4.2986270    0.5226758   -1.7588424 
C     6.3882995   -0.1727356   -1.1942275 
C     2.3246455   -4.4195836    2.1929715 
C    -3.5575465    1.0601266    5.0312382 
C    -3.8242339    1.5163011   -2.6300718 
C    -3.1772335   -2.2955157   -3.6547688 
C    -0.1250726   -5.6220036   -1.3040797 
C    -0.7425394    0.7719179   -5.8671391 
C    -1.7079177   -5.9187365    2.8922342 
H     1.8636543    0.7980016   -2.8212344 
H    -2.0698573   -1.9290577    2.9704516 
H     4.1819298    0.3167351    1.3730861 
H     1.2797340   -1.1959004    2.6782911 
H    -0.4861634    0.1813581    3.8078663 
H    -0.8473735    2.2063281   -1.0884600 
H     3.4081667   -0.8190739   -2.7424513 
H     2.7774684   -3.0812295   -0.9252831 
H    -4.1019752    1.2355029    1.6578440 
H    -3.8945671   -0.6661579    0.0076596 
H     6.6255530    0.3560360    0.8988305 
H     1.5602404   -3.3483583    3.9187897 
H    -1.6757763    0.5181762    5.9711913 
H    -2.1963143    2.8815208   -3.0823770 
H     5.8381952   -0.7188104   -3.2198011 
H     3.0625481   -5.2211134    0.3143603 
H    -5.2700811    1.6041478    3.8170065 
H    -5.2581638    0.0331068   -1.9550802 
H     7.4621707   -0.1493750   -1.4064035 
H     2.4489334   -5.3631801    2.7344972 
H    -4.0792403    1.2186237    5.9806875 
H    -4.4169846    1.8046810   -3.5045067 
H    -3.9922374   -2.9765334   -3.3717767 
H    -2.6264227   -2.6895849   -4.5253374 
H    -3.5717891   -1.2955849   -3.9006414 
H    -1.1283928   -6.0670372   -1.1952951 
H     0.5155755   -5.9769693   -0.4793352 
H     0.3118056   -5.8852019   -2.2777686 
H    -0.7974146   -0.2492885   -6.2806856 
H    -1.7399840    1.0582588   -5.4915686 
H    -0.3986253    1.4809861   -6.6332768 
H    -2.3266215   -6.3233877    2.0733117 
H    -0.6519034   -6.1770212    2.7030415 
H    -2.0379727   -6.3202942    3.8605695 
