109
Energy =
C     2.3099504    2.7512835    1.4429853 
C     1.0784065    3.0888155    2.0830711 
C     0.4570247    2.1803921    2.9699126 
H     0.5544292    4.0053416    1.7839771 
Pd    0.7186186    1.3046273    0.8576869 
P    -1.3059828    0.0878206    0.8261761 
P     1.6596875    0.0814599   -0.9070685 
H     2.9842071    2.0677499    1.9801525 
H     1.1011925    1.3961719    3.3958302 
C     4.2627007    5.3577777   -1.3698478 
C     2.8591978    5.2675622   -1.3591762 
C     2.2158608    4.4250800   -0.4474548 
C     2.9628615    3.6473273    0.4688805 
C     4.3711077    3.7384974    0.4387324 
C     5.0143058    4.5936236   -0.4657818 
H     4.7647341    6.0191651   -2.0834438 
H     2.2675679    5.8535041   -2.0702433 
H     1.1232987    4.3367295   -0.4680100 
H     4.9643841    3.1334902    1.1327262 
H     6.1074297    4.6556388   -0.4696174 
C    -3.1741868    2.7354361    5.1958312 
C    -2.8156635    3.6725672    4.2122516 
C    -1.6500853    3.4987765    3.4619823 
C    -0.8075922    2.3849159    3.6880834 
C    -1.1863699    1.4458073    4.6762514 
C    -2.3578555    1.6175430    5.4215034 
H    -4.0878635    2.8777432    5.7820233 
H    -3.4527887    4.5428667    4.0271486 
H    -1.3919524    4.2391148    2.6991382 
H    -0.5477859    0.5768605    4.8644526 
H    -2.6292470    0.8815110    6.1851733 
O    -1.1043638   -4.2564359   -0.1687584 
O    -0.5191301   -3.2163287   -3.0565458 
O     2.8635956   -3.8834640    2.1674492 
O    -4.0606723   -0.2887719   -3.5586339 
N     0.9094688   -4.1112089    0.9491742 
N    -2.3132585   -1.7821545   -3.3044857 
C     0.1689828   -2.3048897   -0.5099605 
C    -0.9623946   -1.7373061   -1.2832297 
C     1.3751377   -1.6171643   -0.2430343 
C    -1.7773186   -0.6943842   -0.7819435 
C     0.0239582   -3.5778961    0.1076159 
C    -1.3044201   -2.2417168   -2.5621731 
C     2.2900434   -2.1430917    0.6878547 
C    -2.8474773   -0.2086977   -1.5438200 
C     0.8732132    0.2208480   -2.5635395 
C     3.4327317    0.1734202   -1.3944903 
C    -1.3731054   -1.3080742    2.0119476 
C    -2.7129630    1.2106150    1.1824763 
C     1.9950483   -3.3960074    1.2605855 
C    -3.0577633   -0.7886001   -2.8128464 
C    -0.0879378    1.2195582   -2.8043033 
C     3.8831311    1.4308077   -1.8503692 
C    -2.4487391   -2.2216343    1.9940486 
C    -3.7434602    0.9081744    2.0902396 
C     1.3098914   -0.6031782   -3.6223535 
C     4.2926082   -0.9418007   -1.4819721 
C    -0.3182155   -1.4927591    2.9265260 
C    -2.7491506    2.4311710    0.4717655 
C    -0.6322916    1.3777931   -4.0868891 
C     5.1789968    1.5734765   -2.3616279 
C    -2.4785540   -3.2810854    2.9096686 
C    -4.8120726    1.8010582    2.2564929 
C     0.7637447   -0.4401151   -4.8999350 
C     5.5913572   -0.7881355   -1.9881686 
C    -0.3467135   -2.5616367    3.8317432 
C    -3.8271419    3.3105242    0.6291552 
C    -0.2095525    0.5461604   -5.1330837 
C     6.0391890    0.4674545   -2.4237764 
C    -1.4306533   -3.4514681    3.8291549 
C    -4.8647796    2.9920855    1.5188141 
C    -1.2571894   -5.5586262    0.4202563 
C    -0.8558063   -3.7457881   -4.3497053 
C     2.5682811   -5.1680014    2.7441958 
C    -4.2681426   -0.8633739   -4.8608989 
H     3.2045893   -1.6235074    0.9819859 
H    -3.5060092    0.5932612   -1.2069257 
H    -0.4109408    1.8660257   -1.9806434 
H     3.2141980    2.2965420   -1.8274062 
H    -3.2483758   -2.1133512    1.2538086 
H    -3.7109148   -0.0150476    2.6753352 
H     2.0691381   -1.3712856   -3.4442145 
H     3.9516518   -1.9344908   -1.1762347 
H     0.5391034   -0.8124899    2.9047454 
H    -1.9303819    2.6852363   -0.2126428 
H    -1.3911123    2.1464564   -4.2650046 
H     5.5118253    2.5558105   -2.7106977 
H    -3.3176290   -3.9844284    2.8970466 
H    -5.6067007    1.5618953    2.9705194 
H     1.1023234   -1.0819450   -5.7199137 
H     6.2508047   -1.6601094   -2.0507196 
H     0.4860411   -2.7063231    4.5276103 
H    -3.8541707    4.2469061    0.0623355 
H    -0.6329101    0.6699503   -6.1353560 
H     7.0532943    0.5810526   -2.8207611 
H    -1.4549352   -4.2871432    4.5364861 
H    -5.7070478    3.6797670    1.6471728 
H    -1.2371328   -5.4912382    1.5206379 
H    -0.4510561   -6.2328592    0.0854605 
H    -2.2342731   -5.9199797    0.0698848 
H    -1.8639254   -4.1932266   -4.3363911 
H    -0.0949023   -4.5119429   -4.5550744 
H    -0.8267466   -2.9508622   -5.1137643 
H     1.6030401   -5.1428929    3.2783578 
H     2.5236327   -5.9466123    1.9639566 
H     3.3932195   -5.3674559    3.4425067 
H    -3.3690941   -0.7383446   -5.4883907 
H    -4.5017253   -1.9387412   -4.7822364 
H    -5.1185811   -0.3131784   -5.2874197 
