109
Energy =
C     2.2607054    2.6673939    1.7119561 
C     1.1241639    3.4536161    1.4177375 
C    -0.1449348    3.1770839    2.0061346 
H     1.1865298    4.1824864    0.5994092 
Pd    0.5614528    1.3774897    0.8877401 
P    -1.4680015    0.2045341    0.9535023 
P     1.6628718   -0.2204369   -0.4309024 
H     2.2245945    2.0385983    2.6163711 
H    -0.1509691    2.7522945    3.0195801 
C     6.2085917    3.2613661    0.1288062 
C     5.2645824    4.2965672    0.0468368 
C     3.9725150    4.1122575    0.5501591 
C     3.6042248    2.8892838    1.1567865 
C     4.5717134    1.8621419    1.2486678 
C     5.8574529    2.0430585    0.7320379 
H     7.2178748    3.4054369   -0.2699939 
H     5.5390524    5.2548809   -0.4060489 
H     3.2546383    4.9373749    0.5000890 
H     4.2968320    0.9059583    1.7087873 
H     6.5885280    1.2310463    0.7952867 
C    -3.8129549    5.1347371    0.8873650 
C    -2.7625021    5.0402162   -0.0416970 
C    -1.5660307    4.4103016    0.3110577 
C    -1.3908775    3.8578708    1.6022430 
C    -2.4554885    3.9598481    2.5242214 
C    -3.6529472    4.5940808    2.1708650 
H    -4.7501922    5.6272773    0.6087148 
H    -2.8819677    5.4551717   -1.0479745 
H    -0.7635708    4.3296571   -0.4310183 
H    -2.3403132    3.5324583    3.5260331 
H    -4.4649104    4.6614001    2.9022955 
O    -2.4551603   -2.8289709   -2.1926389 
O    -0.0923282   -4.3557415   -1.0482916 
O    -0.3999510    0.0477731   -5.1679945 
O    -1.1607979   -4.3388035    3.4478286 
N    -1.4213715   -1.4139600   -3.6941322 
N    -0.6417516   -4.3622338    1.1931622 
C    -0.5586556   -1.6598405   -1.4279862 
C    -0.7466572   -2.3008272   -0.1015600 
C     0.4874699   -0.7622576   -1.7507974 
C    -1.2011384   -1.6216655    1.0542000 
C    -1.4689769   -1.9573324   -2.4776441 
C    -0.5088279   -3.6923662    0.0478142 
C     0.5534986   -0.1872529   -3.0280049 
C    -1.3554778   -2.3141444    2.2632966 
C     3.1122514    0.4280088   -1.3528280 
C     2.2116857   -1.7583054    0.3964919 
C    -2.4339345    0.6078990    2.4635493 
C    -2.5803090    0.4314705   -0.4802797 
C    -0.4468212   -0.5387552   -3.9569018 
C    -1.0423921   -3.6887509    2.2748888 
C     4.2735449   -0.3290190   -1.6023219 
C     2.2690966   -1.7918577    1.8040117 
C    -3.7982665    0.9499803    2.4342351 
C    -2.2691769    1.4124325   -1.4414433 
C     3.0376714    1.7556378   -1.8262228 
C     2.5786921   -2.9010898   -0.3462227 
C    -1.7475478    0.6089722    3.6988648 
C    -3.7289073   -0.3723680   -0.6410583 
C     5.3281684    0.2264943   -2.3395397 
C     2.6923010   -2.9535093    2.4643862 
C    -4.4702679    1.2612698    3.6263450 
C    -3.1018307    1.5944166   -2.5529196 
C     4.0906002    2.3030518   -2.5680132 
C     3.0165004   -4.0526528    0.3191496 
C    -2.4240114    0.9129023    4.8865343 
C    -4.5649232   -0.1743602   -1.7468336 
C     5.2373078    1.5376807   -2.8278697 
C     3.0703812   -4.0818669    1.7218832 
C    -3.7904575    1.2379129    4.8516249 
C    -4.2514420    0.8048409   -2.7033307 
C    -3.3590270   -3.1763766   -3.2538119 
C     0.0959681   -5.7751682   -0.9310948 
C    -1.4182599   -0.3109766   -6.1179544 
C    -0.8424813   -5.7410938    3.4641844 
H     1.3424523    0.5045804   -3.3285074 
H    -1.7170676   -1.8448442    3.1791701 
H     4.3651660   -1.3474021   -1.2150182 
H     1.9599768   -0.9101539    2.3779474 
H    -4.3364215    0.9929316    1.4833539 
H    -1.3631840    2.0149500   -1.3212368 
H     2.1518456    2.3621871   -1.6010700 
H     2.4907897   -2.8989906   -1.4372703 
H    -0.6773283    0.3692395    3.7277385 
H    -3.9540871   -1.1618631    0.0834510 
H     6.2270042   -0.3694510   -2.5286938 
H     2.7202003   -2.9790210    3.5584534 
H    -5.5307015    1.5312934    3.5913386 
H    -2.8472951    2.3476220   -3.3054628 
H     4.0238309    3.3346499   -2.9269145 
H     3.3047074   -4.9359021   -0.2600489 
H    -1.8845002    0.9008068    5.8391569 
H    -5.4581764   -0.7956833   -1.8687007 
H     6.0650555    1.9691106   -3.3999047 
H     3.4027155   -4.9891100    2.2371622 
H    -4.3197562    1.4802250    5.7788416 
H    -4.9034664    0.9478426   -3.5714959 
H    -2.8141458   -3.6473708   -4.0892759 
H    -3.8833074   -2.2807633   -3.6268720 
H    -4.0699149   -3.8855984   -2.8066207 
H     0.4345301   -6.1044517   -1.9236954 
H    -0.8513399   -6.2711431   -0.6600360 
H     0.8526768   -6.0063346   -0.1628450 
H    -1.3872651   -1.3919002   -6.3366928 
H    -2.4195048   -0.0540364   -5.7313455 
H    -1.1900706    0.2727037   -7.0208368 
H    -1.4988488   -6.3003124    2.7758923 
H     0.2079007   -5.9054771    3.1681652 
H    -1.0071209   -6.0629814    4.5020690 
