109
Energy =
C     1.8484796    2.9987987    1.4009258 
C     0.5230577    3.5303457    1.5177223 
C    -0.4018055    2.9313557    2.4032043 
H     0.1746053    4.2876553    0.8045925 
Pd    0.3803941    1.4337496    0.8716441 
P    -1.5911867    0.3552128    0.2372812 
P     1.8345275   -0.2402193    0.1296106 
H     2.3000181    2.5689036    2.3057412 
H     0.0207683    2.2956937    3.1979373 
C     4.6836940    4.0512675   -1.6634749 
C     5.1135952    3.4932749   -0.4510598 
C     4.1844737    3.1694903    0.5452110 
C     2.8037787    3.3958633    0.3490056 
C     2.3843904    3.9602501   -0.8801647 
C     3.3135844    4.2855010   -1.8722482 
H     5.4095077    4.3034717   -2.4433539 
H     6.1784394    3.3059753   -0.2781121 
H     4.5269754    2.7284437    1.4874681 
H     1.3177250    4.1275577   -1.0692317 
H     2.9700536    4.7191897   -2.8173612 
C    -4.5148810    3.9322966    3.1168757 
C    -3.9064857    2.8647362    3.7943755 
C    -2.5661543    2.5542109    3.5453703 
C    -1.8074387    3.2985155    2.6106708 
C    -2.4372090    4.3656134    1.9300167 
C    -3.7750491    4.6792190    2.1856104 
H    -5.5621544    4.1837714    3.3135389 
H    -4.4756998    2.2777651    4.5223812 
H    -2.0931580    1.7224673    4.0788104 
H    -1.8765897    4.9638594    1.2059392 
H    -4.2459949    5.5118326    1.6539758 
O    -1.6333502   -4.0452072   -0.2929545 
O     0.4000453   -3.4944777   -2.5633568 
O     1.3097313   -4.3494831    3.2582153 
O    -1.8968973   -0.2448110   -4.9135501 
N    -0.1656764   -4.2111867    1.4814041 
N    -0.7593228   -1.8863682   -3.7460591 
C    -0.0051261   -2.3568294   -0.0912531 
C    -0.5554926   -1.7350522   -1.3234039 
C     1.1153045   -1.8697118    0.6253951 
C    -1.3423975   -0.5592163   -1.3488621 
C    -0.5824736   -3.5593280    0.3950870 
C    -0.3272221   -2.3607082   -2.5770171 
C     1.5730049   -2.5519413    1.7615252 
C    -1.8157213   -0.0560345   -2.5686257 
C     2.1670963   -0.3718447   -1.6616557 
C     3.4666846   -0.1351180    0.9656601 
C    -2.3069414   -0.8761744    1.3828064 
C    -2.8817598    1.5995894   -0.1520972 
C     0.8789981   -3.7165777    2.1506253 
C    -1.4726631   -0.7572656   -3.7430033 
C     1.7664428    0.6792840   -2.5088914 
C     4.6845653   -0.1617566    0.2604095 
C    -1.7459003   -1.0140841    2.6683026 
C    -2.4957173    2.6913882   -0.9632097 
C     2.8173617   -1.5031778   -2.1986818 
C     3.4838985    0.0659986    2.3646642 
C    -3.3736550   -1.7108693    0.9895605 
C    -4.2065916    1.5199244    0.3133230 
C     2.0095680    0.5993916   -3.8862665 
C     5.8990289   -0.0148628    0.9482950 
C    -2.2515829   -1.9707847    3.5574229 
C    -3.4374471    3.6507244   -1.3539456 
C     3.0691119   -1.5690958   -3.5745412 
C     4.6984298    0.2016957    3.0477860 
C    -3.8854667   -2.6549476    1.8891628 
C    -5.1401170    2.4964956   -0.0638892 
C     2.6613028   -0.5230477   -4.4183457 
C     5.9107365    0.1608882    2.3386944 
C    -3.3252666   -2.7872093    3.1696961 
C    -4.7647798    3.5498332   -0.9093791 
C    -2.2053191   -5.2833831    0.1581477 
C     0.6037000   -4.1653127   -3.8174576 
C     0.6097730   -5.5413192    3.6555140 
C    -1.5446491   -0.9542405   -6.1138499 
H     2.4414706   -2.2337038    2.3399511 
H    -2.4350427    0.8386080   -2.6456943 
H     1.2584826    1.5508118   -2.0831065 
H     4.6897288   -0.2799547   -0.8267440 
H    -0.8940137   -0.3863296    2.9535444 
H    -1.4537253    2.7786303   -1.2961539 
H     3.1057092   -2.3334804   -1.5458947 
H     2.5392735    0.1218737    2.9193854 
H    -3.7863843   -1.6350285   -0.0217357 
H    -4.5115028    0.7023242    0.9729672 
H     1.6859890    1.4125769   -4.5437852 
H     6.8399197   -0.0322891    0.3886759 
H    -1.8016612   -2.0858986    4.5488521 
H    -3.1333745    4.4817050   -1.9989198 
H     3.5773645   -2.4446955   -3.9914336 
H     4.6994919    0.3467344    4.1330103 
H    -4.7161741   -3.2997041    1.5841073 
H    -6.1681127    2.4297209    0.3066288 
H     2.8520338   -0.5850448   -5.4949626 
H     6.8607369    0.2741958    2.8708927 
H    -3.7223180   -3.5345004    3.8647505 
H    -5.5020798    4.3015299   -1.2094894 
H    -3.0310883   -5.4898046   -0.5373927 
H    -2.5806641   -5.1846694    1.1904336 
H    -1.4566425   -6.0926709    0.1237685 
H    -0.3614395   -4.4715159   -4.2551022 
H     1.2166087   -5.0457334   -3.5776639 
H     1.1274151   -3.5068842   -4.5304210 
H    -0.4503649   -5.3186983    3.8667205 
H     0.6618735   -6.3085912    2.8644145 
H     1.1214941   -5.8879513    4.5642769 
H    -0.4480479   -1.0125182   -6.2238588 
H    -1.9565265   -1.9776354   -6.0998908 
H    -1.9859379   -0.3712631   -6.9344340 
