109
Energy =
C     1.8525444    3.3556716    0.4399003 
C     0.4804739    3.7440206    0.5302319 
C    -0.2843912    3.4944339    1.6919178 
H    -0.0263308    4.1125095   -0.3709954 
Pd    0.5742810    1.5652442    0.8173304 
P    -1.3443465    0.2017200    0.9980574 
P     1.9214460   -0.1499590   -0.0175043 
H     2.4506404    3.3726108    1.3627781 
H     0.2666233    3.3462031    2.6341325 
C     4.0960568    3.5549612   -3.2315680 
C     2.7065276    3.3520977   -3.2704350 
C     1.9723616    3.2980620   -2.0813992 
C     2.6081777    3.4442317   -0.8255988 
C     4.0042274    3.6524147   -0.8053144 
C     4.7400433    3.7075221   -1.9951589 
H     4.6732692    3.5889096   -4.1611801 
H     2.1944492    3.2120093   -4.2283120 
H     0.8955247    3.1016933   -2.1283962 
H     4.5152512    3.7698451    0.1556182 
H     5.8228837    3.8621487   -1.9552185 
C    -4.4350675    4.4479782    2.2742132 
C    -3.5767146    4.2729713    3.3693512 
C    -2.2316392    3.9485860    3.1616001 
C    -1.7132064    3.8064488    1.8546119 
C    -2.5919446    3.9817476    0.7601289 
C    -3.9376336    4.2960158    0.9691048 
H    -5.4890409    4.6971201    2.4349143 
H    -3.9567522    4.3821759    4.3898505 
H    -1.5673645    3.8070684    4.0205644 
H    -2.2273590    3.8617694   -0.2637774 
H    -4.6032732    4.4230448    0.1091446 
O    -1.9148780   -2.7589438   -2.3144857 
O     0.4016122   -4.2819335   -0.8772520 
O     0.2885801    0.4022577   -4.8692823 
O    -1.3352665   -4.3887894    3.4038774 
N    -0.7861362   -1.2234360   -3.6166478 
N    -0.4932489   -4.3551151    1.2499513 
C    -0.1327475   -1.6025912   -1.2973284 
C    -0.4772173   -2.2765440   -0.0184507 
C     0.9269294   -0.6802576   -1.4685830 
C    -1.0980619   -1.6272613    1.0765203 
C    -0.9319128   -1.8494213   -2.4478978 
C    -0.2131078   -3.6603370    0.1464787 
C     1.0761820    0.0043322   -2.6869257 
C    -1.4095733   -2.3460131    2.2379209 
C     3.6442017    0.2009896   -0.5521439 
C     2.2206177   -1.6254382    1.0404655 
C    -2.3822373    0.5768461    2.4624445 
C    -2.3764252    0.4065572   -0.5070574 
C     0.1709201   -0.2969880   -3.7215272 
C    -1.0697452   -3.7142361    2.2698871 
C     4.4774838    0.7509838    0.4453924 
C     1.8606038   -1.6138767    2.4000450 
C    -1.7244664    0.6238645    3.7113723 
C    -3.5020574   -0.4147699   -0.7276681 
C     4.1996115   -0.1619058   -1.7935121 
C     2.9017293   -2.7382819    0.5035611 
C    -3.7685247    0.8054865    2.4016208 
C    -2.0098458    1.3586746   -1.4783403 
C     5.8441557    0.9316775    0.2074473 
C     2.1550698   -2.7166877    3.2148650 
C    -2.4526673    0.8420040    4.8871460 
C    -4.2685410   -0.2498143   -1.8887358 
C     5.5667978    0.0432930   -2.0342436 
C     3.1929709   -3.8354621    1.3213352 
C    -4.4901078    1.0411178    3.5810653 
C    -2.7698882    1.5092371   -2.6448246 
C     6.3905520    0.5847853   -1.0379007 
C     2.8172677   -3.8280896    2.6751937 
C    -3.8402047    1.0445980    4.8230751 
C    -3.9057006    0.7109094   -2.8462374 
C    -2.7129148   -3.0489629   -3.4737576 
C     0.6726455   -5.6859238   -0.7329824 
C    -0.6365002    0.0961811   -5.9276752 
C    -0.9749005   -5.7806324    3.4472049 
H     1.8381187    0.7679508   -2.8458929 
H    -1.8865360   -1.8935749    3.1087100 
H     4.0506029    1.0278021    1.4171954 
H     1.3370212   -0.7444230    2.8134842 
H    -0.6375569    0.4844688    3.7592940 
H    -3.7645774   -1.1933544   -0.0038893 
H     3.5793690   -0.6184400   -2.5695875 
H     3.1938398   -2.7479908   -0.5514530 
H    -4.2859032    0.8153322    1.4384041 
H    -1.1043002    1.9562429   -1.3239412 
H     6.4821480    1.3520315    0.9917505 
H     1.8588151   -2.7090847    4.2686520 
H    -1.9362055    0.8614328    5.8523749 
H    -5.1448207   -0.8853307   -2.0534048 
H     5.9892287   -0.2352196   -3.0052300 
H     3.7191491   -4.6993560    0.9021091 
H    -5.5674683    1.2269263    3.5244910 
H    -2.4657314    2.2392366   -3.4021173 
H     7.4582712    0.7333100   -1.2294251 
H     3.0472419   -4.6894357    3.3110022 
H    -4.4113427    1.2203245    5.7405115 
H    -4.5028358    0.8276196   -3.7567296 
H    -3.4394316   -3.8039202   -3.1416908 
H    -2.0843335   -3.4465901   -4.2882450 
H    -3.2281427   -2.1404056   -3.8273128 
H     1.3286991   -5.8670394    0.1349756 
H     1.1716545   -5.9810606   -1.6668416 
H    -0.2646168   -6.2515383   -0.5977533 
H    -0.5409899   -0.9578099   -6.2389620 
H    -1.6751975    0.2788859   -5.6025587 
H    -0.3647631    0.7689534   -6.7532374 
H    -1.5077950   -6.3480433    2.6653818 
H     0.1117221   -5.9055411    3.3010994 
H    -1.2741039   -6.1257175    4.4468339 
