109
Energy =
C     1.8774277    2.9916521    1.3799450 
C     0.5546106    3.5233939    1.5213154 
C    -0.3550204    2.9225139    2.4211949 
H     0.1943189    4.2831207    0.8166741 
Pd    0.3986966    1.4289492    0.8711161 
P    -1.5855830    0.3553301    0.2692429 
P     1.8371791   -0.2416106    0.0919519 
H     2.3445208    2.5582515    2.2751785 
H     0.0808814    2.2842680    3.2065749 
C     4.6609728    4.0618226   -1.7254735 
C     5.1115868    3.5015030   -0.5217060 
C     4.1990965    3.1707126    0.4875508 
C     2.8148019    3.3930807    0.3136222 
C     2.3743690    3.9593702   -0.9072272 
C     3.2869137    4.2912893   -1.9124648 
H     5.3736876    4.3190899   -2.5156958 
H     6.1796830    3.3180368   -0.3655864 
H     4.5577224    2.7275542    1.4227629 
H     1.3042726    4.1231482   -1.0792886 
H     2.9272744    4.7267325   -2.8507367 
C    -4.4556216    3.9213685    3.2063313 
C    -3.8362824    2.8513594    3.8698992 
C    -2.5002249    2.5417079    3.5978877 
C    -1.7567432    3.2896116    2.6538805 
C    -2.3972915    4.3596368    1.9880372 
C    -3.7308473    4.6721402    2.2663756 
H    -5.4997591    4.1716009    3.4204220 
H    -4.3934865    2.2618636    4.6051039 
H    -2.0188508    1.7076463    4.1200594 
H    -1.8484575    4.9609193    1.2574535 
H    -4.2102589    5.5068321    1.7457096 
O    -1.6415087   -4.0433654   -0.2683434 
O     0.3460432   -3.4902715   -2.5783810 
O     1.3730339   -4.3575732    3.2215652 
O    -1.9920031   -0.2322993   -4.8758880 
N    -0.1382439   -4.2143085    1.4755256 
N    -0.8341527   -1.8780727   -3.7345415 
C    -0.0078450   -2.3569327   -0.0964716 
C    -0.5824725   -1.7323069   -1.3160217 
C     1.1274897   -1.8723305    0.5981435 
C    -1.3689094   -0.5559609   -1.3234163 
C    -0.5763834   -3.5598645    0.3991830 
C    -0.3798400   -2.3555415   -2.5752498 
C     1.6076119   -2.5574164    1.7232477 
C    -1.8658268   -0.0497616   -2.5325002 
C     2.1306548   -0.3675566   -1.7066038 
C     3.4873293   -0.1394610    0.8922752 
C    -2.2815901   -0.8778703    1.4250901 
C    -2.8811410    1.6025836   -0.0938215 
C     0.9204711   -3.7221438    2.1241616 
C    -1.5461302   -0.7483127   -3.7149819 
C     1.7106408    0.6854082   -2.5420922 
C     4.6890746   -0.1601628    0.1596520 
C    -1.6956686   -1.0210414    2.6988492 
C    -2.5077365    2.6955583   -0.9092290 
C     2.7701292   -1.4968249   -2.2606784 
C     3.5358083    0.0533831    2.2917179 
C    -3.3574950   -1.7092017    1.0502166 
C    -4.1979253    1.5232605    0.3938286 
C     1.9235714    0.6092565   -3.9246742 
C     5.9185663   -0.0164018    0.8209515 
C    -2.1861116   -1.9791845    3.5949013 
C    -3.4550344    3.6563380   -1.2824503 
C     2.9921526   -1.5587550   -3.6418228 
C     4.7653041    0.1857393    2.9481712 
C    -3.8534726   -2.6551791    1.9566930 
C    -5.1368604    2.5011445    0.0338581 
C     2.5649327   -0.5109504   -4.4737580 
C     5.9614291    0.1502586    2.2118253 
C    -3.2688101   -2.7923173    3.2257126 
C    -4.7749589    3.5553807   -0.8163361 
C    -2.2060113   -5.2814542    0.1922265 
C     0.5237982   -4.1586934   -3.8376967 
C     0.6802154   -5.5495753    3.6306943 
C    -1.6639965   -0.9392230   -6.0844937 
H     2.4879540   -2.2412547    2.2845402 
H    -2.4858264    0.8455111   -2.5952831 
H     1.2112615    1.5552089   -2.1029098 
H     4.6699118   -0.2717726   -0.9280355 
H    -0.8367577   -0.3962042    2.9690917 
H    -1.4713454    2.7824187   -1.2593215 
H     3.0731254   -2.3286698   -1.6165350 
H     2.6038930    0.1053806    2.8678651 
H    -3.7900237   -1.6290669    0.0475789 
H    -4.4921852    0.7050409    1.0575085 
H     1.5843925    1.4234612   -4.5729994 
H     6.8466084   -0.0293356    0.2401696 
H    -1.7176132   -2.0978629    4.5772581 
H    -3.1611161    4.4884646   -1.9306278 
H     3.4922370   -2.4326165   -4.0720050 
H     4.7906983    0.3240606    4.0339722 
H    -4.6909227   -3.2977160    1.6657455 
H    -6.1584168    2.4348604    0.4218238 
H     2.7323167   -0.5698468   -5.5544117 
H     6.9230554    0.2609212    2.7232570 
H    -3.6536948   -3.5409728    3.9261048 
H    -5.5168289    4.3075440   -1.1037183 
H    -3.0452417   -5.4861485   -0.4875235 
H    -2.5613486   -5.1835180    1.2316424 
H    -1.4590589   -6.0915254    0.1425612 
H    -0.4503383   -4.4619700   -4.2570436 
H     1.1394882   -5.0408518   -3.6118825 
H     1.0347883   -3.4997140   -4.5593269 
H    -0.3752742   -5.3265303    3.8636182 
H     0.7157329   -6.3154190    2.8373013 
H     1.2098340   -5.8983172    4.5283192 
H    -0.5698235   -0.9986921   -6.2158269 
H    -2.0769312   -1.9621007   -6.0650828 
H    -2.1202674   -0.3536582   -6.8949724 
