109
Energy =
C     1.7569572    3.3057690    0.3600964 
C     1.1287207    3.3507180    1.6389750 
C     1.4697186    2.4359963    2.6606657 
H     0.2532128    3.9969300    1.7822275 
Pd    0.7773728    1.3396408    0.7785370 
P    -0.4277452   -0.4950691    1.6072195 
P     0.9594079    0.4801458   -1.3961247 
H     2.8003355    2.9632137    0.3207639 
H     2.4230051    1.8922705    2.5593187 
C     0.5466523    5.6701873   -3.0284509 
C    -0.3846353    5.3732355   -2.0185195 
C    -0.0029844    4.6097284   -0.9121636 
C     1.3204444    4.1236322   -0.7884399 
C     2.2448802    4.4310384   -1.8107592 
C     1.8619572    5.1978593   -2.9181249 
H     0.2451810    6.2666898   -3.8956107 
H    -1.4149070    5.7352067   -2.0995100 
H    -0.7467351    4.3722984   -0.1430990 
H     3.2723812    4.0595656   -1.7343069 
H     2.5955175    5.4227063   -3.6992181 
C    -0.1975371    2.3416869    6.6175245 
C     0.5100413    1.2380889    6.1146748 
C     1.0514479    1.2807291    4.8270819 
C     0.8820198    2.4212073    4.0084987 
C     0.1696578    3.5264007    4.5286678 
C    -0.3592738    3.4871905    5.8230169 
H    -0.6157993    2.3109893    7.6287577 
H     0.6358027    0.3406907    6.7284532 
H     1.5940636    0.4137429    4.4327987 
H     0.0556264    4.4360289    3.9301974 
H    -0.8949318    4.3570097    6.2170787 
O    -0.7348907   -4.3576922   -0.7532617 
O    -1.9548130   -2.5761696   -2.8884394 
O     3.7627892   -3.8779495   -1.7008455 
O    -5.1490710   -0.2476137   -0.4954230 
N     1.5084691   -4.1306626   -1.2451138 
N    -3.5639945   -1.4360523   -1.6901944 
C     0.0735630   -2.1690473   -1.0751267 
C    -1.2963075   -1.6533427   -0.8237495 
C     1.1844135   -1.3537831   -1.3981569 
C    -1.6932679   -0.9449892    0.3361324 
C     0.3171148   -3.5671885   -1.0418092 
C    -2.3118071   -1.8824129   -1.7908062 
C     2.4412908   -1.9318666   -1.6242822 
C    -3.0085359   -0.4747095    0.4583264 
C    -0.4698628    0.7722380   -2.4988038 
C     2.4530349    1.1213858   -2.2529624 
C     0.5026288   -2.0364815    1.9371250 
C    -1.4076631   -0.1388678    3.1182853 
C     2.5453939   -3.3336502   -1.5164832 
C    -3.8989903   -0.7361679   -0.6027116 
C    -0.5592089    0.1364855   -3.7554480 
C     2.4244948    1.6483749   -3.5570889 
C    -0.1606424   -3.2688503    2.1205576 
C    -1.9901573    1.1423978    3.2253597 
C    -1.5001497    1.6317698   -2.0714874 
C     3.6717344    1.1125956   -1.5375226 
C     1.9086581   -1.9821182    2.0106363 
C    -1.5970939   -1.0714276    4.1567052 
C    -1.6638277    0.3825557   -4.5802831 
C     3.6029160    2.1342475   -4.1443749 
C     0.5810359   -4.4246676    2.3932345 
C    -2.7813313    1.4702523    4.3320991 
C    -2.6093566    1.8611481   -2.8953893 
C     4.8461137    1.5926924   -2.1299373 
C     2.6461956   -3.1461518    2.2671546 
C    -2.3838457   -0.7350226    5.2667133 
C    -2.6890657    1.2408260   -4.1510123 
C     4.8132131    2.1033566   -3.4384119 
C     1.9821924   -4.3660633    2.4627056 
C    -2.9818201    0.5300599    5.3538531 
C    -0.5202305   -5.7780679   -0.7728739 
C    -2.9779611   -2.8551558   -3.8574209 
C     3.8738123   -5.3075139   -1.5911026 
C    -6.0597121   -0.5144407   -1.5759932 
H     3.3266181   -1.3527886   -1.8901288 
H    -3.3667174    0.0694610    1.3339301 
H     0.2200595   -0.5630757   -4.0750818 
H     1.4833698    1.6997780   -4.1113724 
H    -1.2489891   -3.3278654    2.0185905 
H    -1.8117540    1.8864336    2.4392297 
H    -1.4339856    2.1011389   -1.0847553 
H     3.6982050    0.7262765   -0.5109264 
H     2.4212914   -1.0271840    1.8442321 
H    -1.1252780   -2.0566548    4.1098683 
H    -1.7305539   -0.1079154   -5.5568919 
H     3.5683725    2.5468476   -5.1579041 
H     0.0633047   -5.3781930    2.5393785 
H    -3.2260974    2.4673257    4.4058661 
H    -3.4147043    2.5186382   -2.5524770 
H     5.7864947    1.5726175   -1.5695839 
H     3.7392472   -3.1010940    2.3072375 
H    -2.5256412   -1.4664014    6.0691378 
H    -3.5553271    1.4212060   -4.7962177 
H     5.7296948    2.4832499   -3.9013419 
H     2.5577788   -5.2755077    2.6644062 
H    -3.5933363    0.7895433    6.2240503 
H     0.2512460   -6.0663146   -0.0393649 
H    -0.2006303   -6.1082524   -1.7756870 
H    -1.4918623   -6.2206905   -0.5114144 
H    -3.4049374   -1.9183134   -4.2525814 
H    -3.7859433   -3.4559848   -3.4069668 
H    -2.4739087   -3.4198508   -4.6545095 
H     3.5762454   -5.6449828   -0.5833630 
H     3.2353144   -5.8089587   -2.3381599 
H     4.9339000   -5.5303526   -1.7767479 
H    -7.0037204   -0.0330940   -1.2842694 
H    -5.6801475   -0.0865672   -2.5197964 
H    -6.2029204   -1.6002614   -1.7089838 
