109
Energy =
C     1.8672773    3.3448744    0.4527773 
C     0.4973907    3.7365040    0.5604170 
C    -0.2567635    3.4784770    1.7272171 
H    -0.0172671    4.1150455   -0.3321466 
Pd    0.5871596    1.5548957    0.8256700 
P    -1.3331696    0.1954772    1.0125862 
P     1.9211923   -0.1559425   -0.0377675 
H     2.4744581    3.3508581    1.3698379 
H     0.3029441    3.3195245    2.6625280 
C     4.0761925    3.5699563   -3.2381254 
C     2.6851931    3.3754985   -3.2656262 
C     1.9621570    3.3131744   -2.0701738 
C     2.6108737    3.4426172   -0.8191133 
C     4.0082577    3.6426157   -0.8102304 
C     4.7329237    3.7058368   -2.0064808 
H     4.6446061    3.6102292   -4.1728930 
H     2.1630842    3.2486495   -4.2199299 
H     0.8838444    3.1232989   -2.1088529 
H     4.5291593    3.7473295    0.1468433 
H     5.8169736    3.8538068   -1.9753651 
C    -4.3975173    4.4435366    2.3593880 
C    -3.5289564    4.2555701    3.4442841 
C    -2.1874471    3.9272275    3.2202591 
C    -1.6827502    3.7941614    1.9069605 
C    -2.5717588    3.9822800    0.8229253 
C    -3.9139076    4.3004405    1.0480990 
H    -5.4487636    4.6956349    2.5328227 
H    -3.8982107    4.3578508    4.4694558 
H    -1.5151788    3.7757662    4.0712746 
H    -2.2180038    3.8694849   -0.2055857 
H    -4.5875554    4.4376255    0.1959717 
O    -1.9449166   -2.7317696   -2.3216173 
O     0.3804350   -4.2754609   -0.9219060 
O     0.2410965    0.4488146   -4.8672255 
O    -1.3182345   -4.4184219    3.3735485 
N    -0.8250832   -1.1865497   -3.6199441 
N    -0.4951007   -4.3664189    1.2126675 
C    -0.1492196   -1.5905083   -1.3112563 
C    -0.4833992   -2.2756002   -0.0355521 
C     0.9111807   -0.6692701   -1.4841981 
C    -1.0918779   -1.6349061    1.0713760 
C    -0.9607225   -1.8237250   -2.4560333 
C    -0.2225899   -3.6618102    0.1135084 
C     1.0497966    0.0271997   -2.6970581 
C    -1.3951795   -2.3639045    2.2285536 
C     3.6401260    0.1953805   -0.5845585 
C     2.2258866   -1.6423705    1.0031046 
C    -2.3553101    0.5604439    2.4905142 
C    -2.3798805    0.4172576   -0.4800122 
C     0.1332968   -0.2615387   -3.7253657 
C    -1.0601470   -3.7336121    2.2439992 
C     4.4849587    0.7287763    0.4123150 
C     1.8790728   -1.6427085    2.3661560 
C    -1.6855918    0.5928921    3.7335448 
C    -3.5100725   -0.3989096   -0.6964577 
C     4.1821299   -0.1515913   -1.8363209 
C     2.8982914   -2.7520601    0.4489945 
C    -3.7410125    0.7962083    2.4449236 
C    -2.0211151    1.3778039   -1.4458853 
C     5.8497383    0.9089017    0.1633604 
C     2.1777770   -2.7542324    3.1674730 
C    -2.4016282    0.8038169    4.9180794 
C    -4.2887017   -0.2204433   -1.8473964 
C     5.5474452    0.0533165   -2.0878105 
C     3.1937553   -3.8580078    1.2533502 
C    -4.4503217    1.0244345    3.6332403 
C    -2.7934533    1.5419415   -2.6024433 
C     6.3826952    0.5782664   -1.0922079 
C     2.8310954   -3.8624904    2.6107685 
C    -3.7887153    1.0135914    4.8690123 
C    -3.9337230    0.7488344   -2.7992201 
C    -2.7558239   -3.0077432   -3.4753769 
C     0.6476693   -5.6817643   -0.7939453 
C    -0.6956130    0.1557542   -5.9190661 
C    -0.9627302   -5.8119529    3.3999843 
H     1.8117680    0.7907670   -2.8560487 
H    -1.8624628   -1.9183469    3.1081009 
H     4.0687435    0.9930527    1.3922118 
H     1.3621650   -0.7756796    2.7928597 
H    -0.5990084    0.4476844    3.7700834 
H    -3.7670176   -1.1837259    0.0225786 
H     3.5529479   -0.5952846   -2.6126115 
H     3.1804403   -2.7524668   -0.6087805 
H    -4.2674138    0.8173047    1.4867789 
H    -1.1123532    1.9714429   -1.2955559 
H     6.4967047    1.3161167    0.9472506 
H     1.8917929   -2.7557875    4.2241223 
H    -1.8759831    0.8119674    5.8785037 
H    -5.1684905   -0.8519562   -2.0087253 
H     5.9592823   -0.2121996   -3.0669523 
H     3.7129344   -4.7195413    0.8207580 
H    -5.5272912    1.2156231    3.5885434 
H    -2.4955171    2.2785945   -3.3557597 
H     7.4489422    0.7262256   -1.2921781 
H     3.0643813   -4.7306423    3.2360256 
H    -4.3502498    1.1839382    5.7933639 
H    -4.5406125    0.8763822   -3.7017756 
H    -3.4810739   -3.7639462   -3.1433725 
H    -2.1369326   -3.3988743   -4.3003562 
H    -3.2720108   -2.0941649   -3.8142872 
H     1.3106873   -5.8737849    0.0663419 
H     1.1373557   -5.9693534   -1.7350637 
H    -0.2904058   -6.2453747   -0.6560323 
H    -0.6060847   -0.8952865   -6.2418779 
H    -1.7304233    0.3378224   -5.5814308 
H    -0.4305874    0.8361188   -6.7405778 
H    -1.5045127   -6.3696279    2.6172686 
H     0.1221108   -5.9393627    3.2432177 
H    -1.2545464   -6.1658031    4.3987336 
