109
Energy =
C     1.9415235    2.8971344    1.4877307 
C     0.6306771    3.4501385    1.6571349 
C    -0.2875521    2.8319347    2.5363161 
H     0.2834066    4.2451922    0.9856486 
Pd    0.4289566    1.3875101    0.9234662 
P    -1.5784306    0.3776636    0.2877465 
P     1.8314851   -0.2814408    0.0782838 
H     2.4027863    2.4186300    2.3627546 
H     0.1383700    2.1532475    3.2927569 
C     4.7328000    4.0220601   -1.5911864 
C     3.3638903    4.2930921   -1.7594043 
C     2.4492494    3.9447868   -0.7616346 
C     2.8825137    3.3198876    0.4329393 
C     4.2619206    3.0571672    0.5887912 
C     5.1764110    3.4044115   -0.4130997 
H     5.4470180    4.2918783   -2.3758608 
H     3.0096892    4.7737567   -2.6774715 
H     1.3825527    4.1412401   -0.9199376 
H     4.6148554    2.5687933    1.5034666 
H     6.2405401    3.1887721   -0.2715550 
C    -4.3614775    3.8855903    3.3857197 
C    -3.6260743    4.6570601    2.4711034 
C    -2.3012563    4.3272534    2.1718283 
C    -1.6801256    3.2184989    2.7911386 
C    -2.4343988    2.4496157    3.7093963 
C    -3.7618856    2.7767977    4.0021088 
H    -5.3984530    4.1499799    3.6169629 
H    -4.0901691    5.5219256    1.9870759 
H    -1.7436986    4.9450703    1.4618644 
H    -1.9681090    1.5854330    4.1949988 
H    -4.3277560    2.1704243    4.7167092 
O    -1.7237066   -3.9930780   -0.4360294 
O     0.2729589   -3.3822021   -2.7227208 
O     1.2853030   -4.5148074    3.0334360 
O    -2.0147112    0.0075936   -4.8758098 
N    -0.2228764   -4.2680678    1.2964295 
N    -0.8807631   -1.7025625   -3.8074903 
C    -0.0564686   -2.3484534   -0.1951548 
C    -0.6199582   -1.6613682   -1.3859220 
C     1.0886144   -1.9165417    0.5176867 
C    -1.3838625   -0.4710142   -1.3420677 
C    -0.6486135   -3.5597646    0.2496709 
C    -0.4318700   -2.2354565   -2.6704674 
C     1.5551534   -2.6577360    1.6125316 
C    -1.8749560    0.0934298   -2.5275515 
C     2.1238787   -0.3416728   -1.7238641 
C     3.4824205   -0.2465083    0.8828380 
C    -2.2927382   -0.8887006    1.3954459 
C    -2.8517896    1.6627961   -0.0167421 
C     0.8452499   -3.8246277    1.9644224 
C    -1.5726074   -0.5622599   -3.7388727 
C     1.7263300    0.7521122   -2.5168658 
C     4.6847516   -0.2674329    0.1511482 
C    -1.7035989   -1.0951912    2.6589685 
C    -4.1661388    1.5898662    0.4785505 
C     2.7395445   -1.4613220   -2.3225841 
C     3.5327642   -0.1079526    2.2885846 
C    -3.3856707   -1.6838669    0.9924656 
C    -2.4627632    2.7803064   -0.7905564 
C     1.9383106    0.7263442   -3.9014181 
C     5.9160070   -0.1766918    0.8186135 
C    -2.2066616   -2.0812326    3.5169265 
C    -5.0880413    2.5997765    0.1661149 
C     2.9607474   -1.4732111   -3.7052035 
C     4.7637193   -0.0284609    2.9508507 
C    -3.8942568   -2.6577609    1.8615925 
C    -3.3935220    3.7738074   -1.1168458 
C     2.5560738   -0.3845312   -4.4947917 
C     5.9601002   -0.0632219    2.2148419 
C    -3.3055832   -2.8587714    3.1202046 
C    -4.7115882    3.6801798   -0.6439936 
C    -2.3125545   -5.2380306   -0.0271928 
C     0.4348899   -4.0015211   -4.0089959 
C     0.5693265   -5.7093255    3.3922133 
C    -1.7036002   -0.6551606   -6.1135825 
H     2.4418520   -2.3831412    2.1857410 
H    -2.4787324    1.0016667   -2.5514404 
H     1.2449098    1.6141135   -2.0435715 
H     4.6651296   -0.3374720   -0.9399966 
H    -0.8321544   -0.4976952    2.9501863 
H    -4.4716351    0.7515116    1.1112785 
H     3.0247941   -2.3242988   -1.7121256 
H     2.6011749   -0.0569912    2.8654622 
H    -3.8212714   -1.5546592   -0.0036903 
H    -1.4275406    2.8611565   -1.1455309 
H     1.6166964    1.5726424   -4.5167803 
H     6.8445787   -0.1885745    0.2386293 
H    -1.7351334   -2.2494834    4.4905719 
H    -6.1078234    2.5378182    0.5594535 
H     3.4425125   -2.3397395   -4.1697999 
H     4.7901785    0.0679491    4.0411627 
H    -4.7451656   -3.2719540    1.5492025 
H    -3.0878250    4.6255405   -1.7333607 
H     2.7226062   -0.4041173   -5.5770079 
H     6.9230517    0.0066815    2.7309726 
H    -3.7005902   -3.6290650    3.7908828 
H    -5.4403445    4.4579947   -0.8943111 
H    -3.1571175   -5.3963231   -0.7127143 
H    -2.6636396   -5.1774499    1.0165369 
H    -1.5823896   -6.0602661   -0.1136234 
H     0.9551587   -3.3226159   -4.7050878 
H    -0.5457889   -4.2703011   -4.4365637 
H     1.0356335   -4.9028173   -3.8217437 
H    -0.4816021   -5.4757678    3.6353019 
H     0.5899121   -6.4413588    2.5670272 
H     1.0920499   -6.1060649    4.2738143 
H    -0.6111116   -0.7271958   -6.2525440 
H    -2.1333605   -1.6710712   -6.1334290 
H    -2.1535148   -0.0298623   -6.8975084 
