109
Energy =
C     1.9220544    3.3087937    0.4862373 
C     0.5588135    3.7233282    0.5929426 
C    -0.2031954    3.4683778    1.7553395 
H     0.0536204    4.1182052   -0.2979289 
Pd    0.6104566    1.5382660    0.8405339 
P    -1.3336670    0.2098135    1.0102505 
P     1.9178497   -0.1881570   -0.0337533 
H     2.5263194    3.2967904    1.4051730 
H     0.3510311    3.2919595    2.6907882 
C     4.1469411    3.5238508   -3.1956454 
C     2.7527971    3.3545077   -3.2291713 
C     2.0247351    3.2958554   -2.0365761 
C     2.6714499    3.4039372   -0.7824684 
C     4.0721146    3.5791581   -0.7674954 
C     4.8018192    3.6386756   -1.9608691 
H     4.7191718    3.5610120   -4.1282091 
H     2.2317966    3.2440974   -4.1861216 
H     0.9433621    3.1254797   -2.0802489 
H     4.5915189    3.6670220    0.1920823 
H     5.8882281    3.7669823   -1.9251253 
C    -4.3290804    4.4967444    2.3848402 
C    -3.4669606    4.2843075    3.4703634 
C    -2.1304563    3.9357415    3.2470102 
C    -1.6241710    3.8064720    1.9339318 
C    -2.5066895    4.0195922    0.8492296 
C    -3.8440281    4.3579095    1.0736272 
H    -5.3764902    4.7647053    2.5576884 
H    -3.8374780    4.3832139    4.4954094 
H    -1.4633272    3.7651757    4.0984473 
H    -2.1518208    3.9106456   -0.1793204 
H    -4.5128060    4.5142032    0.2209537 
O    -1.9846893   -2.6778310   -2.3516133 
O     0.3099254   -4.2725432   -0.9581469 
O     0.2631004    0.4877121   -4.8620960 
O    -1.4000854   -4.4232284    3.3325414 
N    -0.8350256   -1.1400820   -3.6326489 
N    -0.5721216   -4.3669227    1.1736231 
C    -0.1733762   -1.5758791   -1.3256123 
C    -0.5228383   -2.2661950   -0.0568522 
C     0.9034016   -0.6717830   -1.4872750 
C    -1.1232803   -1.6248322    1.0540513 
C    -0.9850472   -1.7852168   -2.4748713 
C    -0.2854460   -3.6577394    0.0810290 
C     1.0578300    0.0326192   -2.6936207 
C    -1.4412985   -2.3583485    2.2044029 
C     3.6442162    0.1375960   -0.5729331 
C     2.1939575   -1.6878962    0.9959499 
C    -2.3537576    0.5792450    2.4885338 
C    -2.3719775    0.4621634   -0.4833758 
C     0.1395437   -0.2309152   -3.7270107 
C    -1.1287501   -3.7334452    2.2091227 
C     4.4953829    0.6469622    0.4311442 
C     1.8432513   -1.6930859    2.3579899 
C    -1.6866292    0.5913973    3.7333188 
C    -3.5149017   -0.3331285   -0.7105260 
C     4.1837920   -0.2079331   -1.8261229 
C     2.8494118   -2.8043139    0.4350399 
C    -3.7355246    0.8368047    2.4416408 
C    -1.9941531    1.4250767   -1.4396180 
C     5.8639558    0.8045337    0.1879315 
C     2.1213403   -2.8155144    3.1514935 
C    -2.4021526    0.8040028    4.9178511 
C    -4.2866500   -0.1317386   -1.8623463 
C     5.5534276   -0.0257276   -2.0715932 
C     3.1242906   -3.9211493    1.2315919 
C    -4.4440521    1.0667237    3.6300974 
C    -2.7598179    1.6120691   -2.5971586 
C     6.3948546    0.4752144   -1.0688734 
C     2.7579018   -3.9300459    2.5879948 
C    -3.7856767    1.0357911    4.8672518 
C    -3.9124129    0.8397121   -2.8045547 
C    -2.7961234   -2.9301565   -3.5103506 
C     0.5537675   -5.6840477   -0.8414102 
C    -0.6754491    0.2205736   -5.9191687 
C    -1.0675464   -5.8225673    3.3480185 
H     1.8335082    0.7840579   -2.8436694 
H    -1.9030888   -1.9124550    3.0866813 
H     4.0808618    0.9098401    1.4121306 
H     1.3399238   -0.8207524    2.7900988 
H    -0.6024698    0.4292802    3.7710249 
H    -3.7870728   -1.1199022    0.0007080 
H     3.5491643   -0.6333845   -2.6081563 
H     3.1346517   -2.8011203   -0.6219070 
H    -4.2591969    0.8736291    1.4824729 
H    -1.0762238    2.0021010   -1.2811130 
H     6.5157403    1.1930294    0.9773138 
H     1.8324936   -2.8204569    4.2073488 
H    -1.8787833    0.7965190    5.8795243 
H    -5.1762605   -0.7471009   -2.0319764 
H     5.9635178   -0.2903232   -3.0517158 
H     3.6304967   -4.7877535    0.7937786 
H    -5.5177960    1.2750801    3.5844957 
H    -2.4472791    2.3502383   -3.3430325 
H     7.4642033    0.6057651   -1.2643568 
H     2.9751760   -4.8066744    3.2071701 
H    -4.3467600    1.2074150    5.7916421 
H    -4.5140056    0.9850704   -3.7079532 
H    -2.1809183   -3.3235872   -4.3369936 
H    -3.2965235   -2.0053635   -3.8424688 
H    -3.5344981   -3.6776457   -3.1876367 
H     1.0408557   -5.9717736   -1.7838376 
H    -0.3937343   -6.2333256   -0.7102965 
H     1.2115435   -5.8941525    0.0186744 
H    -0.6035903   -0.8290082   -6.2510055 
H    -1.7078983    0.4180083   -5.5829507 
H    -0.3959213    0.9033078   -6.7338819 
H    -1.6172175   -6.3648642    2.5600046 
H     0.0152892   -5.9665196    3.1917210 
H    -1.3666645   -6.1797753    4.3434075 
