109
Energy =
C     1.8551214    3.2372899    0.4714084 
C     1.2261945    3.2578597    1.7504987 
C     1.5395620    2.3006461    2.7416529 
H     0.3698176    3.9244519    1.9146377 
Pd    0.8175156    1.2878050    0.8233505 
P    -0.4386780   -0.5397348    1.5903174 
P     0.9708462    0.5010758   -1.3808782 
H     2.8879627    2.8653896    0.4214717 
H     2.4768903    1.7333029    2.6223305 
C     0.7236001    5.7534292   -2.8339949 
C    -0.2200400    5.4448704   -1.8391236 
C     0.1361125    4.6320761   -0.7596848 
C     1.4455947    4.1067603   -0.6488300 
C     2.3826106    4.4261128   -1.6558497 
C     2.0254728    5.2427406   -2.7358707 
H     0.4420932    6.3886225   -3.6801411 
H    -1.2400405    5.8366264   -1.9109466 
H    -0.6170074    4.3870501   -0.0022412 
H     3.3993836    4.0244535   -1.5893139 
H     2.7684768    5.4763387   -3.5053810 
C    -0.1293050    2.1264449    6.6951261 
C     0.5482839    1.0206307    6.1570792 
C     1.0901038    1.0890823    4.8707659 
C     0.9511139    2.2588389    4.0885234 
C     0.2686417    3.3657855    4.6439329 
C    -0.2607398    3.3001614    5.9370096 
H    -0.5479603    2.0752498    7.7053572 
H     0.6502726    0.1014203    6.7423036 
H     1.6093991    0.2208027    4.4489013 
H     0.1787006    4.2964506    4.0744360 
H    -0.7728010    4.1712180    6.3587586 
O    -0.8634338   -4.3048272   -0.9048442 
O    -2.0339799   -2.4119810   -2.9728762 
O     3.6432500   -3.9240864   -1.8541613 
O    -5.1589318   -0.0914918   -0.4823790 
N     1.3840165   -4.1264205   -1.3978323 
N    -3.6090637   -1.2752859   -1.7269814 
C     0.0081651   -2.1307464   -1.1521385 
C    -1.3456326   -1.5852372   -0.8774979 
C     1.1417341   -1.3374554   -1.4497953 
C    -1.7200109   -0.9092790    0.3089590 
C     0.2105055   -3.5357860   -1.1695532 
C    -2.3694566   -1.7505868   -1.8487853 
C     2.3803212   -1.9438206   -1.7014855 
C    -3.0219116   -0.4089989    0.4533246 
C    -0.4523865    0.8743659   -2.4668092 
C     2.4807793    1.1288660   -2.2188748 
C     0.4488791   -2.1174177    1.8618913 
C    -1.4039950   -0.2101547    3.1167681 
C     2.4431969   -3.3510695   -1.6448812 
C    -3.9222837   -0.6079045   -0.6129272 
C    -0.5628516    0.2898611   -3.7464216 
C     3.7003230    1.0567260   -1.5084969 
C    -0.2485379   -3.3363309    2.0039907 
C    -1.9525252    1.0813603    3.2701714 
C    -1.4579377    1.7440130   -2.0025294 
C     2.4650688    1.7044392   -3.5024641 
C     1.8560411   -2.1052389    1.9322329 
C    -1.6141236   -1.1726394    4.1234287 
C    -1.6630669    0.5970963   -4.5565722 
C     4.8874388    1.5219445   -2.0871951 
C     0.4608814   -4.5214388    2.2334733 
C    -2.7316710    1.3911605    4.3905416 
C    -2.5634853    2.0341124   -2.8120163 
C     3.6563730    2.1756232   -4.0755801 
C     2.5610437   -3.2978750    2.1450973 
C    -2.3881701   -0.8543226    5.2476321 
C    -2.6637480    1.4649611   -4.0902380 
C     4.8669434    2.0813475   -3.3758218 
C     1.8632911   -4.5047202    2.3001656 
C    -2.9530724    0.4219410    5.3803740 
C    -0.6908584   -5.7293316   -0.9754872 
C    -3.0667991   -2.6277555   -3.9477062 
C     3.7123251   -5.3593008   -1.7955238 
C    -6.0796143   -0.2943341   -1.5683216 
H     3.2816166   -1.3817870   -1.9497106 
H    -3.3627917    0.1122711    1.3494964 
H     0.1960852   -0.4177184   -4.0958002 
H     3.7174027    0.6324010   -0.4968206 
H    -1.3383628   -3.3610264    1.9038798 
H    -1.7569913    1.8473015    2.5095742 
H    -1.3759008    2.1730885   -0.9987290 
H     1.5245760    1.8051312   -4.0510357 
H     2.3949002   -1.1597758    1.7978478 
H    -1.1681136   -2.1674854    4.0408676 
H    -1.7459835    0.1467205   -5.5510938 
H     5.8281994    1.4522192   -1.5314639 
H    -0.0832115   -5.4645645    2.3481255 
H    -3.1502311    2.3962306    4.5002598 
H    -3.3500213    2.6987737   -2.4404828 
H     3.6318911    2.6266482   -5.0729031 
H     3.6550229   -3.2850742    2.1828710 
H    -2.5461099   -1.6088211    6.0252459 
H    -3.5270811    1.6927264   -4.7242528 
H     5.7935095    2.4497301   -3.8278396 
H     2.4134388   -5.4365033    2.4680760 
H    -3.5549878    0.6670308    6.2613684 
H     0.0737750   -6.0659583   -0.2555158 
H    -0.3838780   -6.0330299   -1.9905282 
H    -1.6744235   -6.1521216   -0.7261362 
H    -2.5800041   -3.1754356   -4.7670737 
H    -3.4699348   -1.6659461   -4.3061779 
H    -3.8891085   -3.2234793   -3.5168261 
H     3.4085699   -5.7233437   -0.7989311 
H     3.0565704   -5.8149881   -2.5568039 
H     4.7646785   -5.6065239   -1.9938392 
H    -5.6923116    0.1588594   -2.4970559 
H    -6.2509870   -1.3704009   -1.7412309 
H    -7.0100307    0.1996191   -1.2548216 
