109
Energy =
C     2.1303144    2.8031830    1.4037974 
C     0.8904593    3.1958483    2.0049247 
C     0.2810644    2.3641812    2.9721376 
H     0.3326985    4.0482221    1.5973877 
Pd    0.5982071    1.2617772    1.0012232 
P    -1.4545133    0.1772968    0.7516879 
P     1.7939986   -0.1130933   -0.4640862 
H     2.8377360    2.2417488    2.0296239 
H     0.9317498    1.6206969    3.4601143 
C     3.9108607    4.6584057   -2.0493427 
C     4.6913648    3.9125391   -1.1546070 
C     4.1048563    3.3258855   -0.0265582 
C     2.7233850    3.4724663    0.2302759 
C     1.9476522    4.2279994   -0.6821600 
C     2.5353177    4.8149190   -1.8062772 
H     4.3686196    5.1165553   -2.9320241 
H     5.7637255    3.7836077   -1.3345549 
H     4.7195796    2.7393080    0.6646018 
H     0.8691992    4.3402773   -0.5209236 
H     1.9187929    5.3938999   -2.5020258 
C    -3.4488318    2.8810004    5.0340469 
C    -3.0318161    3.8523838    4.1093573 
C    -1.8262287    3.7002224    3.4186808 
C    -1.0056037    2.5718591    3.6470024 
C    -1.4401380    1.6003828    4.5801672 
C    -2.6501144    1.7506066    5.2645873 
H    -4.3932469    3.0069099    5.5733779 
H    -3.6524368    4.7347507    3.9251472 
H    -1.5164111    4.4716255    2.7076842 
H    -0.8172486    0.7186043    4.7653707 
H    -2.9676234    0.9885455    5.9836266 
O    -1.5747479   -4.0251764   -0.6374912 
O    -0.3208060   -2.8909751   -3.2380625 
O     2.3028667   -4.7736900    1.7648636 
O    -3.2830528    0.5512611   -4.0962429 
N     0.3602536   -4.4136005    0.5605896 
N    -1.8133517   -1.1849952   -3.6748590 
C     0.0104635   -2.2858441   -0.5747545 
C    -0.8950788   -1.4847812   -1.4386106 
C     1.2859025   -1.8593781   -0.1302197 
C    -1.6762148   -0.3930363   -0.9914666 
C    -0.3741261   -3.6001861   -0.1998729 
C    -1.0409940   -1.8379885   -2.8056938 
C     2.0750389   -2.7091293    0.6577154 
C    -2.5036044    0.2948116   -1.8899748 
C     1.5751670    0.1288285   -2.2614253 
C     3.5997822   -0.0427280   -0.1351509 
C    -1.7728576   -1.3031636    1.7755488 
C    -2.8223300    1.3704414    1.0184594 
C     1.5492761   -3.9766615    0.9840810 
C    -2.5156642   -0.1390630   -3.2316783 
C     2.0564816   -0.8228171   -3.1855512 
C     4.5499261    0.1655577   -1.1526045 
C    -2.8972491   -2.1243087    1.5505518 
C    -3.9462381    1.1016597    1.8201454 
C     0.9175330    1.2866229   -2.7199034 
C     4.0329753   -0.1182588    1.2082122 
C    -0.8451863   -1.6447744    2.7801173 
C    -2.7131186    2.6244415    0.3745990 
C     1.8850524   -0.6038911   -4.5579108 
C     5.9122827    0.2699292   -0.8320735 
C    -3.0981304   -3.2606729    2.3449470 
C    -4.9650413    2.0583866    1.9391541 
C     0.7374172    1.4913284   -4.0940497 
C     5.3941776   -0.0243013    1.5218585 
C    -1.0431061   -2.7909835    3.5601508 
C    -3.7433186    3.5664174    0.4800831 
C     1.2220614    0.5478873   -5.0121299 
C     6.3381289    0.1697558    0.4993914 
C    -2.1729406   -3.5956515    3.3463937 
C    -4.8758844    3.2804223    1.2580401 
C    -1.9656539   -5.3662777   -0.3022823 
C    -0.4910680   -3.2918598   -4.6071827 
C     1.7732640   -6.0686581    2.0978375 
C    -3.2961719    0.1133791   -5.4659914 
H     3.0719062   -2.4414172    1.0107527 
H    -3.1345042    1.1351819   -1.5972978 
H     2.5438042   -1.7367733   -2.8306900 
H     4.2304993    0.2632143   -2.1939648 
H    -3.5995142   -1.8856025    0.7451149 
H    -4.0269966    0.1518824    2.3567657 
H     0.5427592    2.0164526   -1.9946879 
H     3.2977054   -0.2460047    2.0121031 
H     0.0448405   -1.0218889    2.9242365 
H    -1.8196783    2.8532380   -0.2201740 
H     2.2618429   -1.3399147   -5.2756296 
H     6.6418510    0.4367801   -1.6312256 
H    -3.9735802   -3.8951742    2.1719987 
H    -5.8341230    1.8433084    2.5691901 
H     0.2147711    2.3861817   -4.4467783 
H     5.7186381   -0.0949425    2.5651733 
H    -0.3108930   -3.0616408    4.3277578 
H    -3.6586134    4.5270853   -0.0384481 
H     1.0825828    0.7086885   -6.0863630 
H     7.4021604    0.2504494    0.7440817 
H    -2.3294033   -4.4912817    3.9567366 
H    -5.6810639    4.0171661    1.3455440 
H    -2.0164997   -5.4940245    0.7919646 
H    -1.2489475   -6.0952243   -0.7165475 
H    -2.9583722   -5.4988839   -0.7552935 
H    -0.2186867   -2.4699957   -5.2901633 
H    -1.5371885   -3.5848382   -4.7984812 
H     0.1821899   -4.1502099   -4.7424232 
H     0.8220854   -5.9707640    2.6490362 
H     1.5974630   -6.6663383    1.1873174 
H     2.5394367   -6.5412318    2.7283608 
H    -2.2834622    0.1664470   -5.9013006 
H    -3.6633491   -0.9241996   -5.5426606 
H    -3.9771438    0.8033811   -5.9838257 
