90
Energy =
C     1.9783212    0.6999235    1.8922718 
C     0.7666156    0.3628214    2.5323794 
C     0.2896264   -0.9765053    2.6100236 
H     0.1095351    1.1661810    2.8877803 
Pd    0.4586430   -0.3369521    0.4603370 
P     0.9404861    0.9880254   -1.4443159 
P    -1.0004143   -1.9994433   -0.3717922 
H     2.6970625   -0.1133262    1.7100331 
H     1.0337987   -1.7868266    2.6095197 
C     3.7574107    4.6147661    1.7698868 
C     2.4831154    4.4483975    2.3366521 
C     1.8790113    3.1877447    2.3595705 
C     2.5489062    2.0544150    1.8385582 
C     3.8418849    2.2353987    1.2920380 
C     4.4340548    3.5018697    1.2448385 
H     4.2244799    5.6047151    1.7470626 
H     1.9523907    5.3092158    2.7557849 
H     0.8792560    3.0887680    2.7922583 
H     4.3842184    1.3716002    0.8973871 
H     5.4309757    3.6179825    0.8079778 
C    -3.4025963   -1.8476387    4.6445340 
C    -3.3180613   -0.7271609    3.8016945 
C    -2.1273379   -0.4478002    3.1237520 
C    -0.9971992   -1.2847333    3.2701280 
C    -1.1008367   -2.4143084    4.1087221 
C    -2.2905631   -2.6889023    4.7941962 
H    -4.3339849   -2.0662294    5.1769290 
H    -4.1852654   -0.0715227    3.6706231 
H    -2.0752622    0.4200702    2.4570587 
H    -0.2375214   -3.0766749    4.2288265 
H    -2.3502725   -3.5682310    5.4434155 
C     1.1558296   -1.8251067   -3.2212573 
C     1.0657585   -0.4637221   -3.9222758 
C    -0.2042078   -2.5533865   -3.1210970 
C     0.2459983    0.5740803   -3.1391843 
C    -0.4813668   -3.1686803   -1.7455584 
C     2.7341792    1.1632512   -1.7973545 
C     0.2780365    2.6850477   -1.1964160 
C    -2.5596082   -1.2381254   -0.9740831 
C    -1.5402224   -3.2822159    0.8365660 
C     3.2417985    2.2236619   -2.5767669 
C    -1.0818251    2.9333180   -1.4946442 
C    -2.8755580    0.0682352   -0.5502806 
C    -0.5824633   -4.2143086    1.2905851 
C     3.6086715    0.1467864   -1.3642083 
C     1.0690960    3.7341694   -0.6857340 
C    -3.4647677   -1.9269819   -1.8103240 
C    -2.8743466   -3.3952846    1.2689689 
C     4.6071395    2.2762142   -2.8879075 
C    -1.6341756    4.2024298   -1.2852570 
C    -4.0717547    0.6792474   -0.9522318 
C    -0.9652308   -5.2691290    2.1288223 
C     4.9712119    0.1926447   -1.6909490 
C     0.5099735    5.0053369   -0.4868885 
C    -4.6554082   -1.3107463   -2.2181076 
C    -3.2482246   -4.4461428    2.1194824 
C     5.4730847    1.2629719   -2.4461263 
C    -0.8390298    5.2437639   -0.7803371 
C    -4.9614759   -0.0089471   -1.7898194 
C    -2.3018088   -5.3910393    2.5389050 
H     1.5728108   -1.6767682   -2.2055543 
H     1.8847228   -2.4633961   -3.7504068 
H     2.0807745   -0.0661102   -4.0998999 
H     0.6010482   -0.5867850   -4.9192682 
H    -0.2446838   -3.3662392   -3.8679793 
H    -1.0350828   -1.8731528   -3.3867021 
H     0.2003309    1.5286720   -3.6921014 
H    -0.7946253    0.2355785   -2.9818557 
H    -1.2923255   -3.9168581   -1.7957368 
H     0.4068806   -3.7058933   -1.3668006 
H     2.5728786    3.0126845   -2.9365187 
H    -1.7156849    2.1392455   -1.9001952 
H    -2.1696263    0.6076275    0.0924494 
H     0.4674697   -4.1229375    0.9868294 
H     3.2170993   -0.6814755   -0.7614142 
H     2.1253246    3.5698696   -0.4563101 
H    -3.2514519   -2.9486614   -2.1403421 
H    -3.6226587   -2.6659094    0.9455600 
H     4.9956371    3.1087285   -3.4835764 
H    -2.6873523    4.3805501   -1.5274904 
H    -4.3034187    1.6945809   -0.6137343 
H    -0.2175216   -5.9956020    2.4639018 
H     5.6413889   -0.6035710   -1.3506972 
H     1.1415685    5.8098814   -0.0969475 
H    -5.3491199   -1.8509446   -2.8705018 
H    -4.2872466   -4.5218119    2.4556344 
H     6.5382993    1.3058177   -2.6958128 
H    -1.2695922    6.2381556   -0.6238030 
H    -5.8942112    0.4668779   -2.1097699 
H    -2.6014129   -6.2151360    3.1943913 
