90
Energy =
C     2.2501010    0.3680356    1.7950733 
C     1.0575531    0.1498035    2.5161009 
C     0.4380226   -1.1363256    2.5869707 
H     0.5232803    1.0093431    2.9420912 
Pd    0.5463256   -0.4740692    0.4639990 
P    -1.0255405   -2.0369394   -0.3641450 
P     0.8901906    0.9885595   -1.3805755 
H     2.8658121   -0.5155786    1.5649497 
H     1.0898931   -2.0223665    2.5670811 
C     4.4077058    4.0679010    1.4581731 
C     5.0346453    2.8417148    1.1931981 
C     4.3106385    1.6491234    1.2918005 
C     2.9478695    1.6549200    1.6685458 
C     2.3309373    2.8998595    1.9359682 
C     3.0523674    4.0915779    1.8274162 
H     4.9713193    5.0030459    1.3774401 
H     6.0893962    2.8136881    0.9030923 
H     4.8043310    0.6948447    1.0815166 
H     1.2792960    2.9427528    2.2309080 
H     2.5565981    5.0452806    2.0354389 
C    -3.2890285   -1.5622672    4.7009992 
C    -2.2742637   -2.5185456    4.8506449 
C    -1.0735279   -2.3913098    4.1410453 
C    -0.8613825   -1.2973613    3.2769021 
C    -1.8990833   -0.3484908    3.1230040 
C    -3.0999425   -0.4786916    3.8276192 
H    -4.2279510   -1.6648927    5.2546586 
H    -2.4189345   -3.3724523    5.5201279 
H    -0.2856898   -3.1415301    4.2637743 
H    -1.7692044    0.4845258    2.4220747 
H    -3.8946491    0.2622709    3.6912862 
C     1.2788246   -1.9157020   -3.0463422 
C    -0.0735078   -2.6646762   -3.0289438 
C     1.2246720   -0.5733324   -3.7887625 
C    -0.4408162   -3.2581143   -1.6638256 
C     0.3509242    0.4901572   -3.1023556 
C    -1.7260388   -3.2301708    0.8508523 
C    -2.4950688   -1.2390482   -1.1235783 
C     2.6266369    1.5408179   -1.6522051 
C    -0.0925659    2.5232562   -1.0875063 
C    -3.0576359   -3.1343414    1.2973742 
C    -2.7526350    0.1156299   -0.8397620 
C     3.6249118    0.5464540   -1.7490255 
C    -0.3350406    3.4757651   -2.1001041 
C    -0.9122863   -4.2831466    1.3215848 
C    -3.3751338   -1.9429925   -1.9741483 
C     2.9896587    2.8924342   -1.8060495 
C    -0.6381593    2.7463705    0.1929481 
C    -3.5738466   -4.0967371    2.1769712 
C    -3.8554787    0.7686996   -1.4069361 
C     4.9471675    0.8931081   -2.0549820 
C    -1.1019735    4.6185778   -1.8316689 
C    -1.4384609   -5.2490802    2.1889269 
C    -4.4766142   -1.2887129   -2.5413101 
C     4.3186595    3.2357991   -2.0936071 
C    -1.4058983    3.8865582    0.4622635 
C    -2.7730819   -5.1613658    2.6129489 
C    -4.7162002    0.0672899   -2.2631910 
C     5.2951590    2.2400408   -2.2360436 
C    -1.6395244    4.8267285   -0.5524115 
H     2.0550669   -2.5546749   -3.5027530 
H     1.6108202   -1.7386704   -2.0030809 
H    -0.8921284   -2.0011816   -3.3646856 
H    -0.0483308   -3.4915124   -3.7609793 
H     0.8238767   -0.7327763   -4.8080247 
H     2.2459585   -0.1743255   -3.9222993 
H    -1.2546200   -3.9992069   -1.7532754 
H     0.4200909   -3.7930088   -1.2240173 
H     0.3388317    1.4058056   -3.7170064 
H    -0.6982003    0.1572559   -2.9926557 
H    -3.6945112   -2.3125723    0.9564131 
H    -2.0779094    0.6620099   -0.1752792 
H     3.3680109   -0.5049705   -1.5783389 
H     0.0753601    3.3387955   -3.1055736 
H     0.1356075   -4.3587756    1.0089682 
H    -3.2101466   -3.0028432   -2.1934981 
H     2.2423364    3.6825456   -1.6897643 
H    -0.4679387    1.9998356    0.9772350 
H    -4.6094303   -4.0104993    2.5210493 
H    -4.0328133    1.8253989   -1.1816580 
H     5.7079857    0.1103589   -2.1417048 
H    -1.2810574    5.3484054   -2.6279513 
H    -0.8030079   -6.0707542    2.5355459 
H    -5.1516740   -1.8401895   -3.2038516 
H     4.5898701    4.2908888   -2.2026383 
H    -1.8240045    4.0381563    1.4629370 
H    -3.1840190   -5.9160697    3.2912558 
H    -5.5760750    0.5735430   -2.7139706 
H     6.3290556    2.5136242   -2.4703586 
H    -2.2407366    5.7187150   -0.3483295 
