90
Energy =
C     2.6735473   -0.8206650    1.3162076 
C     1.6734872   -0.5209579    2.2600513 
C     0.5362410   -1.3813053    2.4219545 
H     1.6993184    0.4469658    2.7747609 
Pd    0.5668962   -0.6067566    0.3503898 
P     1.1428751    0.9243887   -1.3706192 
P    -1.4064271   -1.6560217   -0.3885730 
H     2.6925136   -1.8465681    0.9160540 
H     0.6877717   -2.4608380    2.2901536 
C     6.2140397    1.4151435    0.3820409 
C     5.3555880    1.8731121    1.3955196 
C     4.1948467    1.1635102    1.7126744 
C     3.8704063   -0.0279814    1.0226060 
C     4.7547149   -0.4872048    0.0161764 
C     5.9113221    0.2304326   -0.3069599 
H     7.1224417    1.9754040    0.1380909 
H     5.5927757    2.7914420    1.9410112 
H     3.5417774    1.5357234    2.5063741 
H     4.5284532   -1.4237129   -0.5073188 
H     6.5846745   -0.1403082   -1.0865581 
C    -2.9207210   -0.3013295    4.7567138 
C    -2.0574004    0.7012712    4.2820642 
C    -0.9284714    0.3596763    3.5308275 
C    -0.6284856   -0.9958113    3.2424809 
C    -1.5010587   -1.9916099    3.7370039 
C    -2.6357066   -1.6468781    4.4814312 
H    -3.8068288   -0.0331740    5.3410727 
H    -2.2700383    1.7543458    4.4942301 
H    -0.2828757    1.1571126    3.1471076 
H    -1.2865350   -3.0447320    3.5292902 
H    -3.2998161   -2.4362039    4.8480882 
C     1.1062876   -1.9253005   -2.9385979 
C     1.9467338   -0.8110123   -3.5912034 
C    -0.4108049   -1.6778121   -3.0661819 
C     2.3532765    0.3533716   -2.6561040 
C    -1.2367237   -2.4816070   -2.0517627 
C     1.9942496    2.3430827   -0.5460832 
C    -0.2188570    1.8037573   -2.2422844 
C    -2.8667077   -0.5577266   -0.4951974 
C    -1.9560179   -3.0814989    0.6394143 
C     1.4364888    2.8171200    0.6615851 
C    -0.1816568    2.0990088   -3.6201127 
C    -3.2146894    0.1536831    0.6749336 
C    -3.2546241   -3.1971190    1.1685829 
C     3.1140289    3.0027625   -1.0858357 
C    -1.3131387    2.2461041   -1.4712394 
C    -3.6306020   -0.3822026   -1.6644059 
C    -1.0160104   -4.1068012    0.8841812 
C     1.9761709    3.9369160    1.3063079 
C    -1.2301977    2.8162979   -4.2144907 
C    -4.3226496    1.0091273    0.6769513 
C    -3.6040815   -4.3208638    1.9338221 
C     3.6570738    4.1194643   -0.4334683 
C    -2.3467199    2.9804175   -2.0645012 
C    -4.7348860    0.4828948   -1.6583699 
C    -1.3699023   -5.2280437    1.6443269 
C     3.0891717    4.5926076    0.7575612 
C    -2.3107423    3.2610941   -3.4387759 
C    -5.0863132    1.1744536   -0.4904845 
C    -2.6665936   -5.3344212    2.1754715 
H     1.3857056   -2.0206367   -1.8670651 
H     1.3442550   -2.8999285   -3.4016774 
H     2.8847648   -1.2312269   -3.9950785 
H     1.3964065   -0.4135291   -4.4635304 
H    -0.7289586   -1.9453796   -4.0905378 
H    -0.6411994   -0.6012877   -2.9607092 
H     3.2244890    0.0594702   -2.0425043 
H     2.6722675    1.2235545   -3.2563005 
H    -2.2612669   -2.6930999   -2.4050486 
H    -0.7723154   -3.4637064   -1.8538477 
H     0.5688394    2.3043345    1.0946019 
H     0.6623313    1.7796269   -4.2388774 
H    -2.6202131    0.0313829    1.5868738 
H    -3.9947507   -2.4115983    0.9898454 
H     3.5787832    2.6562741   -2.0127727 
H    -1.3611291    2.0117594   -0.4026325 
H    -3.3718279   -0.9050678   -2.5896305 
H     0.0006070   -4.0269474    0.4779720 
H     1.5279239    4.2978344    2.2380148 
H    -1.1948938    3.0367370   -5.2864788 
H    -4.5886562    1.5460333    1.5934612 
H    -4.6168123   -4.4006499    2.3423000 
H     4.5309555    4.6206264   -0.8622998 
H    -3.1867237    3.3207346   -1.4518015 
H    -5.3204241    0.6165217   -2.5736019 
H    -0.6342647   -6.0186054    1.8251871 
H     3.5138721    5.4682626    1.2591021 
H    -3.1230528    3.8280078   -3.9052037 
H    -5.9522247    1.8446516   -0.4900390 
H    -2.9433763   -6.2083717    2.7738943 
