90
Energy =
C    -1.4417761    0.7777381    2.1257272 
C    -0.0791555    1.0848538    2.3470639 
C     0.5939801    2.0611785    1.5601736 
H     0.4896109    0.4766172    3.0612649 
Pd   -0.1954043    0.3956866    0.2467492 
P    -1.4113967   -1.4968126   -0.4432893 
P     1.0003619    1.0884080   -1.6576863 
H    -2.0464994    1.5363694    1.6045063 
H    -0.0201024    2.8508279    1.1026465 
C    -3.7908376   -1.9563782    4.4635811 
C    -4.3774772   -0.8289469    3.8707753 
C    -3.6037273    0.0347888    3.0871291 
C    -2.2222293   -0.1967325    2.9058045 
C    -1.6428499   -1.3360552    3.5104566 
C    -2.4214148   -2.2104064    4.2740683 
H    -4.3969657   -2.6384166    5.0688099 
H    -5.4448164   -0.6280030    4.0068587 
H    -4.0713815    0.9008859    2.6066427 
H    -0.5796908   -1.5503852    3.3688389 
H    -1.9586710   -3.0939977    4.7255996 
C     4.7631592    3.0725644    1.9218955 
C     3.8728273    3.9237567    1.2516681 
C     2.5170241    3.5883909    1.1553556 
C     2.0244146    2.3850748    1.7084048 
C     2.9333485    1.5431602    2.3922834 
C     4.2835658    1.8862136    2.5019236 
H     5.8231808    3.3341483    2.0009523 
H     4.2335170    4.8591484    0.8111528 
H     1.8213399    4.2677674    0.6537201 
H     2.5872490    0.6014824    2.8318808 
H     4.9705046    1.2218201    3.0365386 
C     1.0915561   -2.1190106   -2.6928498 
C    -0.2733499   -2.8246617   -2.7594852 
C     1.2948828   -0.9490891   -3.6724256 
C    -1.5017659   -2.0634800   -2.2297720 
C     0.5924421    0.3806429   -3.3425386 
C    -3.2043492   -1.3218255   -0.0725410 
C    -0.7836528   -2.9940499    0.4137331 
C     2.8260793    0.9821441   -1.6156490 
C     0.5263251    2.8528755   -1.8890137 
C    -3.8555122   -0.2065675   -0.6444216 
C     0.3897483   -2.8871971    1.1868450 
C     3.6282269    1.5161612   -2.6494129 
C     1.4471557    3.9147864   -1.9723241 
C    -3.9433910   -2.2191596    0.7190669 
C    -1.3861587   -4.2606953    0.2510926 
C     3.4351633    0.2648061   -0.5699110 
C    -0.8572710    3.1356189   -1.9488136 
C    -5.2293648   -0.0126215   -0.4550088 
C     0.9359799   -4.0152279    1.8143360 
C     5.0189182    1.3572042   -2.6111113 
C     0.9889996    5.2335210   -2.1221591 
C    -5.3201192   -2.0213585    0.9038159 
C    -0.8415982   -5.3861893    0.8837928 
C     4.8274493    0.1065074   -0.5359614 
C    -1.3090335    4.4518954   -2.1023509 
C    -5.9668658   -0.9270079    0.3144862 
C     0.3154671   -5.2646065    1.6697094 
C     5.6200058    0.6570217   -1.5520846 
C    -0.3844015    5.5054246   -2.1891527 
H     1.8616125   -2.8771943   -2.9212732 
H     1.3031649   -1.7920450   -1.6545257 
H    -0.4834407   -3.1015581   -3.8106821 
H    -0.1982327   -3.7767120   -2.2043901 
H     0.9701712   -1.2614734   -4.6837290 
H     2.3778263   -0.7461882   -3.7502102 
H    -1.7390113   -1.1683811   -2.8300358 
H    -2.3925980   -2.7148402   -2.2862161 
H     0.8898660    1.1520621   -4.0755668 
H    -0.5073048    0.3097989   -3.3949699 
H    -3.2825144    0.5150638   -1.2402059 
H     0.8743902   -1.9067144    1.2865162 
H     3.1701137    2.0506968   -3.4888149 
H     2.5209705    3.7212664   -1.9018735 
H    -3.4482244   -3.0543748    1.2216589 
H    -2.2792255   -4.3746918   -0.3727641 
H     2.8096411   -0.1683051    0.2177706 
H    -1.5854310    2.3190072   -1.8648600 
H    -5.7254166    0.8518171   -0.9085737 
H     1.8473476   -3.9191881    2.4135653 
H     5.6357895    1.7767144   -3.4125216 
H     1.7141394    6.0518035   -2.1834689 
H    -5.8834126   -2.7221691    1.5282106 
H    -1.3190676   -6.3633249    0.7575125 
H     5.2916000   -0.4444055    0.2880142 
H    -2.3834962    4.6569659   -2.1507585 
H    -7.0413707   -0.7780032    0.4624113 
H     0.7387173   -6.1473328    2.1599895 
H     6.7078168    0.5353965   -1.5259171 
H    -0.7356742    6.5357011   -2.3056793 
