90
Energy =
C     1.9656631    0.7260768    1.8376275 
C     0.7578012    0.4364139    2.5440875 
C     0.2784938   -0.8859266    2.6612533 
H     0.1358936    1.2718385    2.8901148 
Pd    0.4906466   -0.1821503    0.4495400 
P    -1.5242886   -1.1917021   -0.2967683 
P     1.6005151    0.4797535   -1.5107025 
H     2.7467225   -0.0491818    1.8345595 
H     1.0004762   -1.6935168    2.4660195 
C     3.3997683    4.7599606    1.3830287 
C     2.0359807    4.4787246    1.1960997 
C     1.5644718    3.1696563    1.3368335 
C     2.4472897    2.1135972    1.6589876 
C     3.8156502    2.4077910    1.8311930 
C     4.2856446    3.7208182    1.7019316 
H     3.7692314    5.7848872    1.2744792 
H     1.3398718    5.2830502    0.9360396 
H     0.5023112    2.9533434    1.1742017 
H     4.5147976    1.5996446    2.0695400 
H     5.3509380    3.9303242    1.8419245 
C    -3.1590893   -2.2068663    4.8710161 
C    -2.3201728   -3.1315648    4.2316999 
C    -1.2141745   -2.6836798    3.5012025 
C    -0.9285447   -1.3026846    3.3860303 
C    -1.7930962   -0.3822925    4.0247594 
C    -2.8901355   -0.8319586    4.7632386 
H    -4.0188542   -2.5538987    5.4533555 
H    -2.5204532   -4.2049544    4.3112763 
H    -0.5550280   -3.4110896    3.0170660 
H    -1.6044092    0.6926689    3.9545734 
H    -3.5431863   -0.1056477    5.2568517 
C    -0.4936505   -1.1837125   -3.7433223 
C    -1.8869396   -1.5614851   -3.2228734 
C     0.6661943   -1.8306916   -2.9502104 
C    -2.3383138   -0.8163487   -1.9520681 
C     1.8767658   -0.9187836   -2.7245306 
C    -1.5558456   -3.0245236   -0.1963655 
C    -2.8651061   -0.5611749    0.8050357 
C     3.3198924    1.1083448   -1.3143622 
C     0.7246237    1.8090006   -2.4258912 
C    -2.6803561   -3.7784154   -0.5978285 
C    -2.9383798    0.8375081    0.9835357 
C     4.3109911    0.2185316   -0.8451618 
C     1.1290439    2.2127204   -3.7169158 
C    -0.4010642   -3.7015017    0.2446628 
C    -3.8329315   -1.3812622    1.4137132 
C     3.6716822    2.4424266   -1.5944395 
C    -0.3804472    2.4394848   -1.8240816 
C    -2.6540596   -5.1778971   -0.5266253 
C    -3.9815246    1.4079724    1.7243126 
C     5.6376643    0.6446899   -0.7055517 
C     0.4257659    3.2189744   -4.3912380 
C    -0.3748478   -5.1012142    0.3114161 
C    -4.8728610   -0.8060072    2.1584461 
C     5.0010314    2.8650012   -1.4479117 
C    -1.0839106    3.4465384   -2.4997648 
C    -1.5046668   -5.8406336   -0.0683084 
C    -4.9576710    0.5854309    2.3065623 
C     5.9873775    1.9682404   -1.0162629 
C    -0.6827363    3.8343930   -3.7862644 
H    -0.4046543   -0.0829655   -3.7322844 
H    -0.4116685   -1.4761494   -4.8051994 
H    -2.6361253   -1.3191208   -3.9990404 
H    -1.9543682   -2.6546539   -3.0649346 
H     1.0094318   -2.7425689   -3.4714011 
H     0.3103545   -2.1812874   -1.9641124 
H    -2.2349564    0.2766546   -2.0848780 
H    -3.4115852   -1.0084365   -1.7733132 
H     2.7157712   -1.4942280   -2.2962496 
H     2.2461192   -0.4771953   -3.6682259 
H    -3.5813597   -3.2779268   -0.9680805 
H    -2.1719966    1.4838173    0.5398865 
H     4.0505193   -0.8150720   -0.5867098 
H     1.9955973    1.7460509   -4.1977090 
H     0.4849353   -3.1201311    0.5268259 
H    -3.7700002   -2.4695028    1.3301122 
H     2.9111237    3.1579794   -1.9193472 
H    -0.6861025    2.1256266   -0.8200299 
H    -3.5329275   -5.7531901   -0.8354375 
H    -4.0307464    2.4949464    1.8478798 
H     6.3997802   -0.0583758   -0.3534840 
H     0.7435841    3.5246435   -5.3933434 
H     0.5289888   -5.6145147    0.6555994 
H    -5.6147423   -1.4553757    2.6342846 
H     5.2609853    3.9054660   -1.6671878 
H    -1.9447735    3.9258585   -2.0222420 
H    -1.4871447   -6.9341838   -0.0176490 
H    -5.7743125    1.0278845    2.8861866 
H     7.0249352    2.3008908   -0.9095854 
H    -1.2311175    4.6180194   -4.3190965 
