90
Energy =
C     1.4734289    1.2449006    1.7845122 
C     0.2094165    0.9675223    2.3676418 
C    -0.2150996   -0.3680402    2.5920316 
H    -0.4975419    1.7892413    2.5308806 
Pd    0.1727999    0.0131134    0.3831638 
P    -1.3835831   -1.5906518   -0.3431509 
P     1.1889528    0.8402602   -1.5680645 
H     2.2445204    0.4673588    1.8862415 
H     0.5750620   -1.1276108    2.6829754 
C     3.1272059    5.1630293    1.1599833 
C     3.9412168    4.0228651    1.0947384 
C     3.3824283    2.7511695    1.2715094 
C     1.9990777    2.5944885    1.5191644 
C     1.1859799    3.7518790    1.5486011 
C     1.7467128    5.0203603    1.3802145 
H     3.5631046    6.1593411    1.0332541 
H     5.0168488    4.1232877    0.9163575 
H     4.0243973    1.8645897    1.2310527 
H     0.1061213    3.6631315    1.7023944 
H     1.1028384    5.9048059    1.4129154 
C    -3.8850903   -1.5409601    4.4984062 
C    -3.7461632   -0.2313355    4.0084049 
C    -2.5742324    0.1574185    3.3547760 
C    -1.5032454   -0.7526646    3.1926552 
C    -1.6660329   -2.0735939    3.6702451 
C    -2.8449124   -2.4638622    4.3170817 
H    -4.8038155   -1.8401376    5.0133186 
H    -4.5613192    0.4886963    4.1306361 
H    -2.4944812    1.1775931    2.9669673 
H    -0.8520404   -2.7951619    3.5418585 
H    -2.9462390   -3.4884937    4.6894435 
C     0.8079722   -2.2971415   -2.8402312 
C    -0.6587171   -2.7620857   -2.8830697 
C     1.1589939   -1.0858031   -3.7219802 
C    -1.7059812   -1.8928814   -2.1628085 
C     0.6454264    0.2949039   -3.2751967 
C    -1.0421593   -3.2858643    0.2728733 
C    -3.0597436   -1.0863678    0.2205967 
C     2.9994791    0.5449567   -1.6327954 
C     0.8847715    2.6500822   -1.6789195 
C    -1.9300318   -4.3579657    0.0327793 
C    -3.4748374    0.2146616   -0.1405827 
C     3.8050286    1.0827176   -2.6608995 
C    -0.4669259    3.0594407   -1.6477023 
C     0.1836026   -3.5450528    0.9173732 
C    -3.9310438   -1.9042524    0.9627272 
C     3.5847795   -0.3209448   -0.6880183 
C     1.8946066    3.6225387   -1.7947793 
C    -1.6116692   -5.6498849    0.4718930 
C    -4.7508261    0.6756815    0.2053444 
C     5.1750715    0.7929972   -2.7082536 
C    -0.8025293    4.4138162   -1.7621284 
C     0.5036222   -4.8396605    1.3499485 
C    -5.2072484   -1.4366426    1.3087582 
C     4.9543881   -0.6156908   -0.7413392 
C     1.5529268    4.9781947   -1.9069433 
C    -0.3988106   -5.8916269    1.1364227 
C    -5.6235925   -0.1543069    0.9261776 
C     5.7529901   -0.0500783   -1.7457683 
C     0.2095400    5.3769682   -1.8985779 
H     1.4293747   -3.1427888   -3.1849704 
H     1.1209634   -2.1125494   -1.7925080 
H    -0.9749281   -2.8617100   -3.9394341 
H    -0.7120698   -3.7784808   -2.4534417 
H     0.7832593   -1.2664991   -4.7476200 
H     2.2589468   -1.0257726   -3.8080229 
H    -1.8306909   -0.8990879   -2.6255859 
H    -2.6950787   -2.3826125   -2.2146090 
H     1.0163581    1.0719660   -3.9677537 
H    -0.4552883    0.3682705   -3.2922941 
H    -2.8711925   -4.1902789   -0.5016928 
H    -2.7906621    0.8713082   -0.6912367 
H     3.3662007    1.7267743   -3.4304814 
H    -1.2604783    2.3118053   -1.5299895 
H     0.8942971   -2.7241158    1.0677420 
H    -3.6129893   -2.8939976    1.2993585 
H     2.9547510   -0.7747132    0.0858254 
H     2.9486239    3.3353694   -1.7696254 
H    -2.3106503   -6.4724168    0.2885074 
H    -5.0630607    1.6840510   -0.0856282 
H     5.7928151    1.2223629   -3.5037451 
H    -1.8543201    4.7178143   -1.7434796 
H     1.4593498   -5.0270601    1.8501411 
H    -5.8727644   -2.0791411    1.8940494 
H     5.3965075   -1.2902366   -0.0008628 
H     2.3482170    5.7259997   -1.9876540 
H    -0.1529621   -6.9030360    1.4759177 
H    -6.6216892    0.2037034    1.1986639 
H     6.8236431   -0.2750845   -1.7874404 
H    -0.0498813    6.4369081   -1.9872397 
