90
Energy =
C     0.1953599   -0.8772926    2.7610460 
C     1.2988131    0.0095888    2.5411870 
C     1.0684145    1.3706661    2.2438969 
H     2.3151665   -0.3967880    2.4682364 
Pd    0.0807396   -0.0646112    0.7125594 
P     0.6903494    0.9874251   -1.3008932 
P    -1.6136818   -1.5490999    0.0141038 
H    -0.7097069   -0.4543618    3.2196401 
H     0.0695619    1.7633688    2.4915762 
C     0.5455089   -5.1535990    3.1344879 
C     1.5146514   -4.4350836    2.4122354 
C     1.4163288   -3.0452018    2.2936064 
C     0.3474950   -2.3394807    2.8987797 
C    -0.6184497   -3.0752801    3.6198686 
C    -0.5190317   -4.4678005    3.7368666 
H     0.6231586   -6.2418271    3.2259471 
H     2.3472064   -4.9638015    1.9362978 
H     2.1634338   -2.5024212    1.7034137 
H    -1.4566424   -2.5468682    4.0862952 
H    -1.2792897   -5.0183007    4.3006136 
C     3.9352701    4.4746049    1.4820843 
C     2.5635119    4.7628459    1.5401307 
C     1.6459233    3.7375112    1.7881097 
C     2.0758610    2.4018107    1.9740452 
C     3.4624491    2.1292660    1.9135669 
C     4.3792230    3.1559578    1.6739256 
H     4.6583447    5.2747714    1.2937068 
H     2.2095706    5.7893352    1.4007819 
H     0.5778917    3.9712776    1.8500964 
H     3.8301449    1.1102858    2.0629473 
H     5.4484797    2.9271636    1.6334423 
C     1.1946983   -2.3678650   -1.7267328 
C     1.4452322   -1.3430215   -2.8468670 
C    -0.1559940   -3.1148464   -1.8580283 
C     0.5409809   -0.0943935   -2.8208410 
C    -0.9891936   -3.1954060   -0.5646080 
C    -0.2165641    2.5238545   -1.7359051 
C     2.4739150    1.4447556   -1.3013125 
C    -2.7049667   -0.9276512   -1.3318914 
C    -2.8032309   -1.9132320    1.3704175 
C    -0.2753472    3.0375405   -3.0478554 
C     2.9407806    2.7009406   -1.7333268 
C    -3.3444137   -1.7785654   -2.2573535 
C    -3.2931561   -0.8178242    2.1135087 
C    -0.8848393    3.2121152   -0.7023160 
C     3.4078680    0.4707376   -0.8817365 
C    -2.9233371    0.4614999   -1.4117198 
C    -3.2376012   -3.2124662    1.6937065 
C    -0.9930070    4.2121466   -3.3156717 
C     4.3182834    2.9591987   -1.7843629 
C    -4.1623428   -1.2369617   -3.2590487 
C    -4.2013652   -1.0181883    3.1597368 
C    -1.5983380    4.3873952   -0.9698581 
C     4.7830313    0.7252200   -0.9583271 
C    -3.7437694    1.0007574   -2.4108707 
C    -4.1468522   -3.4099099    2.7443760 
C    -1.6551705    4.8882731   -2.2797657 
C     5.2409872    1.9692385   -1.4170532 
C    -4.3586978    0.1507748   -3.3418508 
C    -4.6283053   -2.3179635    3.4791417 
H     1.2377406   -1.8520274   -0.7425632 
H     2.0236159   -3.0968634   -1.7157029 
H     2.5021271   -1.0232982   -2.8322805 
H     1.2953548   -1.8359119   -3.8265362 
H     0.0261335   -4.1485469   -2.2010337 
H    -0.7706972   -2.6462461   -2.6488297 
H     0.7766703    0.5366864   -3.6948231 
H    -0.5304912   -0.3599496   -2.8867799 
H    -1.8539944   -3.8664546   -0.7102359 
H    -0.3948405   -3.6038098    0.2741540 
H     0.2380187    2.5290332   -3.8698234 
H     2.2315259    3.4800381   -2.0289250 
H    -3.2135964   -2.8640776   -2.2043133 
H    -2.9565582    0.1975619    1.8696838 
H    -0.8565360    2.8045377    0.3142031 
H     3.0551347   -0.4899434   -0.4893628 
H    -2.4385522    1.1260939   -0.6906664 
H    -2.8631145   -4.0823884    1.1475363 
H    -1.0344155    4.5995123   -4.3388854 
H     4.6700421    3.9411071   -2.1172712 
H    -4.6500683   -1.9037122   -3.9777101 
H    -4.5764069   -0.1607619    3.7280173 
H    -2.1156656    4.9088871   -0.1578299 
H     5.4969856   -0.0445552   -0.6470982 
H    -3.8898811    2.0845190   -2.4634639 
H    -4.4730245   -4.4255601    2.9911540 
H    -2.2164487    5.8037240   -2.4935079 
H     6.3154082    2.1723185   -1.4725581 
H    -4.9943268    0.5666309   -4.1303895 
H    -5.3354801   -2.4767582    4.2996559 
