90
Energy =
C     1.7071663    0.9753188    1.8069002 
C     0.4708561    0.6921219    2.4418102 
C     0.0128361   -0.6422044    2.5906184 
H    -0.1897079    1.5209331    2.7246524 
Pd    0.3066234   -0.1327703    0.3892103 
P    -1.2180245   -1.7597518   -0.3665119 
P     1.3408488    0.6970357   -1.5562851 
H     2.4517691    0.1650117    1.7808871 
H     0.7735486   -1.4371397    2.5596087 
C     3.4494553    4.8722885    1.2875597 
C     2.0634855    4.7566306    1.4907390 
C     1.4791332    3.4988800    1.6579635 
C     2.2663695    2.3240552    1.6184308 
C     3.6588568    2.4569831    1.4176846 
C     4.2449528    3.7182507    1.2576017 
H     3.9047263    5.8595429    1.1582892 
H     1.4365065    5.6537610    1.5156307 
H     0.3976261    3.4303989    1.8119077 
H     4.2836244    1.5578198    1.3890175 
H     5.3263521    3.7976342    1.1057205 
C    -3.6137498   -1.8633753    4.5523857 
C    -3.5027917   -0.5518875    4.0592049 
C    -2.3338937   -0.1384558    3.4156220 
C    -1.2486068   -1.0294494    3.2435011 
C    -1.3735403   -2.3431865    3.7487679 
C    -2.5426645   -2.7549369    4.3995949 
H    -4.5307942   -2.1842400    5.0570910 
H    -4.3351788    0.1496417    4.1758033 
H    -2.2691773    0.8858701    3.0352735 
H    -0.5408039   -3.0443843    3.6282886 
H    -2.6166035   -3.7770361    4.7850670 
C    -1.4979270   -0.0319130   -3.2779273 
C    -1.9347961   -1.5022028   -3.1594116 
C    -0.1558953    0.2170895   -3.9874911 
C    -1.2004989   -2.3847959   -2.1338771 
C     1.1318286   -0.1370088   -3.2222072 
C    -0.9020162   -3.3288729    0.5437174 
C    -2.9695181   -1.2765004   -0.1272089 
C     3.1661313    0.5696082   -1.3504417 
C     0.9045095    2.4394808   -1.9196747 
C     0.4375001   -3.7760584    0.5772477 
C    -4.0428250   -2.1384185   -0.4446057 
C     3.6641686   -0.6849776   -0.9340758 
C     1.4722028    3.1527672   -2.9988651 
C    -1.8945923   -4.0863035    1.1928680 
C    -3.2471063    0.0362306    0.2994672 
C     4.0687358    1.6248510   -1.5784031 
C    -0.1001627    3.0512607   -1.1458979 
C     0.7740375   -4.9680748    1.2306125 
C    -5.3649873   -1.6985920   -0.2997316 
C     5.0402730   -0.8853580   -0.7688965 
C     1.0630197    4.4653917   -3.2674931 
C    -1.5539308   -5.2831779    1.8423028 
C    -4.5704091    0.4768154    0.4357181 
C     5.4476981    1.4184019   -1.4166361 
C    -0.5135704    4.3616254   -1.4213483 
C    -0.2248947   -5.7272800    1.8622966 
C    -5.6303566   -0.3931159    0.1444152 
C     5.9365559    0.1679335   -1.0150736 
C     0.0740238    5.0726867   -2.4768831 
H    -1.5002330    0.4512590   -2.2797956 
H    -2.2768163    0.4952424   -3.8570230 
H    -3.0113145   -1.5236816   -2.9139297 
H    -1.8391582   -1.9887662   -4.1493294 
H    -0.1031847    1.2856171   -4.2618857 
H    -0.1425657   -0.3429335   -4.9425024 
H    -1.6691408   -3.3848729   -2.1017942 
H    -0.1404301   -2.5500924   -2.3925561 
H     1.2376509   -1.2205587   -3.0410815 
H     2.0125621    0.1625492   -3.8184326 
H     1.2228389   -3.1801557    0.0949079 
H    -3.8521490   -3.1511499   -0.8159298 
H     2.9665128   -1.5072770   -0.7301954 
H     2.2270865    2.6844040   -3.6396712 
H    -2.9288530   -3.7345127    1.2244402 
H    -2.4111022    0.7118002    0.5173173 
H     3.7034643    2.6183026   -1.8509107 
H    -0.5593528    2.4840899   -0.3271395 
H     1.8158224   -5.3045394    1.2490245 
H    -6.1912947   -2.3744542   -0.5429048 
H     5.4142901   -1.8626318   -0.4465758 
H     1.5118293    5.0135383   -4.1022436 
H    -2.3341469   -5.8610186    2.3484922 
H    -4.7733484    1.4995723    0.7698140 
H     6.1397176    2.2486367   -1.5918014 
H    -1.2940767    4.8273584   -0.8108074 
H     0.0360500   -6.6590513    2.3744274 
H    -6.6653544   -0.0528111    0.2527259 
H     7.0127857    0.0135000   -0.8866948 
H    -0.2444867    6.0977845   -2.6924761 
