90
Energy =
C     2.6609870   -0.7714428    1.3678666 
C     1.6435335   -0.4696188    2.2922561 
C     0.5127888   -1.3395942    2.4482827 
H     1.6515119    0.5053505    2.7941037 
Pd    0.5674076   -0.5931921    0.3673830 
P    -1.3817886   -1.6771184   -0.3869731 
P     1.1543980    0.9201883   -1.3659656 
H     2.6967305   -1.8023873    0.9820562 
H     0.6775229   -2.4191696    2.3340040 
C     6.1927628    1.4882810    0.4585860 
C     5.9128637    0.2914210   -0.2189917 
C     4.7586966   -0.4337892    0.0958950 
C     3.8539520    0.0298441    1.0819558 
C     4.1552311    1.2339831    1.7605090 
C     5.3137977    1.9509947    1.4521492 
H     7.0992649    2.0544805    0.2213765 
H     6.6021110   -0.0827914   -0.9828852 
H     4.5503449   -1.3797016   -0.4180194 
H     3.4857300    1.6103715    2.5383949 
H     5.5331325    2.8789019    1.9888321 
C    -2.9914974   -0.2632697    4.7129955 
C    -2.6886682   -1.6095003    4.4609845 
C    -1.5388582   -1.9528065    3.7395078 
C    -0.6686156   -0.9549574    3.2450023 
C    -0.9868336    0.4012443    3.5094679 
C    -2.1308849    0.7415328    4.2380660 
H    -3.8894076    0.0037895    5.2795687 
H    -3.3504962   -2.4004549    4.8282672 
H    -1.3105218   -3.0064141    3.5498301 
H    -0.3432369    1.1998108    3.1247883 
H    -2.3574871    1.7951833    4.4321179 
C     1.1718990   -1.9503534   -2.8964547 
C    -0.3458926   -1.7222304   -3.0489144 
C     2.0088736   -0.8348785   -3.5514868 
C    -1.1769472   -2.5227449   -2.0360488 
C     2.3899780    0.3449402   -2.6252431 
C    -1.9285697   -3.0956194    0.6522222 
C    -2.8544166   -0.5996934   -0.5302291 
C     1.9779606    2.3593327   -0.5487637 
C    -0.2040141    1.7716557   -2.2697367 
C    -0.9791218   -4.1048376    0.9257114 
C    -3.6016472   -0.4490982   -1.7135985 
C     3.1003008    3.0221474   -1.0792569 
C    -1.3169840    2.2068460   -1.5217277 
C    -3.2335816   -3.2212269    1.1630483 
C    -3.2307168    0.1215068    0.6250573 
C     1.3954606    2.8451396    0.6424412 
C    -0.1479578    2.0523577   -3.6499695 
C    -1.3297918   -5.2196804    1.6967143 
C    -4.7176942    0.4004537   -1.7360799 
C     3.6216669    4.1532704   -0.4340758 
C    -2.3509789    2.9195076   -2.1401711 
C    -3.5799478   -4.3385539    1.9390253 
C    -4.3502286    0.9613583    0.5986190 
C     1.9136537    3.9790870    1.2799452 
C    -1.1966485    2.7477087   -4.2695672 
C    -2.6329275   -5.3357747    2.2097391 
C    -5.0973741    1.1013919   -0.5827252 
C     3.0294948    4.6376701    0.7404719 
C    -2.2962753    3.1851826   -3.5168017 
H     1.4276905   -2.9280986   -3.3431812 
H     1.4367740   -2.0285300   -1.8198657 
H    -0.5899705   -0.6471864   -2.9605076 
H    -0.6461903   -2.0064410   -4.0741679 
H     1.4660723   -0.4540065   -4.4358681 
H     2.9568439   -1.2494590   -3.9375836 
H    -2.1933370   -2.7519538   -2.4015305 
H    -0.7032780   -3.4960811   -1.8178651 
H     3.2545082    0.0673373   -1.9948331 
H     2.7097084    1.2106039   -3.2315497 
H     0.0424007   -4.0173022    0.5336494 
H    -3.3209700   -0.9797555   -2.6279370 
H     3.5839391    2.6670012   -1.9931628 
H    -1.3792161    1.9836051   -0.4514499 
H    -3.9812441   -2.4484277    0.9616673 
H    -2.6495090    0.0187700    1.5479011 
H     0.5252681    2.3304590    1.0680648 
H     0.7106742    1.7382852   -4.2510813 
H    -0.5866585   -5.9976480    1.9001283 
H    -5.2901345    0.5146494   -2.6621662 
H     4.4978893    4.6566987   -0.8554124 
H    -3.2058636    3.2543347   -1.5452872 
H    -4.5976763   -4.4260095    2.3332594 
H    -4.6384315    1.5056559    1.5039824 
H     1.4464187    4.3488295    2.1987744 
H    -1.1467942    2.9567005   -5.3432668 
H    -2.9072318   -6.2045743    2.8167475 
H    -5.9723067    1.7594178   -0.6044966 
H     3.4375059    5.5243446    1.2364757 
H    -3.1089245    3.7347471   -4.0029941 
