90
Energy =
C     1.8387250    0.8352730    1.8194719 
C     0.6613205    0.4011040    2.4870004 
C     0.2915331   -0.9652301    2.5389052 
H    -0.0504466    1.1471199    2.8615338 
Pd    0.4394017   -0.2364884    0.3907799 
P    -1.3135192   -1.5699843   -0.4453812 
P     1.1913465    0.8263691   -1.5635573 
H     2.6589672    0.1093155    1.7240977 
H     1.0927670   -1.7125697    2.4295293 
C     3.1124307    4.9420222    1.5485616 
C     1.7944647    4.6457068    1.9325836 
C     1.3591642    3.3183367    1.9976126 
C     2.2417358    2.2501297    1.7089717 
C     3.5679019    2.5649167    1.3303160 
C     3.9956887    3.8947826    1.2416588 
H     3.4491478    5.9822523    1.4918439 
H     1.0967369    5.4553381    2.1695197 
H     0.3189608    3.1158748    2.2711046 
H     4.2689080    1.7557603    1.1041812 
H     5.0260803    4.1125888    0.9428055 
C    -3.2201238   -2.4193742    4.5505023 
C    -3.2565450   -1.1717548    3.9056516 
C    -2.1253579   -0.6915221    3.2389561 
C    -0.9345802   -1.4525201    3.1980463 
C    -0.9179991   -2.7129817    3.8337703 
C    -2.0473164   -3.1874688    4.5112349 
H    -4.1055457   -2.7930796    5.0749802 
H    -4.1725889   -0.5720444    3.9196074 
H    -2.1745773    0.2742981    2.7269403 
H    -0.0082172   -3.3213717    3.7991963 
H    -2.0130909   -4.1647806    5.0029442 
C     1.2844643   -2.4291974   -2.5440258 
C    -0.1163142   -3.0576447   -2.6562958 
C     1.5937068   -1.2633721   -3.5027471 
C    -1.3186072   -2.2065441   -2.2075583 
C     0.8778345    0.0768876   -3.2465700 
C    -1.5858505   -3.1233610    0.4983539 
C    -2.8675386   -0.5877867   -0.4175515 
C     3.0136826    1.0368896   -1.6360704 
C     0.3979620    2.4726855   -1.6932940 
C    -0.4724823   -3.9797911    0.6469982 
C    -4.0911280   -1.0951339   -0.9085341 
C     3.6292761    2.0627146   -2.3818529 
C    -0.9263861    2.5432630   -2.1829389 
C    -2.8251227   -3.5029142    1.0456497 
C    -2.8168696    0.7425335    0.0480624 
C     3.8169194    0.0572858   -1.0169527 
C     1.0170391    3.6456267   -1.2153473 
C    -0.6114086   -5.2182347    1.2867441 
C    -5.2390727   -0.2913614   -0.9088229 
C     5.0271347    2.1287921   -2.4642692 
C    -1.6056028    3.7667472   -2.2151247 
C    -2.9551652   -4.7391312    1.6953612 
C    -3.9645777    1.5468273    0.0388740 
C     5.2136421    0.1151411   -1.1175242 
C     0.3314903    4.8684455   -1.2556067 
C    -1.8573812   -5.6039409    1.8046585 
C    -5.1787600    1.0285219   -0.4338099 
C     5.8207613    1.1598102   -1.8308799 
C    -0.9761136    4.9346725   -1.7554423 
H     2.0208979   -3.2271525   -2.7478794 
H     1.4710603   -2.1121625   -1.4966022 
H    -0.2954788   -3.3450971   -3.7101959 
H    -0.1272236   -4.0032175   -2.0845805 
H     1.3557148   -1.5753407   -4.5377048 
H     2.6831838   -1.0776167   -3.4852083 
H    -1.4599331   -1.3180673   -2.8449098 
H    -2.2403745   -2.8079575   -2.2998804 
H     1.2315879    0.8345892   -3.9691548 
H    -0.2123349   -0.0024661   -3.3807207 
H     0.5100420   -3.6703795    0.2707834 
H    -4.1567757   -2.1188580   -1.2917653 
H     3.0214776    2.8153830   -2.8946738 
H    -1.4423037    1.6420383   -2.5300537 
H    -3.6846942   -2.8294531    0.9913097 
H    -1.8611744    1.1517825    0.3999082 
H     3.3425595   -0.7538241   -0.4518468 
H     2.0315895    3.6113169   -0.8085908 
H     0.2558025   -5.8792042    1.3870981 
H    -6.1835561   -0.6964026   -1.2864714 
H     5.4978740    2.9380139   -3.0320563 
H    -2.6301537    3.8054336   -2.5993243 
H    -3.9209862   -5.0198031    2.1276226 
H    -3.9049732    2.5807061    0.3941718 
H     5.8276413   -0.6516641   -0.6340530 
H     0.8284021    5.7705625   -0.8846477 
H    -1.9669047   -6.5697469    2.3084489 
H    -6.0777752    1.6535558   -0.4399277 
H     6.9120369    1.2143346   -1.9007473 
H    -1.5061332    5.8922486   -1.7852000 
