90
Energy =
C     2.2363370    0.3558647    1.8151921 
C     1.0371055    0.1390289    2.5255201 
C     0.4133261   -1.1454915    2.5873422 
H     0.5017803    0.9989247    2.9494841 
Pd    0.5411935   -0.4767065    0.4673273 
P    -1.0285096   -2.0319677   -0.3789994 
P     0.9062672    0.9901534   -1.3696305 
H     2.8517074   -0.5287520    1.5880654 
H     1.0627386   -2.0333828    2.5698958 
C     4.4067331    4.0507665    1.5069833 
C     5.0333112    2.8234144    1.2466035 
C     4.3052607    1.6325168    1.3355768 
C     2.9387312    1.6411811    1.6983699 
C     2.3222197    2.8872313    1.9614747 
C     3.0477122    4.0772957    1.8622373 
H     4.9734760    4.9846093    1.4334748 
H     6.0909981    2.7931585    0.9676316 
H     4.7985725    0.6773717    1.1283350 
H     1.2676526    2.9322766    2.2454313 
H     2.5521770    5.0319313    2.0664871 
C    -3.3315838   -1.5668754    4.6704254 
C    -3.1323484   -0.4811164    3.8020439 
C    -1.9256053   -0.3523550    3.1073028 
C    -0.8920356   -1.3048730    3.2663051 
C    -1.1142867   -2.4009168    4.1252337 
C    -2.3208905   -2.5266527    4.8250740 
H    -4.2752416   -1.6685368    5.2161458 
H    -3.9236780    0.2627448    3.6619156 
H    -1.7876499    0.4825001    2.4101182 
H    -0.3296808   -3.1538764    4.2518476 
H    -2.4732023   -3.3819648    5.4910524 
C     1.3005268   -1.9111802   -3.0398947 
C    -0.0544105   -2.6556000   -3.0368369 
C     1.2575490   -0.5664708   -3.7788666 
C    -0.4360540   -3.2515009   -1.6767700 
C     0.3809063    0.4978119   -3.0974761 
C    -1.7439733   -3.2261313    0.8263318 
C    -2.4888653   -1.2274555   -1.1491476 
C     2.6465828    1.5378482   -1.6243107 
C    -0.0752589    2.5265329   -1.0815669 
C    -0.9391451   -4.2845876    1.3000569 
C    -2.7460644    0.1265574   -0.8619168 
C     3.6426405    0.5406857   -1.7151104 
C    -0.6340513    2.7466663    0.1937223 
C    -3.0786241   -3.1252863    1.2626191 
C    -3.3628214   -1.9258813   -2.0104938 
C     3.0150549    2.8887510   -1.7712270 
C    -0.3054978    3.4825129   -2.0937438 
C    -1.4770150   -5.2509341    2.1597521 
C    -3.8425789    0.7843504   -1.4358613 
C     4.9686060    0.8841221   -2.0083400 
C    -1.4035636    3.8868152    0.4580990 
C    -3.6065156   -4.0880186    2.1348382 
C    -4.4577314   -1.2667777   -2.5847382 
C     4.3475190    3.2288010   -2.0464249 
C    -1.0741303    4.6253237   -1.8302262 
C    -2.8145253   -5.1581390    2.5733983 
C    -4.6969969    0.0885149   -2.3028889 
C     5.3222141    2.2304502   -2.1829213 
C    -1.6255820    4.8300488   -0.5563526 
H     2.0787090   -2.5514203   -3.4911800 
H     1.6236890   -1.7382674   -1.9931573 
H    -0.8677131   -1.9884744   -3.3782186 
H    -0.0253092   -3.4805242   -3.7708752 
H     0.8655978   -0.7217840   -4.8022116 
H     2.2812854   -0.1704321   -3.9019281 
H    -1.2514863   -3.9896224   -1.7755599 
H     0.4190310   -3.7904815   -1.2306503 
H     0.3770832    1.4151420   -3.7097295 
H    -0.6701893    0.1678880   -2.9980451 
H     0.1109134   -4.3642081    0.9958738 
H    -2.0762027    0.6686364   -0.1890890 
H     3.3809782   -0.5104561   -1.5499799 
H    -0.4729794    1.9977166    0.9776482 
H    -3.7087288   -2.2992282    0.9194558 
H    -3.1981728   -2.9851419   -2.2328339 
H     2.2691935    3.6808349   -1.6590693 
H     0.1155316    3.3480655   -3.0951582 
H    -0.8484048   -6.0769602    2.5084884 
H    -4.0200095    1.8402856   -1.2071312 
H     5.7278416    0.0993122   -2.0901322 
H    -1.8321675    4.0359618    1.4546905 
H    -4.6443385   -3.9977489    2.4710274 
H    -5.1279893   -1.8139473   -3.2556665 
H     4.6227806    4.2833180   -2.1506934 
H    -1.2438594    5.3576751   -2.6262319 
H    -3.2346532   -5.9133194    3.2455098 
H    -5.5516624    0.5985673   -2.7592506 
H     6.3589115    2.5014728   -2.4076167 
H    -2.2284612    5.7218089   -0.3562550 
