90
Energy =
C     2.2194903    0.5157662    1.6870605 
C     1.4280042   -0.4168586    2.4372843 
C     1.4051127   -1.7811127    2.0920535 
H     0.7303126   -0.0478126    3.1986042 
Pd    0.7202197   -0.4050624    0.3451881 
P    -1.3113149   -1.5191432   -0.1751664 
P     1.3013836    0.7838854   -1.6032439 
H     3.1745898    0.1624186    1.2764410 
H     2.2022940   -2.1414577    1.4230226 
C     1.9169915    4.7873047    2.1650057 
C     0.8594815    3.9612040    2.5835463 
C     0.9518882    2.5731548    2.4402796 
C     2.1099935    1.9744894    1.8826645 
C     3.1683661    2.8191766    1.4776167 
C     3.0700350    4.2092332    1.6137009 
H     1.8421671    5.8741895    2.2731285 
H    -0.0434870    4.4033648    3.0174955 
H     0.1062108    1.9483447    2.7472404 
H     4.0729632    2.3774714    1.0477248 
H     3.9009322    4.8428732    1.2871351 
C    -0.8005246   -4.9619357    3.9425587 
C    -0.8917863   -3.6619553    4.4674463 
C    -0.1869213   -2.6103503    3.8769696 
C     0.6325635   -2.8399691    2.7469554 
C     0.7289060   -4.1589051    2.2400070 
C     0.0139170   -5.2087051    2.8264751 
H    -1.3549210   -5.7822442    4.4098489 
H    -1.5189167   -3.4672657    5.3426315 
H    -0.2700857   -1.6068498    4.3026223 
H     1.3822959   -4.3550494    1.3815898 
H     0.1019625   -6.2225651    2.4228040 
C     0.7135320   -2.6572371   -2.4536542 
C    -0.5166257   -3.5328501   -2.1467573 
C     0.3511991   -1.3698365   -3.2222376 
C    -1.1985708   -3.2684414   -0.7831974 
C     1.4365172   -0.2881303   -3.1229607 
C    -2.2596761   -1.6481993    1.4062065 
C    -2.5347914   -0.6425191   -1.2341825 
C     2.9814603    1.5375604   -1.5740150 
C     0.1737345    2.1602101   -2.0331335 
C    -2.2808155   -0.5083425    2.2395958 
C    -3.3521533   -1.3073268   -2.1707285 
C     4.0688588    0.6896088   -1.2688285 
C    -0.0509962    3.1353719   -1.0357052 
C    -3.0007208   -2.7834307    1.7833694 
C    -2.6932494    0.7450237   -1.0416867 
C     3.2241264    2.8948926   -1.8541982 
C    -0.4766956    2.2791113   -3.2757954 
C    -3.0398688   -0.4981782    3.4161954 
C    -4.3030391   -0.5884025   -2.9095247 
C     5.3758379    1.1911576   -1.2450708 
C    -0.8964372    4.2217565   -1.2893417 
C    -3.7543858   -2.7725302    2.9663104 
C    -3.6583313    1.4547407   -1.7662179 
C     4.5354785    3.3949137   -1.8244317 
C    -1.3291082    3.3658721   -3.5210061 
C    -3.7813588   -1.6325239    3.7814191 
C    -4.4600711    0.7906806   -2.7068132 
C     5.6107781    2.5493617   -1.5187795 
C    -1.5367207    4.3398295   -2.5341408 
H     1.4465055   -3.2290298   -3.0509540 
H     1.2299768   -2.3985448   -1.5041234 
H    -1.2535685   -3.4120908   -2.9617444 
H    -0.2336262   -4.6003008   -2.1541114 
H    -0.6129493   -0.9610440   -2.8666066 
H     0.1860088   -1.6256340   -4.2850184 
H    -2.2086470   -3.7142225   -0.7755084 
H    -0.6316663   -3.7634900    0.0265025 
H     2.4428911   -0.7409187   -3.0829142 
H     1.4422521    0.3943026   -3.9909460 
H    -1.7010794    0.3791165    1.9572390 
H    -3.2604190   -2.3862909   -2.3279137 
H     3.8915654   -0.3707967   -1.0471604 
H     0.4427085    3.0463665   -0.0620108 
H    -2.9979586   -3.6872607    1.1682324 
H    -2.0557914    1.2750775   -0.3262114 
H     2.3934599    3.5658869   -2.0916934 
H    -0.3368437    1.5280079   -4.0584383 
H    -3.0529548    0.3958121    4.0485975 
H    -4.9301890   -1.1121973   -3.6384296 
H     6.2117985    0.5240106   -1.0108417 
H    -1.0528944    4.9770986   -0.5121185 
H    -4.3229089   -3.6641479    3.2500920 
H    -3.7719222    2.5304978   -1.6028423 
H     4.7135056    4.4532575   -2.0414971 
H    -1.8344049    3.4473415   -4.4886942 
H    -4.3762629   -1.6279775    4.7005309 
H    -5.2088835    1.3466165   -3.2804062 
H     6.6316302    2.9441344   -1.4957335 
H    -2.1993627    5.1886424   -2.7326561 
