90
Energy =
C    -0.9903927    0.3813640    2.4062258 
C     0.3420391    0.8702303    2.3905324 
C     0.7049534    1.9777305    1.5805516 
H     1.1251174    0.3090745    2.9134310 
Pd   -0.0930579    0.2606873    0.3187983 
P     1.1651915    0.8456343   -1.5775342 
P    -1.4148112   -1.5687018   -0.3371364 
H    -1.7788106    1.0903246    2.1144718 
H    -0.1035994    2.6679647    1.2988568 
C    -2.4499545   -2.8098756    4.8887424 
C    -3.3402875   -1.9402041    4.2423565 
C    -2.8501333   -0.9234776    3.4137065 
C    -1.4600884   -0.7548297    3.2164717 
C    -0.5765724   -1.6609967    3.8487389 
C    -1.0671775   -2.6695392    4.6818359 
H    -2.8297025   -3.5987625    5.5461505 
H    -4.4198398   -2.0460485    4.3914109 
H    -3.5491875   -0.2396696    2.9202374 
H     0.5030320   -1.5804140    3.6891282 
H    -0.3680066   -3.3569573    5.1681620 
C     4.5905607    3.8113408    1.4384666 
C     3.4709428    4.4621096    0.9003195 
C     2.2167253    3.8404102    0.9305787 
C     2.0565966    2.5561748    1.5003891 
C     3.2013808    1.8998545    2.0105942 
C     4.4503826    2.5253698    1.9872975 
H     5.5706041    4.2992305    1.4257489 
H     3.5711151    5.4615355    0.4645786 
H     1.3436012    4.3579639    0.5190882 
H     3.1188222    0.8919464    2.4286758 
H     5.3234054    2.0046049    2.3928498 
C    -1.5272786   -0.1140440   -3.4147573 
C    -0.1373138    0.0904039   -4.0436506 
C    -1.9530745   -1.5734521   -3.1763583 
C     1.0940529   -0.1619390   -3.1543282 
C    -1.2611057   -2.3416405   -2.0358605 
C     0.8341683    2.5433749   -2.1923673 
C     2.9518887    0.7056070   -1.1646170 
C    -3.2187299   -1.2483602   -0.2256424 
C    -1.0095025   -3.0113678    0.7281796 
C    -0.2507551    3.2651398   -1.6566592 
C     3.3732985   -0.5325858   -0.6310197 
C    -4.1704222   -2.2664786   -0.4558623 
C     0.3465112   -3.4063004    0.7570495 
C     1.5756559    3.1085188   -3.2535561 
C     3.8980852    1.7288711   -1.3556386 
C    -3.6668381    0.0682336   -0.0005592 
C    -1.9498477   -3.7268690    1.4914769 
C    -0.5675528    4.5424122   -2.1400693 
C     4.7219548   -0.7541347   -0.3270445 
C    -5.5401055   -1.9741060   -0.4151577 
C     0.7482622   -4.5151879    1.5114004 
C     1.2620628    4.3880630   -3.7306788 
C     5.2472175    1.5028007   -1.0463646 
C    -5.0376817    0.3602742    0.0328249 
C    -1.5416487   -4.8358838    2.2468442 
C     0.1957579    5.1094749   -3.1707466 
C     5.6642538    0.2637055   -0.5416194 
C    -5.9758649   -0.6632004   -0.1644411 
C    -0.1990148   -5.2370752    2.2543993 
H    -2.2664870    0.3335242   -4.1027646 
H    -1.6123213    0.4687067   -2.4750644 
H    -0.0457349   -0.5596403   -4.9351802 
H    -0.0756847    1.1282024   -4.4175041 
H    -1.7999277   -2.1500927   -4.1089818 
H    -3.0410088   -1.5907280   -2.9842036 
H     1.1971087   -1.2184261   -2.8532710 
H     2.0140377    0.0894380   -3.7123543 
H    -1.7030554   -3.3502281   -1.9447774 
H    -0.1830644   -2.4935315   -2.2145131 
H    -0.8560022    2.8124185   -0.8628524 
H     2.6375902   -1.3248216   -0.4472165 
H    -3.8467040   -3.2904424   -0.6710371 
H     1.0918723   -2.8393533    0.1865238 
H     2.3977041    2.5511237   -3.7151599 
H     3.5881108    2.7125922   -1.7163825 
H    -2.9308512    0.8690802    0.1367891 
H    -2.9951171   -3.4100509    1.5252351 
H    -1.4129595    5.0926942   -1.7143010 
H     5.0369233   -1.7205197    0.0802632 
H    -6.2701250   -2.7719775   -0.5861578 
H     1.8013149   -4.8152134    1.5204887 
H     1.8487488    4.8208594   -4.5475318 
H     5.9724535    2.3099878   -1.1904958 
H    -5.3724336    1.3877394    0.2089308 
H    -2.2814094   -5.3790300    2.8434737 
H    -0.0470755    6.1082249   -3.5477851 
H     6.7193859    0.0940210   -0.3038410 
H    -7.0470730   -0.4388621   -0.1352293 
H     0.1125028   -6.1040236    2.8459996 
