90
Energy =
C    -0.0016150    0.0195088    2.8367144 
C     1.3706784    0.0294484    2.5037741 
C     1.9397774    1.1548119    1.8240968 
H     1.9692436   -0.8792807    2.6427185 
Pd    0.3697414    0.2573297    0.5593912 
P     0.9360670    1.5070929   -1.3586925 
P    -1.2115331   -1.2653174   -0.2854821 
H    -0.5115712    0.9956996    2.8376071 
H     1.5121575    2.1445841    2.0385085 
C    -2.2537947   -3.0371229    4.8413585 
C    -2.8476996   -1.8112322    4.5059101 
C    -2.0975588   -0.8293441    3.8518074 
C    -0.7421677   -1.0524064    3.5101964 
C    -0.1590694   -2.2934989    3.8568702 
C    -0.9072209   -3.2708483    4.5178577 
H    -2.8353441   -3.8072235    5.3583650 
H    -3.8941830   -1.6173060    4.7621492 
H    -2.5615400    0.1323488    3.6085302 
H     0.8883697   -2.4956934    3.6165296 
H    -0.4386219   -4.2240584    4.7808170 
C     5.9324219    1.2547319    0.2123223 
C     5.2678204    0.0236047    0.3528626 
C     3.9748492   -0.0210736    0.8836601 
C     3.3166725    1.1654002    1.2907764 
C     3.9963318    2.3941683    1.1412117 
C     5.2913532    2.4372907    0.6086029 
H     6.9446110    1.2884589   -0.2035541 
H     5.7605703   -0.9038315    0.0426313 
H     3.4587247   -0.9848492    0.9609897 
H     3.4984779    3.3222870    1.4414802 
H     5.7999363    3.4010205    0.5017174 
C     1.6793615   -1.7436443   -2.0477404 
C     1.9234648   -0.5708026   -3.0299388 
C     0.3909909   -2.5335539   -2.3382053 
C     2.3023843    0.7691329   -2.3707674 
C    -0.9265608   -1.7819383   -2.0614374 
C    -0.4454015    1.8194444   -2.5347583 
C     1.4951812    3.2063460   -0.9263723 
C    -2.9689129   -0.7348400   -0.2335268 
C    -1.1494877   -2.8681050    0.6185923 
C    -0.2499334    1.9957235   -3.9204490 
C     2.6510060    3.8035107   -1.4634930 
C    -3.9699006   -1.3031657   -1.0478622 
C    -2.3044830   -3.5385986    1.0649733 
C    -1.7484517    1.9113596   -2.0079442 
C     0.7084739    3.9320939   -0.0062825 
C    -3.3216188    0.2925709    0.6658300 
C     0.1159517   -3.4584600    0.8357427 
C    -1.3484771    2.2296110   -4.7596301 
C     3.0117165    5.1058744   -1.0846071 
C    -5.2930957   -0.8463618   -0.9640070 
C    -2.1950120   -4.7953420    1.6776837 
C    -2.8444081    2.1493870   -2.8472348 
C     1.0703302    5.2314383    0.3683515 
C    -4.6442190    0.7454070    0.7522097 
C     0.2175482   -4.7249538    1.4251288 
C    -2.6457082    2.3008551   -4.2273912 
C     2.2267131    5.8205608   -0.1697458 
C    -5.6328338    0.1767443   -0.0659026 
C    -0.9400286   -5.3991101    1.8414253 
H     1.6427460   -1.3534018   -1.0069552 
H     2.5384023   -2.4364982   -2.0743707 
H     2.7350856   -0.8383281   -3.7292929 
H     1.0293238   -0.4163500   -3.6620216 
H     0.3940037   -3.4785006   -1.7668669 
H     0.3823576   -2.8288518   -3.4049916 
H     3.1584040    0.6519725   -1.6801199 
H     2.6012197    1.5013992   -3.1415015 
H    -1.0019021   -0.8507697   -2.6532456 
H    -1.7739092   -2.4255257   -2.3537200 
H     0.7539791    1.9550658   -4.3547211 
H     3.2901455    3.2603824   -2.1648104 
H    -3.7281890   -2.1056977   -1.7515171 
H    -3.2905185   -3.0818089    0.9365756 
H    -1.9058882    1.7861299   -0.9327101 
H    -0.1920333    3.4721010    0.4193816 
H    -2.5418861    0.7491255    1.2853104 
H     1.0261014   -2.9210059    0.5456795 
H    -1.1891970    2.3584745   -5.8352460 
H     3.9161358    5.5583269   -1.5042808 
H    -6.0612076   -1.2927719   -1.6038990 
H    -3.0992141   -5.3055660    2.0252275 
H    -3.8506562    2.2050339   -2.4193586 
H     0.4511105    5.7858140    1.0811298 
H    -4.9024246    1.5462938    1.4528330 
H     1.2030240   -5.1794877    1.5713387 
H    -3.4991816    2.4783574   -4.8898130 
H     2.5131078    6.8353246    0.1248005 
H    -6.6668662    0.5315064   -0.0049606 
H    -0.8625469   -6.3866279    2.3077573 
