90
Energy =
C     2.7164640    0.0222447    1.3175421 
C     1.7095611   -0.0952121    2.3016396 
C     0.8951576   -1.2674136    2.3625736 
H     1.4667827    0.7717039    2.9273553 
Pd    0.6453740   -0.2614672    0.3783983 
P    -1.0674089   -1.6248571   -0.5042503 
P     0.8582234    1.3303309   -1.3369706 
H     3.0447789   -0.9119072    0.8354207 
H     1.3461518   -2.2125679    2.0324376 
C     5.4902287    3.2386299    0.6956033 
C     5.5804805    2.0571390   -0.0552897 
C     4.6598123    1.0248107    0.1565981 
C     3.6277837    1.1542052    1.1168070 
C     3.5450286    2.3561990    1.8578431 
C     4.4702024    3.3822799    1.6512161 
H     6.2133900    4.0456807    0.5400159 
H     6.3772375    1.9349576   -0.7961756 
H     4.7463091    0.0916244   -0.4127378 
H     2.7584056    2.4893539    2.6058631 
H     4.3949640    4.3034358    2.2369051 
C    -2.5578197   -1.7546895    4.8895685 
C    -2.0181295   -0.4724115    4.6901974 
C    -0.8912803   -0.2998146    3.8794399 
C    -0.2679950   -1.4099280    3.2575363 
C    -0.8128446   -2.6952903    3.4828453 
C    -1.9486123   -2.8636972    4.2834030 
H    -3.4438698   -1.8869124    5.5188383 
H    -2.4830193    0.3980652    5.1648822 
H    -0.5048536    0.7116509    3.7151708 
H    -0.3419246   -3.5668947    3.0169960 
H    -2.3572920   -3.8678673    4.4359621 
C     1.6244450   -1.7007194   -2.6501099 
C     0.3470888   -2.5315175   -2.8625770 
C     1.6496472   -0.3836746   -3.4675619 
C    -0.9564610   -1.8881149   -2.3486680 
C     2.0542697    0.8776536   -2.6789481 
C    -0.9837079   -3.3381761    0.1646481 
C    -2.7998920   -1.1042282   -0.2079879 
C     1.4173724    2.9573120   -0.6844199 
C    -0.7107012    1.7855327   -2.1856941 
C    -2.1313559   -4.0318486    0.5955485 
C    -3.7931344   -1.0847910   -1.2069938 
C     0.7161281    3.4786505    0.4249154 
C    -0.7724736    2.1529485   -3.5463643 
C     0.2771506   -3.9680384    0.2547650 
C    -3.1308234   -0.7045848    1.1045851 
C     2.4546906    3.7130950   -1.2609108 
C    -1.8855970    1.8263273   -1.4077766 
C    -2.0162470   -5.3325410    1.1090644 
C    -5.0972981   -0.6746664   -0.8922826 
C     1.0256556    4.7482312    0.9263865 
C    -1.9952599    2.5331451   -4.1169652 
C     0.3864589   -5.2704723    0.7588469 
C    -4.4347952   -0.3003380    1.4138749 
C     2.7680070    4.9802839   -0.7474857 
C    -3.1024217    2.2237786   -1.9774230 
C    -0.7617238   -5.9537025    1.1922278 
C    -5.4214520   -0.2825609    0.4147589 
C     2.0507109    5.5043056    0.3365764 
C    -3.1604825    2.5699780   -3.3350225 
H     2.4999493   -2.3200389   -2.9125882 
H     1.7306765   -1.4729944   -1.5660070 
H     0.2145518   -2.7161792   -3.9457170 
H     0.4669916   -3.5284421   -2.4021993 
H     0.6601716   -0.2084768   -3.9287712 
H     2.3523701   -0.4876175   -4.3129838 
H    -1.1286977   -0.8954560   -2.8057160 
H    -1.8086871   -2.5344358   -2.6227912 
H     3.0278592    0.7404681   -2.1734614 
H     2.1657390    1.7377575   -3.3629827 
H    -3.1139379   -3.5530135    0.5432419 
H    -3.5639016   -1.3749064   -2.2356724 
H    -0.0812002    2.8873477    0.8910242 
H     0.1278230    2.1547685   -4.1687644 
H     1.1802985   -3.4310618   -0.0587188 
H    -2.3662239   -0.7150427    1.8869469 
H     3.0303693    3.3263217   -2.1061091 
H    -1.8512671    1.5389147   -0.3512979 
H    -2.9136868   -5.8601294    1.4484308 
H    -5.8617261   -0.6603157   -1.6760777 
H     0.4672830    5.1478661    1.7793199 
H    -2.0350605    2.8102047   -5.1755360 
H     1.3687681   -5.7500220    0.8214191 
H    -4.6764334   -0.0003388    2.4387465 
H     3.5793262    5.5588229   -1.2009964 
H    -4.0052540    2.2462627   -1.3594299 
H    -0.6761836   -6.9677796    1.5957462 
H    -6.4414718    0.0352372    0.6546052 
H     2.2943070    6.4978010    0.7268014 
H    -4.1118373    2.8718294   -3.7851029 
