90
Energy =
C    -0.1036837    0.4885002    2.8735669 
C     1.2272149    0.0798853    2.6359118 
C     2.0932126    0.8956668    1.8374670 
H     1.5557153   -0.9207333    2.9438580 
Pd    0.3627557    0.2511537    0.6259328 
P     1.2335689    1.0575799   -1.4311464 
P    -1.4169115   -1.0873050   -0.1414376 
H    -0.3280164    1.5518048    2.6923504 
H     1.9556609    1.9851798    1.8884123 
C    -3.1969110   -1.5028690    5.0856410 
C    -3.3917035   -0.2064178    4.5847888 
C    -2.3669084    0.4268753    3.8749429 
C    -1.1312740   -0.2233602    3.6395090 
C    -0.9458218   -1.5221919    4.1670879 
C    -1.9685388   -2.1521809    4.8812181 
H    -3.9952993   -2.0024704    5.6437394 
H    -4.3396700    0.3135729    4.7563623 
H    -2.5119516    1.4486836    3.5048180 
H     0.0042085   -2.0431554    4.0237363 
H    -1.8082360   -3.1583752    5.2799818 
C     5.9661003   -0.3737779    0.4471699 
C     4.9399317   -1.3202348    0.6163657 
C     3.6825474   -0.9179785    1.0776807 
C     3.4213976    0.4414427    1.3796873 
C     4.4601536    1.3802068    1.1994869 
C     5.7209904    0.9750551    0.7421118 
H     6.9508811   -0.6895898    0.0878409 
H     5.1231291   -2.3749206    0.3851010 
H     2.8831249   -1.6609627    1.1840510 
H     4.2713919    2.4365543    1.4179425 
H     6.5140198    1.7188821    0.6122884 
C     1.4442327   -2.4604468   -2.8111750 
C     1.6756828   -1.0657696   -3.4162757 
C     0.5951253   -2.4782309   -1.5328953 
C     2.3364595   -0.0107537   -2.4938900 
C    -0.8247751   -1.8934045   -1.7052193 
C    -0.0651776    1.7120042   -2.5609335 
C     2.2385867    2.5751435   -1.1186744 
C    -3.0572544   -0.3719251   -0.5284199 
C    -1.7627655   -2.5039403    0.9814436 
C     0.1844513    1.9690341   -3.9264678 
C     3.5723541    2.7422942   -1.5336716 
C    -3.7552009   -0.6479613   -1.7207322 
C    -3.0725026   -2.8799171    1.3373965 
C    -1.3241519    2.0355413   -2.0195972 
C     1.6072796    3.6150934   -0.4011518 
C    -3.6145355    0.5266758    0.4058790 
C    -0.6723153   -3.2563128    1.4717681 
C    -0.8245093    2.5092613   -4.7341959 
C     4.2558259    3.9360521   -1.2497379 
C    -4.9900326   -0.0312636   -1.9712824 
C    -3.2853351   -4.0049792    2.1471082 
C    -2.3297606    2.5836627   -2.8282877 
C     2.2928346    4.8005669   -0.1151324 
C    -4.8510695    1.1340396    0.1560297 
C    -0.8921470   -4.3950469    2.2569146 
C    -2.0831532    2.8126099   -4.1887681 
C     3.6220500    4.9645422   -0.5418381 
C    -5.5397354    0.8582062   -1.0367275 
C    -2.2004615   -4.7724941    2.5950481 
H     2.4224857   -2.9218639   -2.5788936 
H     0.9755377   -3.0987991   -3.5834474 
H     2.3391994   -1.1860321   -4.2909750 
H     0.7302587   -0.6645660   -3.8250006 
H     1.1351489   -1.9002995   -0.7530867 
H     0.5216709   -3.5107578   -1.1511031 
H     3.0692988   -0.4706940   -1.8040943 
H     2.9003117    0.6991971   -3.1228531 
H    -0.8372932   -1.0783502   -2.4530581 
H    -1.5398403   -2.6661924   -2.0361943 
H     1.1653374    1.7580733   -4.3649485 
H     4.1024106    1.9466063   -2.0636808 
H    -3.3441699   -1.3370030   -2.4638480 
H    -3.9276845   -2.2983989    0.9790802 
H    -1.5190699    1.8548425   -0.9571815 
H     0.5677394    3.4952213   -0.0711669 
H    -3.0737473    0.7430520    1.3327124 
H     0.3531235   -2.9458501    1.2430948 
H    -0.6256072    2.6996392   -5.7939400 
H     5.2939801    4.0519903   -1.5778587 
H    -5.5236200   -0.2487657   -2.9022148 
H    -4.3074612   -4.2867198    2.4204005 
H    -3.3055838    2.8181481   -2.3913115 
H     1.7891731    5.6010371    0.4366122 
H    -5.2770797    1.8255954    0.8904079 
H    -0.0394897   -4.9797371    2.6179966 
H    -2.8676506    3.2328815   -4.8265628 
H     4.1590845    5.8925886   -0.3208903 
H    -6.5042758    1.3363400   -1.2363778 
H    -2.3732652   -5.6579841    3.2154020 
