90
Energy =
C    -0.9798187    0.4167076    2.4042862 
C     0.3544297    0.9011110    2.3782735 
C     0.7178795    1.9973459    1.5538171 
H     1.1374018    0.3435870    2.9051875 
Pd   -0.0929917    0.2660008    0.3174871 
P     1.1664142    0.8183949   -1.5887151 
P    -1.4265707   -1.5636096   -0.3133653 
H    -1.7671354    1.1254804    2.1090629 
H    -0.0898787    2.6854936    1.2648033 
C    -2.4368324   -2.7373747    4.9355902 
C    -1.0551290   -2.6078870    4.7149916 
C    -0.5658520   -1.6119666    3.8660481 
C    -1.4494209   -0.7076774    3.2311975 
C    -2.8386497   -0.8658182    3.4421158 
C    -3.3275819   -1.8699330    4.2867553 
H    -2.8155190   -3.5161357    5.6055668 
H    -0.3558555   -3.2940973    5.2028868 
H     0.5127519   -1.5400188    3.6957423 
H    -3.5378842   -0.1836610    2.9465756 
H    -4.4064043   -1.9675336    4.4463636 
C     4.6086050    3.8158740    1.3648441 
C     3.4894195    4.4593228    0.8171043 
C     2.2333303    3.8425276    0.8638328 
C     2.0708429    2.5703673    1.4595699 
C     3.2149995    1.9210653    1.9800999 
C     4.4659307    2.5418710    1.9402852 
H     5.5901639    4.3002119    1.3394163 
H     3.5914272    5.4493301    0.3607867 
H     1.3606950    4.3546343    0.4446751 
H     3.1304291    0.9224714    2.4195012 
H     5.3384709    2.0267106    2.3539472 
C    -1.5337280   -0.1409918   -3.4094656 
C    -0.1425257    0.0390987   -4.0433860 
C    -1.9755139   -1.5920693   -3.1507331 
C     1.0876748   -0.2102153   -3.1514076 
C    -1.2857142   -2.3542769   -2.0050850 
C     0.8441833    2.5091206   -2.2271600 
C     2.9521298    0.6724745   -1.1732505 
C    -3.2282023   -1.2323911   -0.1969341 
C    -1.0258809   -2.9989362    0.7633255 
C    -0.2381613    3.2428292   -1.7025118 
C     3.3628045   -0.5576353   -0.6131913 
C    -4.1861065   -2.2483741   -0.4101370 
C     0.3251852   -3.4112001    0.7803009 
C     1.5882056    3.0559811   -3.2961082 
C     3.9074236    1.6827446   -1.3868033 
C    -3.6684448    0.0892394    0.0136560 
C    -1.9658944   -3.6930992    1.5464586 
C    -0.5496075    4.5142855   -2.2043639 
C     4.7097962   -0.7851213   -0.3061669 
C    -5.5540416   -1.9481397   -0.3683163 
C     0.7217829   -4.5164086    1.5426922 
C     1.2803035    4.3300174   -3.7913429 
C     5.2547922    1.4510173   -1.0740275 
C    -5.0375994    0.3889890    0.0484258 
C    -1.5628239   -4.7985706    2.3097459 
C     0.2166276    5.0636263   -3.2424338 
C     5.6611419    0.2191080   -0.5435931 
C    -5.9819068   -0.6318489   -0.1325986 
C    -0.2255404   -5.2171989    2.3056433 
H    -2.2690893    0.3056392   -4.1021783 
H    -1.6103873    0.4552756   -2.4775395 
H    -0.0585208   -0.6262909   -4.9242923 
H    -0.0712436    1.0699634   -4.4342257 
H    -1.8341485   -2.1817446   -4.0770559 
H    -3.0625168   -1.5943498   -2.9525091 
H     1.1832156   -1.2630875   -2.8355344 
H     2.0091517    0.0266132   -3.7133373 
H    -1.7360546   -3.3579770   -1.9019165 
H    -0.2098486   -2.5172977   -2.1867215 
H    -0.8459054    2.8039475   -0.9028404 
H     2.6198020   -1.3383947   -0.4105607 
H    -3.8685680   -3.2769019   -0.6124426 
H     1.0707904   -2.8615492    0.1934329 
H     2.4073170    2.4882931   -3.7502967 
H     3.6060597    2.6614949   -1.7677204 
H    -2.9277131    0.8877472    0.1385639 
H    -3.0065414   -3.3623851    1.5889561 
H    -1.3931954    5.0738416   -1.7871563 
H     5.0163432   -1.7454171    0.1214568 
H    -6.2889141   -2.7441637   -0.5266764 
H     1.7708270   -4.8302962    1.5421659 
H     1.8691474    4.7486872   -4.6139858 
H     5.9871744    2.2483502   -1.2358721 
H    -5.3662338    1.4203726    0.2127611 
H    -2.3022275   -5.3251116    2.9215056 
H    -0.0218903    6.0579295   -3.6337022 
H     6.7149754    0.0449067   -0.3033426 
H    -7.0517976   -0.4014773   -0.1021324 
H     0.0819662   -6.0814664    2.9032314 
