90
Energy =
C     1.7049315    0.9774258    1.8082931 
C     0.4674921    0.6960616    2.4419682 
C     0.0089280   -0.6378646    2.5924182 
H    -0.1928509    1.5258246    2.7225506 
Pd    0.3064398   -0.1312434    0.3913533 
P    -1.2168431   -1.7598713   -0.3660979 
P     1.3418447    0.6977390   -1.5543124 
H     2.4494467    0.1668819    1.7857111 
H     0.7695662   -1.4329732    2.5637595 
C     3.4492787    4.8737690    1.2913617 
C     4.2459263    3.7202798    1.2733661 
C     3.6591350    2.4590705    1.4315838 
C     2.2649085    2.3258207    1.6193678 
C     1.4763992    3.5000944    1.6468555 
C     2.0613885    4.7577192    1.4808488 
H     3.9050728    5.8609258    1.1632110 
H     5.3287382    3.8000455    1.1321009 
H     4.2847512    1.5602496    1.4117883 
H     0.3935065    3.4309925    1.7901400 
H     1.4334404    5.6543844    1.4958226 
C    -3.6218036   -1.8561237    4.5483260 
C    -3.5087301   -0.5445363    4.0559156 
C    -2.3383747   -0.1319418    3.4144641 
C    -1.2536640   -1.0238991    3.2437326 
C    -1.3804984   -2.3375460    3.7487685 
C    -2.5512305   -2.7485722    4.3971624 
H    -4.5399165   -2.1762312    5.0515553 
H    -4.3406957    0.1576841    4.1713231 
H    -2.2720482    0.8924794    3.0346172 
H    -0.5479242   -3.0392092    3.6300724 
H    -2.6268523   -3.7708036    4.7819634 
C    -1.4971978   -0.0316557   -3.2773350 
C    -1.9326055   -1.5024278   -3.1591314 
C    -0.1547702    0.2190441   -3.9855750 
C    -1.1974513   -2.3843692   -2.1336854 
C     1.1325515   -0.1363972   -3.2203190 
C    -0.8982086   -3.3286518    0.5436127 
C    -2.9693928   -1.2808724   -0.1273158 
C     3.1667560    0.5693292   -1.3484777 
C     0.9063383    2.4397975   -1.9195709 
C    -1.8886241   -4.0853803    1.1968559 
C    -4.0403516   -2.1462184   -0.4433293 
C     4.0686454    1.6289153   -1.5581138 
C    -0.1077245    3.0487137   -1.1558056 
C     0.4413617   -3.7760659    0.5728043 
C    -3.2504930    0.0312925    0.2987278 
C     3.6652747   -0.6910722   -0.9503421 
C     1.4832912    3.1548206   -2.9926302 
C    -1.5459547   -5.2820520    1.8456408 
C    -5.3636769   -1.7102057   -0.2977694 
C     5.4475778    1.4211480   -1.3973094 
C    -0.5218817    4.3580036   -1.4353122 
C     0.7799158   -4.9677581    1.2256788 
C    -4.5750068    0.4680392    0.4356603 
C     5.0412320   -0.8927104   -0.7860792 
C     1.0735483    4.4664912   -3.2649849 
C    -0.2169997   -5.7265214    1.8610800 
C    -5.6325661   -0.4051885    0.1456393 
C     5.9369580    0.1650839   -1.0145467 
C     0.0746513    5.0708543   -2.4846317 
H    -1.5006786    0.4511095   -2.2790109 
H    -2.2761544    0.4948189   -3.8569422 
H    -3.0091135   -1.5249953   -2.9137012 
H    -1.8363764   -1.9887263   -4.1491228 
H    -0.1020449    1.2881033   -4.2579262 
H    -0.1408396   -0.3392331   -4.9416019 
H    -1.6652041   -3.3848791   -2.1019359 
H    -0.1371805   -2.5486209   -2.3919845 
H     1.2379778   -1.2200863   -3.0401379 
H     2.0133498    0.1636044   -3.8162273 
H    -2.9227169   -3.7334049    1.2316955 
H    -3.8468548   -3.1586870   -0.8139029 
H     3.7028701    2.6259921   -1.8163152 
H    -0.5734951    2.4803214   -0.3415809 
H     1.2252542   -3.1806294    0.0875544 
H    -2.4163564    0.7093089    0.5160377 
H     2.9683180   -1.5173304   -0.7606362 
H     2.2460167    2.6884791   -3.6255631 
H    -2.3245505   -5.8594704    2.3547978 
H    -6.1881730   -2.3887567   -0.5395833 
H     6.1390311    2.2546890   -1.5584192 
H    -1.3098871    4.8215047   -0.8327647 
H     1.8217439   -5.3042373    1.2408393 
H    -4.7807092    1.4902700    0.7696605 
H     5.4155884   -1.8746025   -0.4785405 
H     1.5296954    5.0161775   -4.0947261 
H     0.0454740   -6.6582105    2.3725713 
H    -6.6684833   -0.0678264    0.2543324 
H     7.0131200    0.0096645   -0.8868122 
H    -0.2445801    6.0950347   -2.7034798 
