90
Energy =
C    -0.9746649    0.4307292    2.4038607 
C     0.3597833    0.9143114    2.3722669 
C     0.7223342    2.0056001    1.5409778 
H     1.1435486    0.3591861    2.9005364 
Pd   -0.0927651    0.2676008    0.3162473 
P     1.1644142    0.8075330   -1.5949111 
P    -1.4308142   -1.5628188   -0.3031646 
H    -1.7625119    1.1381560    2.1068477 
H    -0.0853420    2.6928078    1.2495563 
C    -2.4268725   -2.7071521    4.9579986 
C    -1.0457217   -2.5802806    4.7325041 
C    -0.5580686   -1.5899559    3.8761004 
C    -1.4426881   -0.6886691    3.2384710 
C    -2.8314384   -0.8442921    3.4544071 
C    -3.3187636   -1.8428435    4.3065425 
H    -2.8042652   -3.4815849    5.6336981 
H    -0.3456334   -3.2641997    5.2224510 
H     0.5200884   -1.5201060    3.7020544 
H    -3.5314994   -0.1643958    2.9569044 
H    -4.3972014   -1.9385400    4.4698640 
C     4.6150243    3.8177258    1.3309147 
C     3.4953496    4.4592128    0.7818943 
C     2.2385314    3.8444999    0.8357617 
C     2.0757606    2.5764356    1.4400858 
C     3.2203258    1.9289587    1.9620065 
C     4.4720043    2.5477445    1.9150816 
H     5.5972301    4.3004122    1.2996857 
H     3.5975566    5.4461519    0.3190262 
H     1.3655963    4.3551142    0.4154488 
H     3.1355355    0.9333754    2.4081209 
H     5.3448251    2.0341070    2.3300359 
C    -1.5405694   -0.1522431   -3.4059637 
C    -0.1495436    0.0172968   -4.0433364 
C    -1.9891329   -1.5996135   -3.1385663 
C     1.0810912   -0.2301430   -3.1513082 
C    -1.2982980   -2.3600607   -1.9924378 
C     0.8447969    2.4951674   -2.2428222 
C     2.9503675    0.6601724   -1.1807454 
C    -3.2314027   -1.2279881   -0.1812444 
C    -1.0285867   -2.9950205    0.7769982 
C    -0.2349002    3.2344540   -1.7205300 
C     3.3580966   -0.5660479   -0.6100987 
C    -4.1919148   -2.2439679   -0.3822554 
C    -1.9654322   -3.6803956    1.5715684 
C     1.5878187    3.0339025   -3.3165686 
C     3.9084398    1.6654812   -1.4049798 
C    -3.6684736    0.0960467    0.0208320 
C     0.3207534   -3.4132749    0.7857458 
C    -0.5445914    4.5034897   -2.2295296 
C     4.7048235   -0.7948086   -0.3028409 
C    -5.5591454   -1.9411861   -0.3360242 
C    -1.5611494   -4.7828936    2.3385180 
C     1.2815141    4.3054288   -3.8191790 
C     5.2555114    1.4325656   -1.0918257 
C    -5.0369584    0.3983062    0.0598562 
C     0.7186722   -4.5150313    1.5523888 
C     0.2206018    5.0447328   -3.2726060 
C     5.6588636    0.2043145   -0.5507004 
C    -5.9837569   -0.6223811   -0.1086246 
C    -0.2256191   -5.2068686    2.3272047 
H    -2.2749628    0.2942487   -4.0997927 
H    -1.6125290    0.4495214   -2.4771991 
H    -0.0695586   -0.6548975   -4.9194439 
H    -0.0746993    1.0449360   -4.4418748 
H    -1.8546852   -2.1942950   -4.0627124 
H    -3.0753108   -1.5952691   -2.9357818 
H     1.1739458   -1.2813168   -2.8290419 
H     2.0025608    0.0005450   -3.7157934 
H    -1.7521442   -3.3616162   -1.8838846 
H    -0.2237454   -2.5278239   -2.1773938 
H    -0.8417623    2.8019994   -0.9167113 
H     2.6129080   -1.3425172   -0.3991641 
H    -3.8769376   -3.2744735   -0.5784063 
H    -3.0043494   -3.3451225    1.6198681 
H     2.4048810    2.4617603   -3.7688566 
H     3.6095264    2.6416440   -1.7943613 
H    -2.9258217    0.8943009    0.1357149 
H     1.0640314   -2.8710945    0.1890555 
H    -1.3860918    5.0674438   -1.8140287 
H     5.0090177   -1.7519711    0.1333999 
H    -6.2960598   -2.7372817   -0.4842113 
H    -2.2980854   -5.3025997    2.9590289 
H     1.8694088    4.7176096   -4.6457665 
H     5.9900922    2.2261570   -1.2619197 
H    -5.3631681    1.4314265    0.2179983 
H     1.7663492   -4.8333831    1.5457248 
H    -0.0166415    6.0370740   -3.6695855 
H     6.7124743    0.0291749   -0.3101571 
H    -7.0531162   -0.3899903   -0.0750244 
H     0.0829396   -6.0684474    2.9281211 
