90
Energy =
C     2.9288723    0.1336774    0.7172103 
C     2.1811255   -0.2848572    1.8404878 
C     1.5054274   -1.5435483    1.8270473 
H     2.0101936    0.4185927    2.6638953 
Pd    0.7331740   -0.2400054    0.1787033 
P    -1.0059887   -1.6336578   -0.5997342 
P     0.4184734    1.6489112   -1.1824401 
H     3.2198984   -0.6499318    0.0001119 
H     1.9520052   -2.3491351    1.2291565 
C     5.2064048    3.7361195    0.2074496 
C     4.4200647    3.5744418    1.3606626 
C     3.6563571    2.4184191    1.5394382 
C     3.6718859    1.3897977    0.5686242 
C     4.4680460    1.5674580   -0.5881985 
C     5.2255084    2.7299669   -0.7699725 
H     5.8043533    4.6434325    0.0743014 
H     4.4010507    4.3579272    2.1241870 
H     3.0505801    2.3131425    2.4438104 
H     4.5030452    0.7703050   -1.3402838 
H     5.8420917    2.8455021   -1.6672598 
C    -1.2497143   -2.9093553    4.8418106 
C    -0.6941369   -3.8060405    3.9167100 
C     0.2186441   -3.3543484    2.9564634 
C     0.5863682   -1.9904570    2.8898390 
C     0.0213570   -1.0974724    3.8337273 
C    -0.8805536   -1.5538598    4.8008242 
H    -1.9614545   -3.2632239    5.5946278 
H    -0.9700745   -4.8652122    3.9428137 
H     0.6495499   -4.0618956    2.2408301 
H     0.2729856   -0.0320439    3.8025781 
H    -1.3037863   -0.8481230    5.5233243 
C     1.1361777   -0.9692219   -3.2134693 
C    -0.0763231   -1.9090804   -3.3287362 
C     0.8595733    0.4652834   -3.7322222 
C    -1.2849122   -1.5449132   -2.4431178 
C     1.3192585    1.6054237   -2.8019952 
C    -0.6244339   -3.4133424   -0.3224396 
C    -2.6688554   -1.4035023    0.1369444 
C     0.9650883    3.1881116   -0.3354952 
C    -1.3336638    2.0437166   -1.5859005 
C    -1.5815766   -4.3156235    0.1811849 
C    -3.8571169   -1.3400555   -0.6174779 
C     1.7741944    4.1661515   -0.9423771 
C    -1.7280900    2.6451654   -2.7994883 
C     0.6757940   -3.8800478   -0.6160185 
C    -2.7342500   -1.2850495    1.5418515 
C     0.4904421    3.4005438    0.9773955 
C    -2.3052795    1.7863346   -0.5976010 
C    -1.2404292   -5.6607865    0.3882090 
C    -5.0900550   -1.1643791    0.0282933 
C     2.0836495    5.3473982   -0.2521366 
C    -3.0755813    2.9619362   -3.0215188 
C     1.0094705   -5.2259223   -0.4169378 
C    -3.9676768   -1.1141824    2.1812880 
C     0.7930964    4.5858965    1.6574155 
C    -3.6485069    2.1193164   -0.8168088 
C     0.0513810   -6.1185770    0.0911018 
C    -5.1493547   -1.0515360    1.4250831 
C     1.5876951    5.5648902    1.0405594 
C    -4.0367420    2.7005233   -2.0323971 
H     1.9829615   -1.4100641   -3.7680676 
H     1.4610275   -0.9286248   -2.1499746 
H    -0.4299493   -1.9129821   -4.3774396 
H     0.2323458   -2.9476491   -3.1137843 
H    -0.2200252    0.5902019   -3.9354361 
H     1.3592458    0.6079755   -4.7065733 
H    -1.6429752   -0.5176322   -2.6442068 
H    -2.1153334   -2.2376985   -2.6658449 
H     2.3894262    1.5068129   -2.5430496 
H     1.1988269    2.5817856   -3.3040442 
H    -2.5898113   -3.9668999    0.4249199 
H    -3.8374095   -1.4150111   -1.7078391 
H     2.1747622    4.0200264   -1.9492134 
H    -0.9921064    2.8788643   -3.5750147 
H     1.4356329   -3.1831759   -0.9892161 
H    -1.8169403   -1.3310191    2.1363592 
H    -0.1252881    2.6342621    1.4637073 
H    -2.0117946    1.3164965    0.3474171 
H    -1.9898673   -6.3524378    0.7868618 
H    -6.0077253   -1.1135990   -0.5668167 
H     2.7174672    6.1003462   -0.7316499 
H    -3.3735850    3.4232258   -3.9687798 
H     2.0201031   -5.5769496   -0.6497238 
H    -4.0012426   -1.0308459    3.2724668 
H     0.4100020    4.7455151    2.6706973 
H    -4.3899470    1.9084153   -0.0400737 
H     0.3138825   -7.1685140    0.2561334 
H    -6.1148189   -0.9163263    1.9236214 
H     1.8255050    6.4929310    1.5705159 
H    -5.0870966    2.9535734   -2.2098854 
