90
Energy =
C    -2.4055281    1.4531072    0.2936937 
C    -2.4800830    0.7921975   -0.9779378 
C    -2.8335633   -0.5683688   -1.0519703 
H    -2.1800076    1.3303154   -1.8870941 
Pd   -0.8785746   -0.1407825    0.1990267 
P     0.7642108   -1.5420781   -0.7894426 
P     0.2062940    0.4320114    2.2116919 
H    -3.0995024    1.1137165    1.0763845 
H    -3.3178707   -0.9951156   -0.1595088 
C    -1.1300888    5.5548459    0.6078979 
C    -0.4588647    4.6773752   -0.2599364 
C    -0.8690348    3.3447399   -0.3648240 
C    -1.9545973    2.8576924    0.4004896 
C    -2.6164141    3.7493894    1.2701202 
C    -2.2103992    5.0859532    1.3691526 
H    -0.8091801    6.5982728    0.6912626 
H     0.3899779    5.0335216   -0.8533283 
H    -0.3292802    2.6619393   -1.0315509 
H    -3.4571685    3.3898095    1.8714387 
H    -2.7371712    5.7619168    2.0502270 
C    -3.4532150   -2.9126445   -4.5880796 
C    -4.1671637   -3.1837780   -3.4117288 
C    -3.9275786   -2.4275144   -2.2596705 
C    -2.9939560   -1.3643647   -2.2714945 
C    -2.2818788   -1.1044404   -3.4655417 
C    -2.5052323   -1.8748898   -4.6082845 
H    -3.6261102   -3.5132679   -5.4868212 
H    -4.9055204   -3.9917554   -3.3899701 
H    -4.4807531   -2.6455849   -1.3390650 
H    -1.5271795   -0.3125524   -3.4899121 
H    -1.9316439   -1.6749554   -5.5185769 
C     0.2279212   -3.0963407    2.1357322 
C     0.8789030   -2.2159828    3.2307256 
C     1.2413039   -3.6281558    1.1101181 
C     0.1453368   -0.9005419    3.5274795 
C     1.9280139   -2.5281090    0.2790404 
C    -0.5164012    1.8348485    3.1642164 
C     1.9719040    0.8948825    2.0352239 
C     1.8651891   -0.3981400   -1.7217532 
C     0.2532487   -2.7881284   -2.0374370 
C    -1.7684742    1.6618510    3.7930178 
C     2.9362454    0.6314854    3.0315979 
C     3.2709579   -0.4845498   -1.7083153 
C    -0.8130756   -3.6568872   -1.7256685 
C     0.1574513    3.0636549    3.2977038 
C     2.3503148    1.6120168    0.8818143 
C     1.2526524    0.6264594   -2.4766755 
C     0.9320215   -2.9353079   -3.2643620 
C    -2.3157606    2.6881055    4.5738002 
C     4.2595810    1.0599150    2.8592636 
C     4.0431163    0.4349270   -2.4346921 
C    -1.1756898   -4.6757520   -2.6153456 
C    -0.4031148    4.0925047    4.0684548 
C     3.6694975    2.0578833    0.7243280 
C     2.0238013    1.5441863   -3.1993676 
C     0.5556623   -3.9483225   -4.1567606 
C    -1.6314603    3.9049807    4.7167936 
C     4.6277540    1.7738284    1.7078540 
C     3.4251047    1.4502777   -3.1779710 
C    -0.4931802   -4.8216215   -3.8323537 
H    -0.5545084   -2.5159451    1.6030982 
H    -0.2961128   -3.9485831    2.6023484 
H     0.9307209   -2.7833774    4.1771488 
H     1.9291256   -1.9922375    2.9684638 
H     0.7506471   -4.3484554    0.4307388 
H     2.0323919   -4.1960956    1.6355945 
H    -0.9289734   -1.0901625    3.7020973 
H     0.5299673   -0.4269941    4.4486305 
H     2.4488040   -1.7960729    0.9248585 
H     2.6793612   -2.9813111   -0.3911990 
H    -2.3222066    0.7223620    3.6814446 
H     2.6628639    0.1034295    3.9499989 
H     3.7795810   -1.2589744   -1.1282341 
H    -1.3699861   -3.5242265   -0.7911539 
H     1.1214594    3.2202922    2.8050041 
H     1.6060504    1.8263280    0.1090299 
H     0.1601027    0.7050085   -2.4881954 
H     1.7539357   -2.2596199   -3.5225549 
H    -3.2803285    2.5369070    5.0696517 
H     5.0033755    0.8444028    3.6333180 
H     5.1350290    0.3574432   -2.4130282 
H    -2.0054999   -5.3442999   -2.3664304 
H     0.1285959    5.0448111    4.1620246 
H     3.9460477    2.6170916   -0.1745291 
H     1.5320457    2.3327323   -3.7784742 
H     1.0865045   -4.0564658   -5.1083791 
H    -2.0597947    4.7069292    5.3267219 
H     5.6615481    2.1119204    1.5818260 
H     4.0322360    2.1664289   -3.7412926 
H    -0.7847300   -5.6119444   -4.5316366 
