90
Energy =
C    -2.3642593    1.5559161    0.0619588 
C    -2.0717683    1.1001470   -1.2473256 
C    -2.2188207   -0.2584433   -1.6287765 
H    -1.6029616    1.7895202   -1.9607361 
Pd   -0.7333373   -0.0617752    0.0637526 
P     0.5879843   -1.9007149   -0.5844895 
P     0.4808608    0.5893472    1.9750768 
H    -3.0587613    0.9532269    0.6659405 
H    -2.9466937   -0.8684251   -1.0720841 
C    -2.0063431    5.6439485    1.3719339 
C    -1.3802050    5.2385611    0.1810976 
C    -1.4819527    3.9134505   -0.2546275 
C    -2.2187091    2.9593234    0.4890109 
C    -2.8623450    3.3914591    1.6702880 
C    -2.7517525    4.7146450    2.1117870 
H    -1.9206560    6.6806551    1.7130408 
H    -0.8075644    5.9605895   -0.4105559 
H    -0.9717311    3.6186333   -1.1774830 
H    -3.4573469    2.6778354    2.2469123 
H    -3.2532192    5.0198531    3.0355491 
C    -1.3756079   -1.6467096   -5.6124617 
C    -0.5612612   -0.6594715   -5.0333395 
C    -0.8184143   -0.2095533   -3.7346932 
C    -1.8931062   -0.7410385   -2.9857143 
C    -2.6926329   -1.7447427   -3.5733260 
C    -2.4406017   -2.1874090   -4.8773331 
H    -1.1749696   -1.9975997   -6.6299738 
H     0.2810916   -0.2422525   -5.5948922 
H    -0.1636525    0.5455108   -3.2881857 
H    -3.5218704   -2.1753849   -3.0026867 
H    -3.0746540   -2.9635126   -5.3176023 
C    -0.3945606   -2.6591944    2.6209741 
C     0.3627520   -1.7798805    3.6330764 
C     0.4613120   -3.6215783    1.7753494 
C     1.2929092   -0.6945544    3.0590384 
C     1.3822096   -3.0106985    0.7003884 
C    -0.4790176    1.5265535    3.2286903 
C     1.8725531    1.6555817    1.4363288 
C     2.0543716   -1.2931094   -1.5085839 
C    -0.2761927   -3.1466565   -1.6229502 
C    -1.7203180    0.9850986    3.6254953 
C     1.5638040    2.9287843    0.9092347 
C     2.1786054    0.0910417   -1.7474651 
C    -1.4523021   -3.7200314   -1.0912215 
C     0.0062234    2.6853377    3.8643849 
C     3.2095077    1.2091557    1.4101540 
C     3.0880372   -2.1584284   -1.9312515 
C     0.1907757   -3.5709238   -2.8804557 
C    -2.4554878    1.5821242    4.6582118 
C     2.5718702    3.7387880    0.3735837 
C     3.3043300    0.6026287   -2.4064399 
C    -2.1184627   -4.7394686   -1.7834273 
C    -0.7471366    3.2949493    4.8779975 
C     4.2149794    2.0235257    0.8689453 
C     4.2108207   -1.6438489   -2.5932355 
C    -0.4886135   -4.5827201   -3.5749050 
C    -1.9718451    2.7426507    5.2816564 
C     3.9012377    3.2870216    0.3490660 
C     4.3198435   -0.2646703   -2.8333997 
C    -1.6314905   -5.1789626   -3.0240699 
H    -1.0078664   -2.0174247    1.9519934 
H    -1.1164314   -3.2718479    3.1903750 
H    -0.3696061   -1.2980696    4.3060076 
H     0.9807658   -2.4305293    4.2806410 
H    -0.2087241   -4.3491251    1.2831045 
H     1.1017450   -4.2198673    2.4516494 
H     1.7629736   -0.1250656    3.8808722 
H     2.1087260   -1.1456396    2.4742980 
H     2.2019742   -2.4184417    1.1386321 
H     1.8582408   -3.8274695    0.1296097 
H    -2.1163399    0.0984272    3.1156437 
H     0.5311929    3.2892709    0.9237185 
H     1.3951802    0.7714744   -1.3914620 
H    -1.8564111   -3.3579275   -0.1384958 
H     0.9683221    3.1154426    3.5690644 
H     3.4834424    0.2252969    1.8002758 
H     3.0218602   -3.2364828   -1.7501883 
H     1.0695675   -3.1019141   -3.3316748 
H    -3.4127802    1.1491320    4.9665940 
H     2.3156016    4.7270488   -0.0228805 
H     3.3899313    1.6810546   -2.5724820 
H    -3.0236320   -5.1847223   -1.3574928 
H    -0.3695897    4.2032519    5.3587927 
H     5.2487687    1.6637821    0.8536428 
H     5.0048753   -2.3228738   -2.9206983 
H    -0.1239615   -4.8977719   -4.5578380 
H    -2.5508064    3.2174680    6.0804552 
H     4.6902580    3.9195480   -0.0706338 
H     5.2009040    0.1322815   -3.3482967 
H    -2.1536350   -5.9724111   -3.5684589 
