90
Energy =
C    -2.1796886   -0.0269396   -1.9473539 
C    -2.6058881    0.9173041   -0.9666474 
C    -1.8805355    2.1002540   -0.7062379 
H    -3.4313318    0.6499322   -0.2947035 
Pd   -0.5891922    0.2056044   -0.4028480 
P     0.7328235    0.7724437    1.4562799 
P     0.5558315   -1.7406860   -1.0810428 
H    -1.6440632    0.3578448   -2.8261668 
H    -1.1461849    2.4236977   -1.4608651 
C    -4.0357299   -3.8704740   -2.5329681 
C    -3.3603655   -3.2343335   -3.5843208 
C    -2.7630914   -1.9830594   -3.3851827 
C    -2.8307644   -1.3402840   -2.1295490 
C    -3.5133989   -1.9957879   -1.0755851 
C    -4.1104000   -3.2445173   -1.2762949 
H    -4.5027325   -4.8483973   -2.6884094 
H    -3.2942984   -3.7139793   -4.5662318 
H    -2.2306340   -1.4964645   -4.2093368 
H    -3.5576173   -1.5349846   -0.0824329 
H    -4.6336551   -3.7358103   -0.4492317 
C    -3.0056162    5.1575882    2.0964408 
C    -3.9450213    4.1900403    1.7073338 
C    -3.5862019    3.1824180    0.8062830 
C    -2.2802438    3.1300615    0.2649091 
C    -1.3514958    4.1231625    0.6535050 
C    -1.7064982    5.1202090    1.5660120 
H    -3.2869131    5.9426135    2.8056759 
H    -4.9651615    4.2253965    2.1033385 
H    -4.3387425    2.4501922    0.4965618 
H    -0.3344525    4.0962636    0.2487245 
H    -0.9679695    5.8693550    1.8675993 
C    -0.8699042   -2.2221484    1.9730987 
C    -0.1187850   -3.3402778    1.2049851 
C    -0.0042021   -1.5166116    3.0322142 
C    -0.1835999   -3.2671047   -0.3346538 
C     1.1947222   -0.7152627    2.4842136 
C     2.3680983   -1.8249459   -0.7684630 
C     0.4842328   -1.9892513   -2.9047076 
C    -0.0622483    1.8592744    2.7051146 
C     2.3185782    1.6045442    1.0605480 
C     3.0196824   -2.9783503   -0.2843327 
C     0.2669792   -3.2459593   -3.5004688 
C    -1.4303869    1.6646178    2.9880100 
C     3.5100702    1.3847339    1.7794997 
C     3.1357678   -0.6879768   -1.0932841 
C     0.6865852   -0.8622564   -3.7292040 
C     0.6624076    2.8333551    3.4206644 
C     2.3241553    2.5180103   -0.0154049 
C     4.4108151   -2.9773522   -0.1049188 
C     0.2454409   -3.3687510   -4.8977574 
C    -2.0564123    2.4127593    3.9922698 
C     4.6824924    2.0696095    1.4280670 
C     4.5259405   -0.6959166   -0.9276514 
C     0.6703342   -0.9890676   -5.1238417 
C     0.0280647    3.5857110    4.4188711 
C     3.4948987    3.2039078   -0.3619604 
C     5.1651300   -1.8380062   -0.4228274 
C     0.4451597   -2.2445778   -5.7112170 
C    -1.3277452    3.3738178    4.7091156 
C     4.6778097    2.9795908    0.3608573 
H    -1.7619197   -2.6432267    2.4684985 
H    -1.2571203   -1.4634236    1.2555239 
H     0.9401856   -3.3584737    1.5203289 
H    -0.5267887   -4.3243080    1.4958077 
H     0.3998737   -2.2755290    3.7291986 
H    -0.6357924   -0.8503135    3.6469978 
H     0.3150668   -4.1489713   -0.7744057 
H    -1.2317404   -3.2769303   -0.6868069 
H     1.7991579   -0.3438234    3.3303050 
H     1.8535415   -1.3398383    1.8526065 
H     2.4562580   -3.8872784   -0.0537982 
H     0.0969690   -4.1358470   -2.8882913 
H    -2.0080291    0.9357746    2.4068932 
H     3.5381458    0.6751343    2.6112199 
H     2.6436098    0.2114559   -1.4760146 
H     0.8497992    0.1219849   -3.2735058 
H     1.7203998    3.0066161    3.1983631 
H     1.4065406    2.6729547   -0.5947696 
H     4.9066968   -3.8761482    0.2760851 
H     0.0664352   -4.3496348   -5.3500666 
H    -3.1193716    2.2588731    4.2019282 
H     5.6039316    1.8877098    1.9906845 
H     5.1048483    0.1970253   -1.1823969 
H     0.8291735   -0.1073367   -5.7531932 
H     0.5967681    4.3411154    4.9710795 
H     3.4866615    3.9096085   -1.1990649 
H     6.2510859   -1.8439615   -0.2835164 
H     0.4260346   -2.3448097   -6.8012474 
H    -1.8206182    3.9648928    5.4877710 
H     5.5953486    3.5119297    0.0896948 
