90
Energy =
C    -2.2067323    1.7012062   -0.0141190 
C    -1.9006952    1.3304587   -1.3596748 
C    -2.1411065    0.0213986   -1.8296055 
H    -1.3571875    2.0432616   -1.9927421 
Pd   -0.6815726    0.0880249   -0.0143634 
P     0.7892663   -1.5741409   -0.8559480 
P    -0.0165882    0.4162204    2.2135738 
H    -3.0455229    1.1820057    0.4737334 
H    -2.8356028   -0.5966637   -1.2404359 
C    -1.4015382    5.6586002    1.4769103 
C    -0.4404368    4.9996250    0.6920721 
C    -0.6931845    3.7118498    0.2087979 
C    -1.9077876    3.0531673    0.5071583 
C    -2.8583103    3.7209624    1.3065300 
C    -2.6099496    5.0153075    1.7803570 
H    -1.2048935    6.6674930    1.8540216 
H     0.5101790    5.4913186    0.4603212 
H     0.0666056    3.1960281   -0.3897235 
H    -3.7993006    3.2200786    1.5560621 
H    -3.3608518    5.5190158    2.3974563 
C    -1.5860539   -1.4325498   -5.8324856 
C    -2.1374900   -2.2576041   -4.8411555 
C    -2.2952678   -1.7746195   -3.5376029 
C    -1.8965149   -0.4610943   -3.1946910 
C    -1.3275227    0.3529285   -4.2027532 
C    -1.1818892   -0.1269777   -5.5063592 
H    -1.4723713   -1.8026152   -6.8566361 
H    -2.4564668   -3.2759437   -5.0857956 
H    -2.7402834   -2.4184840   -2.7724872 
H    -1.0045776    1.3721159   -3.9725620 
H    -0.7474967    0.5201139   -6.2746351 
C     2.1586802   -2.2995802    2.3900503 
C     0.6215280   -2.3705653    2.5476613 
C     2.6712832   -2.8543909    1.0542510 
C    -0.0102067   -1.1544153    3.2330337 
C     2.5026945   -1.9153525   -0.1554236 
C    -1.0964076    1.4911318    3.2472627 
C     1.6572756    1.1549807    2.3706879 
C     1.2998926   -1.0177471   -2.5407772 
C     0.0473974   -3.2433513   -1.0374113 
C    -2.4125887    1.0577182    3.5194116 
C     2.3091770    1.2579881    3.6188198 
C     1.7792325    0.3051828   -2.6574468 
C     0.7859244   -4.3429204   -1.5267247 
C    -0.6633544    2.7313844    3.7533636 
C     2.3077553    1.6275699    1.2154478 
C     1.2924562   -1.8466685   -3.6776933 
C    -1.2853525   -3.4438926   -0.6253659 
C    -3.2614055    1.8295053    4.3225551 
C     3.5936928    1.8108236    3.6974607 
C     2.2774187    0.7776615   -3.8784574 
C     0.1874872   -5.6061127   -1.6288069 
C    -1.5195776    3.5025795    4.5529568 
C     3.5936011    2.1805668    1.2950787 
C     1.7881833   -1.3678921   -4.8991229 
C    -1.8812278   -4.7085942   -0.7242100 
C    -2.8124624    3.0508362    4.8492841 
C     4.2390564    2.2689090    2.5368366 
C     2.2911861   -0.0634060   -5.0013070 
C    -1.1465523   -5.7899394   -1.2325995 
H     2.6321863   -2.8549475    3.2189687 
H     2.5116555   -1.2579477    2.4926513 
H     0.1382866   -2.5000375    1.5617650 
H     0.3482123   -3.2746127    3.1212498 
H     2.2038718   -3.8343763    0.8407652 
H     3.7566742   -3.0467825    1.1401099 
H    -1.0753545   -1.3466987    3.4500751 
H     0.4725885   -0.9255292    4.2009369 
H     2.9301817   -0.9191686    0.0634166 
H     3.0696418   -2.3157222   -1.0151389 
H    -2.7815677    0.1119242    3.1043871 
H     1.8148980    0.9111541    4.5327290 
H     1.7606425    0.9700532   -1.7858512 
H     1.8309256   -4.2194023   -1.8302718 
H     0.3379326    3.1042535    3.5201632 
H     1.7950057    1.5502536    0.2503230 
H     0.8820236   -2.8585090   -3.6237891 
H    -1.8516214   -2.5988836   -0.2157638 
H    -4.2754661    1.4764594    4.5371818 
H     4.0939192    1.8846952    4.6685407 
H     2.6532754    1.8035074   -3.9530051 
H     0.7671693   -6.4511527   -2.0142780 
H    -1.1713082    4.4659575    4.9386761 
H     4.0906522    2.5398519    0.3880519 
H     1.7689154   -2.0198420   -5.7783757 
H    -2.9175325   -4.8506166   -0.4004978 
H    -3.4750448    3.6533482    5.4790228 
H     5.2445608    2.6969530    2.6032931 
H     2.6801336    0.3025481   -5.9570326 
H    -1.6091002   -6.7792273   -1.3103367 
