90
Energy =
C    -2.1709425   -0.0205517   -1.9201533 
C    -2.4718276    1.0195491   -0.9822526 
C    -1.6282989    2.1468677   -0.8744734 
H    -3.2792964    0.8749222   -0.2539146 
Pd   -0.5186439    0.1510460   -0.4669323 
P     0.7032111    0.7468581    1.4528358 
P     0.5376758   -1.8454838   -1.1462109 
H    -1.6730654    0.2703079   -2.8560575 
H    -0.9476458    2.3316690   -1.7204920 
C    -4.2428628   -3.7918040   -2.1042873 
C    -4.1836820   -3.0873005   -0.8888420 
C    -3.5205311   -1.8580581   -0.8201614 
C    -2.9040963   -1.3014660   -1.9676757 
C    -2.9694445   -2.0224218   -3.1800884 
C    -3.6335632   -3.2541308   -3.2470925 
H    -4.7623791   -4.7540682   -2.1568882 
H    -4.6540432   -3.5023622    0.0087673 
H    -3.4584134   -1.3339769    0.1404939 
H    -2.4887475   -1.6120527   -4.0744480 
H    -3.6724356   -3.7961400   -4.1976892 
C    -2.0059517    5.5359450    1.7346105 
C    -2.9142519    4.4707512    1.8493754 
C    -2.8032631    3.3544146    1.0165899 
C    -1.7812910    3.2822961    0.0413154 
C    -0.8803509    4.3685184   -0.0678365 
C    -0.9870832    5.4814500    0.7717383 
H    -2.0969666    6.4074409    2.3909584 
H    -3.7128742    4.5104394    2.5963372 
H    -3.5224984    2.5374031    1.1215115 
H    -0.0937955    4.3394065   -0.8291661 
H    -0.2803182    6.3111650    0.6694966 
C    -0.5879675   -2.3653375    2.0266375 
C     0.1503900   -3.4315867    1.1798962 
C     0.3177992   -1.6451182    3.0407456 
C    -0.1287841   -3.3726657   -0.3339683 
C     1.3735033   -0.6994030    2.4341451 
C     2.3603686   -1.9038048   -0.8945481 
C     0.3685193   -2.1272145   -2.9571790 
C    -0.3634169    1.6110555    2.6804002 
C     2.1547999    1.8422142    1.1960314 
C     3.0683770   -3.1075089   -0.6959531 
C     0.6552621   -1.0400511   -3.8104987 
C     0.0372671    2.7812889    3.3531432 
C     3.1958055    1.9728843    2.1382401 
C     3.0704824   -0.6882396   -0.9355774 
C    -0.0269745   -3.3558975   -3.5184834 
C    -1.6226654    1.0433437    2.9787549 
C     2.2228230    2.5805175   -0.0035079 
C     4.4582552   -3.0818538   -0.5142729 
C     0.5500541   -1.1798581   -5.1993535 
C    -0.7891590    3.3449686    4.3360420 
C     4.2812178    2.8221056    1.8794034 
C     4.4598320   -0.6646518   -0.7575943 
C    -0.1327819   -3.4921455   -4.9113548 
C    -2.4331192    1.5965235    3.9780880 
C     3.3058376    3.4309639   -0.2600850 
C     5.1549598   -1.8630331   -0.5389650 
C     0.1525258   -2.4084979   -5.7528832 
C    -2.0136475    2.7457518    4.6642387 
C     4.3389842    3.5514482    0.6821150 
H    -1.4284945   -2.8353455    2.5664493 
H    -1.0510139   -1.6129561    1.3511276 
H     1.2412571   -3.3548919    1.3436437 
H    -0.1296987   -4.4402714    1.5312571 
H     0.8600805   -2.4009129    3.6408413 
H    -0.3011213   -1.0805604    3.7603437 
H     0.3069994   -4.2542709   -0.8362828 
H    -1.2144259   -3.3778774   -0.5456567 
H     1.9919635   -0.2835321    3.2478860 
H     2.0545090   -1.2306019    1.7433453 
H     2.5462171   -4.0694967   -0.6840615 
H     0.9610787   -0.0781130   -3.3802640 
H     0.9924761    3.2567265    3.1105151 
H     3.1683309    1.4171630    3.0806229 
H     2.5284829    0.2476244   -1.0992663 
H    -0.2727208   -4.2108988   -2.8829841 
H    -1.9713738    0.1658883    2.4222801 
H     1.4247108    2.4664103   -0.7452889 
H     4.9999303   -4.0199036   -0.3543963 
H     0.7772564   -0.3304240   -5.8517535 
H    -0.4696799    4.2577543    4.8493440 
H     5.0849526    2.9132853    2.6173002 
H     4.9913308    0.2921953   -0.7806496 
H    -0.4472852   -4.4507678   -5.3367020 
H    -3.3988102    1.1361966    4.2118997 
H     3.3467959    3.9949305   -1.1977509 
H     6.2397596   -1.8506920   -0.3912640 
H     0.0662588   -2.5183869   -6.8387331 
H    -2.6479793    3.1830974    5.4420879 
H     5.1893424    4.2117997    0.4830851 
