90
Energy =
C    -1.8603503   -0.0594519   -2.2272481 
C    -2.4088484    0.8571636   -1.2721926 
C    -1.7206238    2.0482312   -0.9542272 
H    -3.2924672    0.5692283   -0.6892777 
Pd   -0.4670308    0.1403031   -0.5294806 
P     0.8978772   -1.6644647   -1.1938702 
P     0.3916622    0.6616523    1.5977520 
H    -1.2691197    0.3631203   -3.0519816 
H    -0.9486700    2.3726051   -1.6698845 
C    -3.4288048   -3.9953239   -3.0002763 
C    -3.6413904   -3.3938023   -1.7472806 
C    -3.1452962   -2.1121133   -1.4892593 
C    -2.4278426   -1.3988441   -2.4807159 
C    -2.2218586   -2.0167066   -3.7337831 
C    -2.7183739   -3.3013457   -3.9902792 
H    -3.8169611   -4.9991734   -3.2008342 
H    -4.1930029   -3.9303409   -0.9681445 
H    -3.2945356   -1.6680666   -0.4984102 
H    -1.6615342   -1.4833270   -4.5089990 
H    -2.5468168   -3.7615524   -4.9688526 
C    -2.8337408    5.1388927    1.8098960 
C    -1.6925090    5.2724649    1.0049855 
C    -1.3471142    4.2543213    0.1113826 
C    -2.1266791    3.0774033    0.0082238 
C    -3.2752566    2.9604696    0.8252458 
C    -3.6242013    3.9821084    1.7119874 
H    -3.1113213    5.9353844    2.5078482 
H    -1.0760702    6.1749294    1.0679060 
H    -0.4654605    4.3720490   -0.5274802 
H    -3.9062610    2.0694459    0.7634647 
H    -4.5176902    3.8755113    2.3346119 
C    -0.6406897   -2.5966617    1.6946275 
C     0.0142514   -1.8985075    2.8994485 
C     0.3310429   -3.5030799    0.8986277 
C     1.0474061   -0.8070871    2.5545719 
C     0.2911921   -3.3227743   -0.6309000 
C    -0.9226248    1.3147409    2.7097390 
C     1.7492115    1.8968060    1.6570828 
C     2.6553163   -1.5646442   -0.6551084 
C     1.0367497   -1.7768421   -3.0254831 
C    -0.7407160    2.4497144    3.5229790 
C     1.8921938    2.7720400    0.5605623 
C     3.4521886   -2.7034361   -0.4149771 
C     0.8874278   -2.9786577   -3.7428491 
C    -2.1489912    0.6150476    2.7688248 
C     2.6473913    2.0044334    2.7386588 
C     3.2241978   -0.2846884   -0.5061936 
C     1.3067559   -0.5833471   -3.7288375 
C    -1.7522423    2.8491171    4.4084551 
C     2.9091012    3.7350399    0.5413030 
C     4.7846043   -2.5534594   -0.0050314 
C     1.0050628   -2.9833264   -5.1413780 
C    -3.1456905    1.0032922    3.6730199 
C     3.6682568    2.9657298    2.7166506 
C     4.5567902   -0.1366863   -0.1005576 
C     1.4254740   -0.5918875   -5.1236153 
C    -2.9456698    2.1185131    4.5000721 
C     3.8013822    3.8314887    1.6205195 
C     5.3369959   -1.2731121    0.1586022 
C     1.2713312   -1.7942960   -5.8337482 
H    -1.0699050   -1.8278405    1.0152188 
H    -1.5001799   -3.1924121    2.0485081 
H    -0.7651310   -1.4649071    3.5507073 
H     0.5323828   -2.6566000    3.5175641 
H     0.1074881   -4.5626430    1.1145328 
H     1.3675872   -3.3433962    1.2490031 
H     1.4825742   -0.4179102    3.4910026 
H     1.8798844   -1.2057412    1.9454822 
H     0.8985745   -4.1031870   -1.1223475 
H    -0.7395135   -3.4147457   -1.0217911 
H     0.1890106    3.0240047    3.4662384 
H     1.2077418    2.6770058   -0.2893270 
H     3.0450888   -3.7109747   -0.5468036 
H     0.6620413   -3.9163534   -3.2276910 
H    -2.3247681   -0.2354174    2.1000694 
H     2.5589109    1.3427646    3.6057558 
H     2.6147536    0.6027660   -0.7004623 
H     1.4211704    0.3579482   -3.1769445 
H    -1.6022709    3.7359066    5.0328406 
H     3.0096835    4.4058164   -0.3182978 
H     5.3947014   -3.4424355    0.1857478 
H     0.8806260   -3.9228442   -5.6896790 
H    -4.0845655    0.4418160    3.7219683 
H     4.3621675    3.0374589    3.5605058 
H     4.9762254    0.8672617    0.0212913 
H     1.6370558    0.3396878   -5.6586100 
H    -3.7256896    2.4272279    5.2036232 
H     4.6007989    4.5795177    1.6067193 
H     6.3766197   -1.1640659    0.4842309 
H     1.3595298   -1.8019486   -6.9249474 
