90
Energy =
C    -1.6739590    2.0081888   -0.2718949 
C    -1.2679853    1.5905513   -1.5662486 
C    -1.6059672    0.3025079   -2.0571246 
H    -0.5815658    2.2213343   -2.1429007 
Pd   -0.3529538    0.1593171   -0.1637748 
P     0.5854262   -1.9179395   -0.7352610 
P     0.4701468    0.6583145    1.9804309 
H    -2.5537716    1.5046738    0.1543538 
H    -2.4857483   -0.1802142   -1.6073724 
C    -0.9905940    5.8962449    1.4284978 
C    -0.2278046    5.4786926    0.3247017 
C    -0.4106290    4.2046258   -0.2185986 
C    -1.3770963    3.3231251    0.3201358 
C    -2.1198267    3.7471242    1.4461296 
C    -1.9293678    5.0214295    1.9942798 
H    -0.8472179    6.8972520    1.8481614 
H     0.5199275    6.1495650   -0.1096798 
H     0.2057386    3.8944547   -1.0680023 
H    -2.8623345    3.0717622    1.8846526 
H    -2.5237270    5.3350348    2.8586983 
C    -0.7047555   -1.1962114   -5.9838554 
C    -0.0112140   -0.0770364   -5.4930209 
C    -0.2656536    0.4026167   -4.2057710 
C    -1.2363672   -0.2172205   -3.3841887 
C    -1.9095730   -1.3565685   -3.8823232 
C    -1.6470049   -1.8408974   -5.1695161 
H    -0.5051983   -1.5661143   -6.9948171 
H     0.7384518    0.4197967   -6.1167053 
H     0.2976539    1.2659652   -3.8384785 
H    -2.6550796   -1.8568599   -3.2549806 
H    -2.1880002   -2.7174958   -5.5406341 
C     0.3869893   -2.6951949    2.5672563 
C     1.1461589   -1.7173121    3.4811746 
C     1.2482912   -3.5085479    1.5845059 
C     1.7192695   -0.4404341    2.8404719 
C     1.8360533   -2.7695954    0.3682202 
C    -0.8435534    0.8135638    3.2529413 
C     1.4063518    2.2389223    1.9074163 
C     1.5709781   -1.7178037   -2.2747012 
C    -0.6567674   -3.2430432   -1.0016474 
C    -0.5565445    1.2284063    4.5723374 
C     2.4616128    2.2967480    0.9701175 
C     2.5589923   -0.7084034   -2.2569502 
C    -0.2877766   -4.5283014   -1.4570096 
C    -2.1563937    0.4155573    2.9319036 
C     1.1427855    3.3598401    2.7154039 
C     1.4071876   -2.4985449   -3.4333111 
C    -1.9996358   -3.0021336   -0.6499809 
C    -1.5760462    1.2842263    5.5318790 
C     3.2580560    3.4434483    0.8658088 
C     3.3897211   -0.5068273   -3.3658425 
C    -1.2554884   -5.5317017   -1.5982981 
C    -3.1739234    0.4658636    3.8950525 
C     1.9424686    4.5067924    2.6054032 
C     2.2403481   -2.2909151   -4.5422301 
C    -2.9653747   -4.0094051   -0.7854740 
C    -2.8863647    0.9101922    5.1936919 
C     3.0028564    4.5505222    1.6902304 
C     3.2356141   -1.3047188   -4.5103302 
C    -2.5956212   -5.2724670   -1.2697299 
H    -0.4184362   -2.1631316    2.0214021 
H    -0.1328030   -3.4174193    3.2216875 
H     0.4698608   -1.4107446    4.2994559 
H     1.9847627   -2.2542877    3.9650024 
H     0.6405713   -4.3501167    1.2061032 
H     2.0908154   -3.9669128    2.1375191 
H     2.1839447    0.1905423    3.6194602 
H     2.5116271   -0.6502581    2.1020403 
H     2.5768303   -2.0016400    0.6490604 
H     2.3686620   -3.4873352   -0.2814464 
H     0.4639901    1.5055998    4.8574138 
H     2.6574416    1.4384483    0.3161970 
H     2.6729872   -0.0736813   -1.3699657 
H     0.7565802   -4.7529942   -1.6985994 
H    -2.3741058    0.0524197    1.9207321 
H     0.3004218    3.3577951    3.4115414 
H     0.6153361   -3.2494964   -3.4904088 
H    -2.2823372   -2.0191132   -0.2561179 
H    -1.3450501    1.6149790    6.5497058 
H     4.0770900    3.4736409    0.1396466 
H     4.1560407    0.2748056   -3.3375239 
H    -0.9606633   -6.5221402   -1.9600250 
H    -4.1900215    0.1541773    3.6320681 
H     1.7218884    5.3757061    3.2335332 
H     2.0971327   -2.8988019   -5.4412244 
H    -4.0055584   -3.8086799   -0.5089130 
H    -3.6796596    0.9538813    5.9469910 
H     3.6236331    5.4488046    1.6104229 
H     3.8831016   -1.1488610   -5.3793069 
H    -3.3482774   -6.0599384   -1.3796544 
