90
Energy =
C    -2.7367801    0.5821725   -0.3989118 
C    -2.2673057    0.3391102   -1.7264941 
C    -1.9141041   -0.9682445   -2.1287724 
H    -2.0486846    1.1828258   -2.3916778 
Pd   -0.6693005   -0.2694867   -0.3362153 
P     1.4159791   -1.0684783   -1.0681942 
P    -0.2828022   -0.1112609    1.9866152 
H    -3.2865305   -0.2280709    0.0980733 
H    -2.3035763   -1.7945101   -1.5136436 
C    -3.4078389    4.4763224    1.3129959 
C    -3.9396693    3.3257013    1.9143919 
C    -3.7350929    2.0677608    1.3355861 
C    -2.9799701    1.9297143    0.1480091 
C    -2.4530627    3.1008289   -0.4506800 
C    -2.6704642    4.3583026    0.1223615 
H    -3.5707736    5.4604909    1.7639668 
H    -4.5201827    3.4063208    2.8391540 
H    -4.1568481    1.1758986    1.8101596 
H    -1.8515658    3.0294759   -1.3631245 
H    -2.2577244    5.2516631   -0.3579782 
C    -0.5118200   -2.3062581   -5.9584558 
C    -0.7830839   -3.2235485   -4.9323123 
C    -1.2309751   -2.7650796   -3.6884238 
C    -1.4099775   -1.3826631   -3.4425150 
C    -1.1227402   -0.4708735   -4.4849803 
C    -0.6841523   -0.9307949   -5.7289993 
H    -0.1698119   -2.6603514   -6.9362673 
H    -0.6588965   -4.2973229   -5.1063084 
H    -1.4665765   -3.4839899   -2.8946080 
H    -1.2491614    0.6039205   -4.3274718 
H    -0.4714782   -0.2122417   -6.5262996 
C     0.0958392   -3.3940829    1.0148257 
C     0.1930524   -2.9257641    2.4770947 
C     1.4738573   -3.5510967    0.3221703 
C     0.7487521   -1.5023972    2.6824794 
C     1.5879315   -2.9140765   -1.0772262 
C    -1.8488496   -0.2348456    2.9467923 
C     0.5133257    1.4183198    2.6089221 
C     2.8707040   -0.4253127   -0.1414616 
C     1.7849852   -0.5136178   -2.7832883 
C    -2.1375323    0.6274470    4.0224762 
C     0.0247343    2.6428081    2.1051217 
C     2.8144041    0.9066530    0.3168675 
C     1.6159248    0.8601021   -3.0635984 
C    -2.7923319   -1.2197623    2.5800541 
C     1.5653945    1.4275485    3.5459608 
C     4.0451769   -1.1774729    0.0704477 
C     2.2665604   -1.3682687   -3.7918969 
C    -3.3510983    0.5057756    4.7161261 
C     0.5744189    3.8556208    2.5368769 
C     3.9091073    1.4783297    0.9785369 
C     1.9548091    1.3742813   -4.3205924 
C    -3.9983946   -1.3445293    3.2817619 
C     2.1154595    2.6457480    3.9718352 
C     5.1322532   -0.6073866    0.7478829 
C     2.5932738   -0.8498725   -5.0536865 
C    -4.2820478   -0.4767865    4.3492900 
C     1.6234498    3.8597411    3.4704429 
C     5.0667754    0.7192092    1.2021354 
C     2.4490993    0.5190283   -5.3178969 
H    -0.5313807   -2.6718820    0.4458663 
H    -0.4498004   -4.3534276    0.9831477 
H    -0.7959760   -3.0037615    2.9624796 
H     0.8546114   -3.6174007    3.0329027 
H     1.7157363   -4.6237354    0.2207811 
H     2.2682917   -3.1311341    0.9663328 
H     0.8453098   -1.3071168    3.7649563 
H     1.7523734   -1.3876230    2.2312391 
H     2.5536252   -3.1808803   -1.5422957 
H     0.7932025   -3.2817042   -1.7520179 
H    -1.4217287    1.4032166    4.3111483 
H    -0.7912699    2.6459172    1.3763264 
H     1.9064070    1.4993897    0.1622017 
H     1.2227271    1.5289200   -2.2883922 
H    -2.5884465   -1.8837937    1.7315179 
H     1.9736526    0.4950844    3.9443970 
H     4.1269239   -2.2057460   -0.2953889 
H     2.3878473   -2.4397947   -3.6112961 
H    -3.5691184    1.1864160    5.5456501 
H     0.1789485    4.7969063    2.1415146 
H     3.8462593    2.5124346    1.3308819 
H     1.8316187    2.4433228   -4.5229804 
H    -4.7212514   -2.1136911    2.9907379 
H     2.9349052    2.6426612    4.6980372 
H     6.0374701   -1.2007273    0.9134813 
H     2.9627151   -1.5242181   -5.8330335 
H    -5.2286453   -0.5669301    4.8918323 
H     2.0560350    4.8074940    3.8074736 
H     5.9203810    1.1603818    1.7270471 
H     2.7145134    0.9187483   -6.3019816 
