90
Energy =
C    -1.6247097    1.8912358   -0.6354000 
C    -0.8929323    1.6303214   -1.8157162 
C    -0.9572871    0.3512900   -2.4450150 
H    -0.1823785    2.3788371   -2.1853495 
Pd   -0.1452559    0.1489438   -0.3572984 
P     0.4049125   -2.1190198   -0.4477523 
P     0.3615524    0.6744004    1.8791824 
H    -2.4660015    1.2156979   -0.4200182 
H    -1.8745652   -0.2331422   -2.2818443 
C    -1.9136803    5.5962353    1.5142445 
C    -0.9679145    5.4681982    0.4826936 
C    -0.8385469    4.2629230   -0.2113726 
C    -1.6646935    3.1587167    0.1045762 
C    -2.6017350    3.2976325    1.1556244 
C    -2.7252488    4.5039844    1.8537791 
H    -2.0133315    6.5446282    2.0521376 
H    -0.3250688    6.3143509    0.2211330 
H    -0.0935710    4.1841445   -1.0085531 
H    -3.2426853    2.4493440    1.4183908 
H    -3.4623959    4.5938231    2.6582689 
C     1.1393810   -0.6797498   -6.0621680 
C     1.5928003    0.3932233   -5.2772008 
C     0.9345184    0.7262085   -4.0894955 
C    -0.2065862    0.0045697   -3.6657174 
C    -0.6462899   -1.0740173   -4.4662406 
C     0.0197859   -1.4159884   -5.6481338 
H     1.6589027   -0.9413516   -6.9895431 
H     2.4686265    0.9703756   -5.5918572 
H     1.3176808    1.5527888   -3.4812442 
H    -1.5347273   -1.6392821   -4.1643391 
H    -0.3392174   -2.2564870   -6.2503853 
C     3.2693720   -0.9090654    0.8477372 
C     3.1062584   -0.2667875    2.2373945 
C     2.9915641   -2.4218328    0.7473848 
C     1.6935046   -0.2192279    2.8482172 
C     1.5200410   -2.8744634    0.8386602 
C    -1.0894563    0.4600224    2.9849564 
C     0.9572004    2.4115778    1.9812180 
C     1.1036068   -2.8142057   -1.9887710 
C    -1.2273992   -2.9135236   -0.1721601 
C    -1.0437316    0.7397695    4.3690396 
C     1.9698449    2.7794159    1.0666401 
C     0.7711816   -4.1011513   -2.4593429 
C    -1.6616343   -3.2567673    1.1255212 
C    -2.2723462   -0.0774795    2.4363804 
C     0.5025216    3.3554481    2.9202709 
C     2.0925653   -2.0617331   -2.6544651 
C    -2.1277281   -3.0472966   -1.2528631 
C    -2.1702043    0.5172482    5.1723972 
C     2.5497724    4.0533261    1.1240601 
C     1.4174407   -4.6194495   -3.5899791 
C    -2.9652830   -3.7294653    1.3340861 
C    -3.3945145   -0.3082709    3.2439258 
C     1.0793673    4.6328080    2.9657879 
C     2.7457257   -2.5919276   -3.7740119 
C    -3.4270627   -3.5237833   -1.0398954 
C    -3.3477415   -0.0025554    4.6117069 
C     2.1101542    4.9802105    2.0811394 
C     2.4049017   -3.8681703   -4.2456882 
C    -3.8506673   -3.8637193    0.2550746 
H     4.3153193   -0.7433856    0.5326844 
H     2.6447951   -0.3660647    0.1087945 
H     3.7513797   -0.8060617    2.9574602 
H     3.5013537    0.7645579    2.1955743 
H     3.5538751   -2.9486843    1.5417411 
H     3.4029430   -2.7899604   -0.2101203 
H     1.2943250   -1.2262688    3.0552316 
H     1.7412474    0.3023229    3.8209290 
H     1.4507435   -3.9679433    0.6951364 
H     1.0842939   -2.6485951    1.8245063 
H    -0.1303919    1.1303449    4.8298537 
H     2.2989120    2.0648327    0.3021379 
H     0.0117201   -4.6990631   -1.9444370 
H    -0.9946217   -3.1477331    1.9857479 
H    -2.3035008   -0.3339490    1.3713564 
H    -0.3163180    3.1106362    3.6017536 
H     2.3421522   -1.0564918   -2.2982220 
H    -1.8019118   -2.7897345   -2.2654322 
H    -2.1257206    0.7448039    6.2424710 
H     3.3411372    4.3235764    0.4171925 
H     1.1531294   -5.6173272   -3.9551635 
H    -3.2869659   -3.9929189    2.3469263 
H    -4.3013261   -0.7340778    2.8021028 
H     0.7109641    5.3627861    3.6937167 
H     3.5090382   -1.9998734   -4.2876233 
H    -4.1105256   -3.6326721   -1.8884136 
H    -4.2237621   -0.1780632    5.2446748 
H     2.5597461    5.9774417    2.1266266 
H     2.9081704   -4.2781207   -5.1273896 
H    -4.8667929   -4.2360997    0.4203757 
