90
Energy =
C    -1.5881743    0.6705429   -2.2348437 
C    -2.3666583    1.0830357   -1.1297796 
C    -1.9145255    2.0647642   -0.2012152 
H    -3.2869241    0.5341053   -0.8930213 
Pd   -0.5021020    0.3411774   -0.2219128 
P     0.5827933    0.8481489    1.8080182 
P     0.8385419   -1.5328669   -0.7155409 
H    -0.7711556    1.3353757   -2.5547346 
H    -1.2331296    2.8459621   -0.5699268 
C    -2.7894302   -2.1789002   -5.2260622 
C    -1.4919641   -1.6446067   -5.2272017 
C    -1.1144893   -0.7222923   -4.2471330 
C    -2.0155531   -0.3231691   -3.2328981 
C    -3.3193959   -0.8736843   -3.2454459 
C    -3.7020057   -1.7845292   -4.2347635 
H    -3.0901882   -2.8953319   -5.9971659 
H    -0.7728987   -1.9474169   -5.9945855 
H    -0.1018320   -0.3062668   -4.2607548 
H    -4.0533317   -0.5701195   -2.4923832 
H    -4.7205957   -2.1861544   -4.2362464 
C    -4.3568052    3.1766851    3.1635765 
C    -3.6457110    4.1494207    2.4463663 
C    -2.8277919    3.7771654    1.3720412 
C    -2.7193986    2.4253183    0.9856092 
C    -3.4283081    1.4513225    1.7268764 
C    -4.2389352    1.8234253    2.8044898 
H    -4.9942880    3.4686708    4.0044254 
H    -3.7219452    5.2045189    2.7278248 
H    -2.2726337    4.5417991    0.8189558 
H    -3.3275977    0.3918057    1.4622421 
H    -4.7809111    1.0568634    3.3685028 
C    -1.1390933   -2.1423977    1.9469619 
C    -0.0529614   -3.1446073    1.5026383 
C    -0.8383174   -1.2836459    3.1886808 
C     1.1951956   -2.5932760    0.7740034 
C     0.4514278   -0.4406701    3.1572279 
C     2.4865809   -1.1061244   -1.3968651 
C     0.1539018   -2.7626727   -1.8922083 
C     0.1219720    2.4169904    2.6566539 
C     2.3882377    1.0569185    1.5228812 
C     2.5186559   -0.2463090   -2.5162847 
C    -1.2126630   -3.0967799   -1.7933875 
C     0.6417760    3.6389319    2.1810772 
C     3.3569876    0.7260807    2.4924877 
C     3.6995740   -1.5835617   -0.8643376 
C     0.9673336   -3.4289376   -2.8307746 
C    -0.7471541    2.4251190    3.7659350 
C     2.8041417    1.6260638    0.3007184 
C     3.7362085    0.1108399   -3.1059747 
C    -1.7510097   -4.1038783   -2.6033440 
C     0.3238460    4.8411904    2.8263277 
C     4.7166314    0.9496867    2.2325579 
C     4.9196282   -1.2111239   -1.4485589 
C     0.4192533   -4.4281801   -3.6467857 
C    -1.0602733    3.6312735    4.4077378 
C     4.1608846    1.8703009    0.0548755 
C     4.9416082   -0.3721362   -2.5710761 
C    -0.9361025   -4.7702398   -3.5308751 
C    -0.5204152    4.8396018    3.9467467 
C     5.1197013    1.5252362    1.0182187 
H    -2.0603171   -2.7144077    2.1584572 
H    -1.3938899   -1.4723409    1.0940284 
H     0.3019107   -3.7153879    2.3823771 
H    -0.5255761   -3.8874447    0.8353226 
H    -0.7614281   -1.9473809    4.0708048 
H    -1.7077674   -0.6262485    3.3746347 
H     1.8383790   -1.9851491    1.4323205 
H     1.8054292   -3.4426794    0.4183049 
H     0.5859029    0.0878473    4.1168601 
H     1.3275206   -1.0980841    3.0421796 
H     1.5802198    0.1467668   -2.9219210 
H    -1.8575528   -2.5570734   -1.0904606 
H     1.3206445    3.6527682    1.3219937 
H     3.0620738    0.3065259    3.4594093 
H     3.7104505   -2.2412221    0.0088144 
H     2.0270521   -3.1693956   -2.9231792 
H    -1.1936898    1.4987579    4.1378511 
H     2.0577916    1.8653109   -0.4660711 
H     3.7462622    0.7715938   -3.9790258 
H    -2.8130242   -4.3549916   -2.5233630 
H     0.7482359    5.7809565    2.4579326 
H     5.4624447    0.6845179    2.9891203 
H     5.8568617   -1.5823113   -1.0217502 
H     1.0557687   -4.9427388   -4.3741874 
H    -1.7366154    3.6218884    5.2681362 
H     4.4687434    2.3104362   -0.8982024 
H     5.8962920   -0.0895681   -3.0264360 
H    -1.3607257   -5.5511394   -4.1700394 
H    -0.7617859    5.7788197    4.4547601 
H     6.1821774    1.7029115    0.8227574 
