90
Energy =
C    -2.8070254    0.1887953   -0.2678617 
C    -2.3649904    0.0625798   -1.6205847 
C    -1.8433499   -1.1642072   -2.0882477 
H    -2.3010521    0.9510783   -2.2597220 
Pd   -0.6348914   -0.3509057   -0.3187555 
P     1.5079960   -0.8181483   -1.1616603 
P    -0.1727644   -0.2089701    1.9919586 
H    -3.2081589   -0.7107062    0.2177017 
H    -2.0810901   -2.0594413   -1.4924524 
C    -3.9759329    3.8783396    1.6208141 
C    -3.2845098    3.9124528    0.3977061 
C    -2.9068879    2.7219463   -0.2323996 
C    -3.2240117    1.4655193    0.3406215 
C    -3.9363270    1.4486039    1.5621648 
C    -4.3007239    2.6413263    2.1977089 
H    -4.2640122    4.8111149    2.1162204 
H    -3.0330184    4.8732982   -0.0634870 
H    -2.3435031    2.7727377   -1.1701696 
H    -4.1971380    0.4880754    2.0179603 
H    -4.8437105    2.6025912    3.1475916 
C    -0.4464709   -2.1523376   -6.0247659 
C    -0.5355318   -3.1341819   -5.0267864 
C    -0.9837944   -2.7884057   -3.7470974 
C    -1.3454731   -1.4555011   -3.4369890 
C    -1.2398022   -0.4760467   -4.4520236 
C    -0.8002851   -0.8245720   -5.7314135 
H    -0.1051539   -2.4194488   -7.0300763 
H    -0.2691738   -4.1723488   -5.2502139 
H    -1.0772125   -3.5609926   -2.9745732 
H    -1.5094496    0.5633603   -4.2449604 
H    -0.7295997   -0.0554645   -6.5064903 
C     0.6366015   -3.3706128    0.8933869 
C     0.7337930   -2.9338781    2.3653918 
C     1.9883032   -3.3048222    0.1371955 
C     1.0839030   -1.4499769    2.5956275 
C     1.9421906   -2.6184412   -1.2423005 
C    -1.6593329   -0.5970499    3.0065552 
C     0.4128261    1.4031155    2.6388982 
C     2.8962572    0.0008164   -0.2724689 
C     1.7190777   -0.1667210   -2.8693767 
C    -2.0240082    0.1739738    4.1274699 
C     1.5036020    1.5436942    3.5194825 
C     4.1767247   -0.5771101   -0.1442471 
C     2.2656352   -0.9167441   -3.9268553 
C    -2.4617391   -1.6989942    2.6370049 
C    -0.2862150    2.5534132    2.2142929 
C     2.6700829    1.2936344    0.2418345 
C     1.3532417    1.1788063   -3.0927519 
C    -3.1737989   -0.1524315    4.8624450 
C     1.8833742    2.8172276    3.9688431 
C     5.2020875    0.1232108    0.5065422 
C     2.4626327   -0.3205465   -5.1811338 
C    -3.6032702   -2.0275699    3.3795498 
C     0.0944171    3.8212951    2.6692697 
C     3.7022553    1.9973879    0.8762228 
C     1.5627758    1.7721763   -4.3429921 
C    -3.9643821   -1.2499407    4.4921062 
C     1.1823341    3.9564033    3.5468894 
C     4.9676161    1.4097706    1.0167018 
C     2.1232086    1.0231956   -5.3895868 
H    -0.1149587   -2.7328247    0.3768913 
H     0.2352563   -4.3983447    0.8522047 
H    -0.2089692   -3.1708055    2.8899375 
H     1.5152753   -3.5350587    2.8681543 
H     2.3777393   -4.3273084   -0.0120873 
H     2.7435601   -2.7918177    0.7608265 
H     1.2013674   -1.2721752    3.6790383 
H     2.0375617   -1.1754127    2.1064536 
H     2.9126539   -2.7287252   -1.7579069 
H     1.1772000   -3.0783333   -1.8946496 
H    -1.4187072    1.0374103    4.4198848 
H     2.0731899    0.6731649    3.8550773 
H     4.3884697   -1.5690678   -0.5554055 
H     2.5379554   -1.9668040   -3.7902988 
H    -2.1995592   -2.2951694    1.7548573 
H    -1.1337022    2.4548566    1.5295000 
H     1.6788455    1.7511154    0.1523676 
H     0.9092619    1.7642721   -2.2785933 
H    -3.4529206    0.4584121    5.7272425 
H     2.7340857    2.9165637    4.6509647 
H     6.1910103   -0.3359048    0.6072494 
H     2.8847441   -0.9141072   -5.9985176 
H    -4.2163846   -2.8856652    3.0853852 
H    -0.4630911    4.7025272    2.3356190 
H     3.5078692    2.9986959    1.2725502 
H     1.2871896    2.8199789   -4.5016114 
H    -4.8620433   -1.4995574    5.0669153 
H     1.4825675    4.9476744    3.9021327 
H     5.7733150    1.9537190    1.5204509 
H     2.2880736    1.4852689   -6.3683467 
