90
Energy =
C    -1.8090868    0.6889414   -2.1692836 
C    -2.6005854    0.8819552   -1.0161377 
C    -2.2641858    1.8512227   -0.0250667 
H    -3.4066614    0.1669706   -0.8083122 
Pd   -0.5981500    0.3831239   -0.2226743 
P     0.4230891    1.0487596    1.7954075 
P     0.8315451   -1.3985781   -0.7759955 
H    -1.0946797    1.4840552   -2.4352851 
H    -1.7499072    2.7632069   -0.3581173 
C    -2.6629773   -2.0660879   -5.3549480 
C    -1.3936503   -1.4773118   -5.2429573 
C    -1.1269417   -0.5809212   -4.2046641 
C    -2.1160121   -0.2670495   -3.2439857 
C    -3.3910700   -0.8665089   -3.3717047 
C    -3.6616603   -1.7513254   -4.4203446 
H    -2.8751056   -2.7627555   -6.1723076 
H    -0.6093324   -1.7205920   -5.9663381 
H    -0.1326711   -0.1300547   -4.1200873 
H    -4.1891633   -0.6151356   -2.6658292 
H    -4.6591353   -2.1929833   -4.5135809 
C    -4.3238676    2.2395897    3.7390596 
C    -4.3167222    1.0015955    3.0728071 
C    -3.6531047    0.8648197    1.8493499 
C    -2.9841542    1.9654611    1.2597105 
C    -2.9990109    3.2015911    1.9424357 
C    -3.6628335    3.3366700    3.1684613 
H    -4.8431789    2.3451323    4.6970610 
H    -4.8283324    0.1391047    3.5127439 
H    -3.6345814   -0.1141926    1.3574670 
H    -2.4784086    4.0613304    1.5074474 
H    -3.6602986    4.3046348    3.6800274 
C    -0.8945040   -2.0742735    2.1163226 
C     0.0490384   -3.0745360    1.4249584 
C    -0.2325976   -1.3114907    3.2931329 
C     1.2621090   -2.4528952    0.7025908 
C    -0.3567701    0.2258527    3.2614641 
C     2.4379151   -0.9081886   -1.5122438 
C     0.1503236   -2.6448915   -1.9400393 
C     0.2608745    2.8594101    2.0920661 
C     2.2411092    0.8101348    1.9596003 
C     2.4403337    0.1930718   -2.3950449 
C    -1.2104801   -2.9971141   -1.8230184 
C     0.4764184    3.7255956    0.9993081 
C     3.0479589    1.2095269    0.8746212 
C     3.6483544   -1.5798637   -1.2504480 
C     0.9547856   -3.2929228   -2.8985360 
C    -0.0368610    3.4069827    3.3542039 
C     2.8568278    0.3107015    3.1260757 
C     3.6270462    0.6107351   -3.0102176 
C    -1.7504200   -4.0040950   -2.6320717 
C     0.3941322    5.1138108    1.1649801 
C     4.4420285    1.1025962    0.9461838 
C     4.8364654   -1.1572310   -1.8643541 
C     0.4063724   -4.2937876   -3.7122778 
C    -0.1244932    4.7977317    3.5157011 
C     4.2529344    0.1898125    3.1880454 
C     4.8288673   -0.0653935   -2.7446574 
C    -0.9424665   -4.6538954   -3.5772289 
C     0.0889219    5.6527233    2.4253364 
C     5.0468111    0.5820984    2.0999484 
H    -1.7845638   -2.6185024    2.4770135 
H    -1.2736163   -1.3497133    1.3601542 
H     0.4439530   -3.7781395    2.1825476 
H    -0.5220816   -3.6932268    0.7095115 
H     0.8361921   -1.5850223    3.3567462 
H    -0.6771088   -1.6486612    4.2460534 
H     1.8611298   -1.8146803    1.3784707 
H     1.9199944   -3.2611773    0.3378473 
H    -1.4177610    0.5359427    3.2295642 
H     0.0804799    0.6575258    4.1792121 
H     1.5060928    0.7353280   -2.5818775 
H    -1.8501195   -2.4679008   -1.1065070 
H     0.7021574    3.3073314    0.0108377 
H     2.5837267    1.6044857   -0.0343850 
H     3.6785068   -2.4296398   -0.5627165 
H     2.0080387   -3.0161982   -3.0117870 
H    -0.2187486    2.7613380    4.2176903 
H     2.2608885    0.0230529    3.9971722 
H     3.6160821    1.4666398   -3.6929537 
H    -2.8081668   -4.2681202   -2.5377656 
H     0.5638636    5.7757758    0.3095649 
H     5.0517191    1.4151785    0.0930054 
H     5.7723204   -1.6835103   -1.6501975 
H     1.0367774   -4.7933871   -4.4552562 
H    -0.3658671    5.2120323    4.4999880 
H     4.7209226   -0.2038763    4.0962738 
H     5.7586512    0.2612044   -3.2217480 
H    -1.3680021   -5.4347128   -4.2158697 
H     0.0180664    6.7374171    2.5556484 
H     6.1362715    0.4883426    2.1550023 
