90
Energy =
C    -1.8619775   -0.0564438   -2.2259859 
C    -2.4086224    0.8587957   -1.2687224 
C    -1.7196902    2.0491713   -0.9494011 
H    -3.2911199    0.5698825   -0.6845875 
Pd   -0.4659836    0.1418410   -0.5293291 
P     0.3934504    0.6625703    1.5978495 
P     0.8976969   -1.6630615   -1.1968613 
H    -1.2717747    0.3669203   -3.0510466 
H    -0.9491457    2.3757112   -1.6655711 
C    -3.4326618   -3.9910832   -3.0007552 
C    -3.6426402   -3.3910622   -1.7465939 
C    -3.1456613   -2.1098520   -1.4879535 
C    -2.4298643   -1.3955707   -2.4798945 
C    -2.2263447   -2.0120017   -3.7340638 
C    -2.7238504   -3.2961330   -3.9912286 
H    -3.8215194   -4.9945600   -3.2018325 
H    -4.1929217   -3.9283856   -0.9670565 
H    -3.2929473   -1.6669412   -0.4962979 
H    -1.6672091   -1.4779128   -4.5096491 
H    -2.5542717   -3.7552321   -4.9706672 
C    -2.8310877    5.1339740    1.8221707 
C    -1.6889983    5.2681768    1.0185930 
C    -1.3440489    4.2519106    0.1226540 
C    -2.1249904    3.0762619    0.0157803 
C    -3.2742091    2.9584810    0.8317719 
C    -3.6227126    3.9782826    1.7208235 
H    -3.1083638    5.9290927    2.5218138 
H    -1.0714720    6.1697001    1.0843478 
H    -0.4615571    4.3700785   -0.5149396 
H    -3.9062807    2.0684042    0.7672725 
H    -4.5168266    3.8710870    2.3424544 
C    -0.6325529   -2.5977708    1.6956499 
C     0.3376608   -3.5028152    0.8962701 
C     0.0251208   -1.8990557    2.8987368 
C     0.2925721   -3.3216966   -0.6330128 
C     1.0552395   -0.8057574    2.5511391 
C     2.6565498   -1.5642095   -0.6622775 
C     1.0330933   -1.7750630   -3.0287608 
C    -0.9225328    1.3094394    2.7114689 
C     1.7473702    1.9016102    1.6580257 
C     3.4546054   -2.7037825   -0.4298983 
C     0.8808405   -2.9763145   -3.7464287 
C    -0.7444625    2.4432610    3.5271278 
C     2.6379982    2.0176942    2.7450461 
C     3.2253381   -0.2847629   -0.5090713 
C     1.3041086   -0.5817106   -3.7319818 
C    -2.1468830    0.6060172    2.7687085 
C     1.8955495    2.7711345    0.5576851 
C     4.7882767   -2.5551503   -0.0235818 
C     0.9969159   -2.9806309   -5.1450904 
C    -1.7574209    2.8376290    4.4132467 
C     3.6566507    2.9812953    2.7245205 
C     4.5591065   -0.1380404   -0.1068704 
C     1.4212084   -0.5898861   -5.1268978 
C    -3.1450968    0.9893608    3.6733171 
C     2.9106036    3.7361667    0.5395952 
C     5.3406527   -1.2753385    0.1442960 
C     1.2644068   -1.7917927   -5.8373190 
C    -2.9486883    2.1033077    4.5029392 
C     3.7953503    3.8408802    1.6241793 
H    -1.4902028   -3.1946059    2.0521535 
H    -1.0647878   -1.8294762    1.0176047 
H     1.3752469   -3.3423028    1.2432292 
H     0.1158925   -4.5627399    1.1122799 
H     0.5463166   -2.6567939    3.5147168 
H    -0.7529635   -1.4670942    3.5526419 
H     0.8983495   -4.1017839   -1.1269278 
H    -0.7394347   -3.4133196   -1.0205422 
H     1.4938144   -0.4169389    3.4861393 
H     1.8860940   -1.2022113    1.9384071 
H     3.0473825   -3.7108617   -0.5649045 
H     0.6543790   -3.9138683   -3.2314705 
H     0.1831443    3.0210526    3.4717497 
H     2.5449156    1.3609460    3.6154582 
H     2.6147410    0.6031326   -0.6974416 
H     1.4208774    0.3591570   -3.1798250 
H    -2.3199069   -0.2436455    2.0982411 
H     1.2166370    2.6702126   -0.2960431 
H     5.3993714   -3.4447284    0.1611166 
H     0.8703118   -3.9197303   -5.6936195 
H    -1.6102149    3.7235535    5.0395170 
H     4.3445376    3.0597183    3.5727005 
H     4.9785042    0.8655026    0.0184146 
H     1.6337252    0.3415664   -5.6617396 
H    -4.0822496    0.4248754    3.7206509 
H     3.0153994    4.4021672   -0.3232100 
H     6.3812931   -1.1673836    0.4670380 
H     1.3514493   -1.7991978   -6.9286137 
H    -3.7298207    2.4081000    5.2069687 
H     4.5932226    4.5905776    1.6114541 
