90
Energy =
C    -1.9788149   -0.2146939   -2.1439180 
C    -2.4396099    0.8675313   -1.3256205 
C    -1.6736433    2.0500265   -1.2266495 
H    -3.3101057    0.7230010   -0.6734471 
Pd   -0.5071915    0.1798360   -0.5453544 
P     0.3511173    0.8256811    1.5512906 
P     0.8100373   -1.7443138   -0.9938925 
H    -1.4157799    0.0392643   -3.0532666 
H    -0.9166408    2.2087349   -2.0112501 
C    -3.7593315   -4.1355230   -2.1581008 
C    -3.7683949   -3.3686523   -0.9794435 
C    -3.2024090   -2.0899289   -0.9691628 
C    -2.6123808   -1.5482827   -2.1378760 
C    -2.6069497   -2.3323539   -3.3117556 
C    -3.1789322   -3.6113450   -3.3220442 
H    -4.2042422   -5.1358464   -2.1660083 
H    -4.2174521   -3.7726374   -0.0659378 
H    -3.1951480   -1.5099867   -0.0386478 
H    -2.1459144   -1.9322074   -4.2207479 
H    -3.1669483   -4.2019744   -4.2440159 
C    -2.4316933    5.5885132    1.0819832 
C    -3.2807203    4.4786948    1.2229103 
C    -3.0559571    3.3175029    0.4786161 
C    -1.9714938    3.2412305   -0.4257075 
C    -1.1394544    4.3773937   -0.5740192 
C    -1.3619952    5.5370761    0.1748637 
H    -2.6110051    6.4945539    1.6697354 
H    -4.1229284    4.5187511    1.9202032 
H    -3.7319560    2.4671244    0.5990657 
H    -0.3174649    4.3465573   -1.2989294 
H    -0.7073698    6.4050106    0.0456984 
C    -0.0555838   -3.2177416    2.3815450 
C     0.9020914   -3.6362777    1.2532804 
C    -0.4719943   -1.7406047    2.3625973 
C     0.4164465   -3.3862780   -0.1965765 
C     0.7068817   -0.7470684    2.4709401 
C     2.6102032   -1.4736044   -0.7158695 
C     0.7755161   -2.1003359   -2.8056298 
C    -0.9097451    1.6705344    2.5923454 
C     1.8589152    1.8535681    1.6986081 
C     3.0877262   -0.1507951   -0.6485025 
C     0.4073193   -3.3381939   -3.3635112 
C    -0.6163106    2.8269895    3.3406748 
C     2.9265563    1.5348211    2.5607716 
C     3.5297846   -2.5426648   -0.6484314 
C     1.1329680   -1.0385835   -3.6656871 
C    -2.2058449    1.1134263    2.6641815 
C     1.9550167    2.9933377    0.8723623 
C     4.4569525    0.1070362   -0.4921140 
C     0.4127108   -3.5142431   -4.7570450 
C    -1.5962502    3.3978213    4.1657045 
C     4.0711981    2.3451676    2.5915727 
C     4.8964191   -2.2826819   -0.4844085 
C     1.1319626   -1.2157111   -5.0534500 
C    -3.1720676    1.6715829    3.5106463 
C     3.0957681    3.8041653    0.9117634 
C     5.3615143   -0.9596030   -0.4014250 
C     0.7722222   -2.4582778   -5.6034501 
C    -2.8680895    2.8151648    4.2645920 
C     4.1587581    3.4783792    1.7701276 
H     0.4224426   -3.4617757    3.3487853 
H    -0.9732832   -3.8330166    2.3248841 
H     1.8936130   -3.1701433    1.4003967 
H     1.0779016   -4.7225116    1.3489831 
H    -1.1894570   -1.5471791    3.1782472 
H    -1.0236551   -1.5506887    1.4175274 
H     0.8784953   -4.1413807   -0.8553278 
H    -0.6786624   -3.5147266   -0.2901333 
H     0.9541448   -0.5312312    3.5246389 
H     1.6167032   -1.1461934    1.9845440 
H     2.3817542    0.6836889   -0.7170980 
H     0.0956790   -4.1723715   -2.7294884 
H     0.3782206    3.2804019    3.2842223 
H     2.8799381    0.6550442    3.2086181 
H     3.1884332   -3.5797660   -0.7314603 
H     1.4207521   -0.0684584   -3.2415291 
H    -2.4614858    0.2428135    2.0501852 
H     1.1267405    3.2433167    0.2016374 
H     4.8075813    1.1421768   -0.4309212 
H     0.1229338   -4.4827950   -5.1775095 
H    -1.3586466    4.2985542    4.7410483 
H     4.8974667    2.0877478    3.2621864 
H     5.6030442   -3.1170870   -0.4267923 
H     1.4171725   -0.3859111   -5.7083645 
H    -4.1686208    1.2214640    3.5699833 
H     3.1575704    4.6894440    0.2702435 
H     6.4309901   -0.7639618   -0.2717406 
H     0.7730476   -2.5989282   -6.6891652 
H    -3.6249456    3.2570737    4.9208420 
H     5.0538596    4.1083331    1.7983738 
