90
Energy =
C    -0.6843730    0.7852160   -2.4147906 
C    -1.4089336    1.5627018   -1.4736840 
C    -0.7408424    2.4521177   -0.5925416 
H    -2.4819465    1.3818491   -1.3413226 
Pd   -0.0416155    0.3086369   -0.2862480 
P     0.4893296    0.6247069    1.9807693 
P     0.6070072   -1.8943637   -0.7878305 
H     0.3016027    1.1684579   -2.7151159 
H     0.2479593    2.8116348   -0.9123117 
C    -2.4154872   -1.8442226   -5.3416366 
C    -3.1819115   -1.4364844   -4.2366748 
C    -2.6245652   -0.6113760   -3.2566521 
C    -1.2889404   -0.1587192   -3.3695241 
C    -0.5217483   -0.5974146   -4.4733244 
C    -1.0798025   -1.4308114   -5.4504548 
H    -2.8576549   -2.4873139   -6.1095165 
H    -4.2189984   -1.7713366   -4.1358164 
H    -3.2346963   -0.3193821   -2.3963389 
H     0.5185880   -0.2683522   -4.5684502 
H    -0.4723189   -1.7491910   -6.3039389 
C    -2.6352450    5.0763306    2.2368191 
C    -1.2861907    5.2461674    1.8934811 
C    -0.6764899    4.3670710    0.9902846 
C    -1.4033453    3.3010204    0.4116722 
C    -2.7545759    3.1245822    0.7920279 
C    -3.3636271    4.0080188    1.6867177 
H    -3.1177460    5.7684626    2.9345898 
H    -0.7083152    6.0717514    2.3216103 
H     0.3742299    4.5113928    0.7170228 
H    -3.3370924    2.2910124    0.3878526 
H    -4.4119395    3.8595151    1.9637882 
C     3.1384988   -1.4334267    1.4471352 
C     2.7484942   -2.8242351    0.9168775 
C     2.6437827   -1.0866124    2.8629555 
C     1.2779469   -3.0515983    0.5230562 
C     1.1467930   -0.7722522    3.0405881 
C     1.8993070   -1.9996672   -2.0869836 
C    -0.8661340   -2.8412976   -1.3479531 
C    -1.0513261    1.0477326    2.8915984 
C     1.7292378    1.9456369    2.2758669 
C     2.3272321   -3.2392932   -2.6117605 
C    -1.9640227   -2.8725236   -0.4595930 
C    -2.1316040    0.1501456    2.7406015 
C     2.4136970    2.4988195    1.1755871 
C     2.5501044   -0.8207862   -2.5012842 
C    -0.9553038   -3.5239610   -2.5746535 
C    -1.2071266    2.1777290    3.7147700 
C     2.0864127    2.3534114    3.5802366 
C     3.3541348   -3.2857498   -3.5638311 
C    -3.1168854   -3.5996478   -0.7792993 
C    -3.3333116    0.3615230    3.4272473 
C     3.4076438    3.4689074    1.3668343 
C     3.5821995   -0.8698120   -3.4488973 
C    -2.1134641   -4.2490072   -2.8908542 
C    -2.4139774    2.3863274    4.3981495 
C     3.0749928    3.3282339    3.7691315 
C     3.9782053   -2.1020176   -3.9887105 
C    -3.1906448   -4.2961054   -1.9957894 
C    -3.4739033    1.4792109    4.2646210 
C     3.7317545    3.8922277    2.6638625 
H     2.8268213   -0.6480045    0.7289602 
H     4.2420223   -1.3890096    1.4663648 
H     3.3733809   -3.0467347    0.0332205 
H     3.0128763   -3.5857439    1.6757762 
H     3.2162613   -0.2140761    3.2255162 
H     2.8948127   -1.9201278    3.5471295 
H     1.1563878   -4.0695637    0.1107513 
H     0.5893365   -2.9842263    1.3823591 
H     0.4986706   -1.6432266    2.8440572 
H     0.9510432   -0.4730852    4.0861177 
H     1.8634267   -4.1734208   -2.2772783 
H    -1.9152912   -2.3213909    0.4871497 
H    -2.0307303   -0.7159621    2.0756144 
H     2.1698976    2.1541325    0.1641011 
H     2.2496625    0.1389103   -2.0650819 
H    -0.1395407   -3.4728371   -3.2999512 
H    -0.4051198    2.9143496    3.8056915 
H     1.5983920    1.9086394    4.4540523 
H     3.6726506   -4.2509045   -3.9709677 
H    -3.9585974   -3.6216487   -0.0792343 
H    -4.1611882   -0.3449283    3.3066507 
H     3.9315946    3.8907802    0.5029637 
H     4.0794818    0.0539194   -3.7622393 
H    -2.1739838   -4.7689449   -3.8522087 
H    -2.5261973    3.2741097    5.0286122 
H     3.3382071    3.6437732    4.7839570 
H     4.7813816   -2.1429521   -4.7316197 
H    -4.0910347   -4.8654018   -2.2484711 
H    -4.4127042    1.6477463    4.8021185 
H     4.5050312    4.6522386    2.8159162 
