90
Energy =
C    -0.5493333    0.7188447   -2.4930939 
C    -1.0250452    1.7369594   -1.6196687 
C    -0.1311354    2.5358186   -0.8695982 
H    -2.1019330    1.8336685   -1.4340273 
Pd    0.1266272    0.3182397   -0.3705737 
P     0.8762699   -1.8639828   -0.8297748 
P     0.5803784    0.6576830    1.9129665 
H     0.4648778    0.8383511   -2.9018493 
H     0.9053399    2.6037381   -1.2354122 
C    -3.0505131   -1.9448659   -4.7703360 
C    -3.6039254   -1.2118563   -3.7071864 
C    -2.8051947   -0.3443913   -2.9572143 
C    -1.4327564   -0.1782500   -3.2598120 
C    -0.8983500   -0.9008099   -4.3501574 
C    -1.6950748   -1.7821444   -5.0906565 
H    -3.6762479   -2.6309084   -5.3501035 
H    -4.6644037   -1.3244200   -3.4585102 
H    -3.2534598    0.1977033   -2.1175467 
H     0.1524587   -0.7580975   -4.6194713 
H    -1.2582441   -2.3356977   -5.9284474 
C    -1.2489374    5.8049054    1.6842538 
C    -0.0290422    5.8169613    0.9926000 
C     0.3325576    4.7303341    0.1880785 
C    -0.5324967    3.6240981    0.0368038 
C    -1.7606225    3.6258373    0.7374036 
C    -2.1103110    4.7013053    1.5588065 
H    -1.5285681    6.6496971    2.3221979 
H     0.6508970    6.6691638    1.0903590 
H     1.2969973    4.7337991   -0.3311524 
H    -2.4398166    2.7725707    0.6544254 
H    -3.0598535    4.6804276    2.1035232 
C     0.1697090   -2.7105630    2.3547562 
C     0.7984035   -1.8070185    3.4287115 
C     1.1548778   -3.5308911    1.5025888 
C     1.5594635   -0.5548592    2.9575847 
C     1.9386097   -2.7815429    0.4094282 
C    -0.9910389    0.8042294    2.8506424 
C     1.5680094    2.1848374    2.1863960 
C     2.0530595   -1.6690887   -2.2330151 
C    -0.3681733   -3.1222829   -1.2923968 
C    -1.0169697    1.0969817    4.2317454 
C     2.8129511    2.2510023    1.5226848 
C     3.1004070   -0.7358525   -2.0595037 
C    -1.7305973   -2.8195507   -1.1156154 
C    -2.2022112    0.5271186    2.1856066 
C     1.1668985    3.2551924    3.0057158 
C     1.9457066   -2.3595492   -3.4555027 
C     0.0043290   -4.4133893   -1.7298472 
C    -2.2376189    1.1482877    4.9180961 
C     3.6560491    3.3543010    1.7035398 
C     4.0283056   -0.5086322   -3.0830730 
C    -2.7123649   -3.7787502   -1.3998452 
C    -3.4215713    0.5730561    2.8753675 
C     2.0165518    4.3572358    3.1854250 
C     2.8763561   -2.1250882   -4.4803276 
C    -0.9794589   -5.3687501   -2.0132240 
C    -3.4405976    0.8921760    4.2409364 
C     3.2614434    4.4075710    2.5443938 
C     3.9173944   -1.2044288   -4.2979511 
C    -2.3383054   -5.0506482   -1.8537947 
H    -0.5023673   -2.1179705    1.7014490 
H    -0.4895998   -3.4267441    2.8767635 
H    -0.0012982   -1.4795112    4.1167305 
H     1.4977938   -2.4091492    4.0403371 
H     0.5941356   -4.3470890    1.0134235 
H     1.8894766   -4.0229193    2.1689827 
H     1.9001280    0.0229074    3.8356856 
H     2.4684561   -0.8006315    2.3820703 
H     2.6495047   -2.0442855    0.8199100 
H     2.5393253   -3.4989751   -0.1783021 
H    -0.0855681    1.2815223    4.7777868 
H     3.1226299    1.4342289    0.8586251 
H     3.1835368   -0.1769273   -1.1189782 
H    -2.0158881   -1.8260671   -0.7537420 
H    -2.1768979    0.2690812    1.1185491 
H     0.1816871    3.2531164    3.4796890 
H     1.1278621   -3.0662825   -3.6202346 
H     1.0612315   -4.6781226   -1.8441383 
H    -2.2489722    1.3828241    5.9874826 
H     4.6217765    3.3924856    1.1888155 
H     4.8367828    0.2147423   -2.9349001 
H    -3.7698999   -3.5287317   -1.2696735 
H    -4.3561612    0.3569505    2.3473821 
H     1.6902387    5.1880321    3.8191390 
H     2.7818643   -2.6661455   -5.4276799 
H    -0.6852053   -6.3665625   -2.3546069 
H    -4.3915687    0.9307653    4.7821349 
H     3.9202643    5.2699504    2.6889932 
H     4.6402976   -1.0260028   -5.1004661 
H    -3.1043213   -5.8002747   -2.0775765 
