90
Energy =
C    -0.6629336    0.6584812   -2.4571842 
C    -1.4094359    1.4703436   -1.5640257 
C    -0.7644992    2.4118125   -0.7199650 
H    -2.4812903    1.2805806   -1.4349251 
Pd   -0.0390707    0.2972767   -0.2996105 
P     0.4873332    0.7326004    1.9492543 
P     0.6154073   -1.9264474   -0.6840034 
H     0.3230113    1.0390009   -2.7612922 
H     0.2214374    2.7723495   -1.0473060 
C    -2.3055022   -2.1530281   -5.2639858 
C    -0.9696523   -1.7379876   -5.3635946 
C    -0.4421936   -0.8412832   -4.4265327 
C    -1.2397606   -0.3412443   -3.3713937 
C    -2.5762836   -0.7932515   -3.2668680 
C    -3.1034126   -1.6810988   -4.2080046 
H    -2.7238810   -2.8458370   -6.0013485 
H    -0.3380068   -2.1047576   -6.1792753 
H     0.5983217   -0.5116204   -4.5156151 
H    -3.2115287   -0.4510507   -2.4441482 
H    -4.1417282   -2.0142133   -4.1146376 
C    -2.7447350    5.1478121    1.9392018 
C    -1.3979998    5.3320949    1.5938763 
C    -0.7586981    4.4159632    0.7497410 
C    -1.4537881    3.2984876    0.2323414 
C    -2.8019728    3.1084872    0.6168898 
C    -3.4404540    4.0281554    1.4526407 
H    -3.2503100    5.8684544    2.5901997 
H    -0.8453015    6.1975570    1.9738071 
H     0.2900115    4.5706783    0.4740482 
H    -3.3584856    2.2351754    0.2628574 
H    -4.4859724    3.8680681    1.7338959 
C     3.1469051   -1.3528936    1.5063525 
C     2.7392793   -2.7751253    1.0814618 
C     2.6733221   -0.9022750    2.8994093 
C     1.2675547   -3.0119017    0.6953882 
C     1.1760847   -0.5929494    3.0788523 
C     1.9213044   -2.1044701   -1.9615684 
C    -0.8611541   -2.8904304   -1.2066759 
C    -1.0533379    1.1746722    2.8497855 
C     1.7029979    2.0899398    2.1699569 
C     2.3594671   -3.3708044   -2.4083348 
C    -1.9845741   -2.8195151   -0.3532861 
C    -1.2414608    2.3702600    3.5666694 
C     2.0424406    2.5830281    3.4493136 
C     2.5728966   -0.9492957   -2.4370431 
C    -0.9298726   -3.6806124   -2.3684576 
C    -2.0994983    0.2265678    2.8028252 
C     2.3870573    2.5855779    1.0423950 
C     3.3957999   -3.4686247   -3.3462865 
C    -3.1425063   -3.5527786   -0.6391279 
C    -2.4462737    2.5971626    4.2479142 
C     3.0142657    3.5831630    3.5848113 
C     3.6145137   -1.0493268   -3.3700372 
C    -2.0934535   -4.4105262   -2.6519155 
C    -3.2995652    0.4573650    3.4858337 
C     3.3644877    3.5811447    1.1807409 
C     4.0196650   -2.3092596   -3.8337822 
C    -3.1958980   -4.3569242   -1.7882694 
C    -3.4725787    1.6435383    4.2163766 
C     3.6715908    4.0881491    2.4516216 
H     2.8319886   -0.6180413    0.7378638 
H     4.2508641   -1.3162367    1.5091527 
H     3.3649720   -3.0719652    0.2206789 
H     2.9898687   -3.4809848    1.8968327 
H     3.2418045    0.0013735    3.1843687 
H     2.9452954   -1.6787300    3.6403346 
H     1.1372128   -4.0519659    0.3456662 
H     0.5748781   -2.8844874    1.5446271 
H     0.5365993   -1.4820113    2.9454877 
H     0.9912949   -0.2324890    4.1069065 
H     1.8977355   -4.2860055   -2.0226990 
H    -1.9522140   -2.1795844    0.5366972 
H    -0.4663374    3.1404720    3.5762304 
H     1.5520468    2.1866193    4.3448655 
H     2.2650003    0.0329629   -2.0604188 
H    -0.0941729   -3.7092015   -3.0718617 
H    -1.9728536   -0.6971197    2.2254751 
H     2.1563711    2.1756464    0.0523262 
H     3.7221677   -4.4546654   -3.6926040 
H    -4.0044161   -3.4941095    0.0336758 
H    -2.5833649    3.5349311    4.7956353 
H     3.2637362    3.9653535    4.5800076 
H     4.1120232   -0.1434788   -3.7315325 
H    -2.1384551   -5.0142105   -3.5639629 
H    -4.1005113   -0.2882907    3.4471179 
H     3.8888206    3.9576192    0.2963725 
H     4.8302214   -2.3901744   -4.5653044 
H    -4.1003223   -4.9306809   -2.0151685 
H    -4.4101865    1.8268309    4.7511159 
H     4.4318477    4.8682099    2.5621525 
