90
Energy =
C    -2.7468621    0.5330104   -0.3982301 
C    -2.2737573    0.2961120   -1.7256261 
C    -1.8975224   -1.0055085   -2.1256818 
H    -2.0704791    1.1423711   -2.3924455 
Pd   -0.6643023   -0.2820017   -0.3353753 
P    -0.2794403   -0.1145666    1.9874891 
P     1.4343304   -1.0438509   -1.0679417 
H    -3.2820715   -0.2859408    0.1003217 
H    -2.2718439   -1.8374071   -1.5087403 
C    -3.4835150    4.4174704    1.3085809 
C    -2.7443829    4.3103669    0.1179978 
C    -2.5058050    3.0559939   -0.4534107 
C    -3.0127700    1.8769244    0.1469115 
C    -3.7698128    2.0037149    1.3345382 
C    -3.9955807    3.2587941    1.9116915 
H    -3.6631950    5.3993461    1.7581778 
H    -2.3465363    5.2099000   -0.3633725 
H    -1.9029461    2.9935764   -1.3656119 
H    -4.1763040    1.1054635    1.8103805 
H    -4.5773690    3.3308508    2.8363577 
C    -0.4740944   -2.3261635   -5.9535839 
C    -0.7282597   -3.2460095   -4.9253513 
C    -1.1833942   -2.7930150   -3.6820990 
C    -1.3870604   -1.4135311   -3.4389739 
C    -1.1171835   -0.4989567   -4.4836381 
C    -0.6710681   -0.9535502   -5.7269433 
H    -0.1262382   -2.6761172   -6.9308226 
H    -0.5851521   -4.3177625   -5.0972448 
H    -1.4054906   -3.5143192   -2.8865706 
H    -1.2632468    0.5736831   -4.3284509 
H    -0.4717861   -0.2329657   -6.5258658 
C     0.1581243   -3.3905660    1.0184289 
C     1.5385466   -3.5229904    0.3255059 
C     0.2471327   -2.9195132    2.4803219 
C     1.6401055   -2.8860242   -1.0748763 
C     0.7771848   -1.4861994    2.6843438 
C     2.8777942   -0.3730254   -0.1432040 
C     1.7915285   -0.4841978   -2.7839909 
C    -1.8429571   -0.2648897    2.9479520 
C     0.4891377    1.4297084    2.6080222 
C     4.0662104   -1.1031264    0.0680633 
C     1.5953798    0.8855448   -3.0660621 
C    -2.7690869   -1.2665059    2.5821646 
C     1.5431245    1.4585453    3.5425414 
C     2.7973037    0.9580523    0.3140807 
C     2.2894178   -1.3305801   -3.7916433 
C    -2.1468926    0.5934596    4.0225967 
C    -0.0234957    2.6449005    2.1056456 
C     5.1433983   -0.5123377    0.7435450 
C     1.9233825    1.4045555   -4.3239604 
C    -3.9730268   -1.4113759    3.2836601 
C     2.0711706    2.6867774    3.9674446 
C     3.8819033    1.5503967    0.9741959 
C     2.6056548   -0.8075149   -5.0541754 
C    -3.3583887    0.4515568    4.7160561 
C     0.5043155    3.8677370    2.5364030 
C     5.0537735    0.8131495    1.1969141 
C     2.4342506    0.5578870   -5.3202411 
C    -4.2720929   -0.5473791    4.3500278 
C     1.5552697    3.8914152    3.4675059 
H    -0.3701083   -4.3596171    0.9874410 
H    -0.4821337   -2.6801570    0.4491675 
H     2.3253335   -3.0873172    0.9686422 
H     1.8003326   -4.5910979    0.2257107 
H     0.9210936   -3.5986815    3.0365992 
H    -0.7402651   -3.0148243    2.9659445 
H     2.6102730   -3.1357120   -1.5401183 
H     0.8518819   -3.2690222   -1.7487586 
H     0.8706671   -1.2881299    3.7665696 
H     1.7783982   -1.3537898    2.2325189 
H     4.1664752   -2.1301527   -0.2966893 
H     1.1898224    1.5476215   -2.2914478 
H    -2.5534194   -1.9279548    1.7345289 
H     1.9696646    0.5338623    3.9399345 
H     1.8783641    1.5337419    0.1597507 
H     2.4314979   -2.3993274   -3.6097544 
H    -1.4447778    1.3818537    4.3105620 
H    -0.8409998    2.6328670    1.3786476 
H     6.0597813   -1.0885235    0.9082720 
H     1.7785233    2.4705720   -4.5279319 
H    -4.6823626   -2.1932349    2.9932218 
H     2.8920665    2.6989329    4.6919074 
H     3.8001235    2.5833006    1.3261613 
H     2.9885542   -1.4753965   -5.8325909 
H    -3.5885069    1.1293491    5.5446361 
H     0.0903780    4.8014821    2.1420701 
H     5.8996234    1.2705021    1.7205336 
H     2.6912365    0.9613964   -6.3050155 
H    -5.2173548   -0.6529886    4.8921013 
H     1.9708080    4.8470745    3.8036530 
