90
Energy =
C    -1.5822690    0.1383090   -2.3252298 
C    -2.2406560    0.9805283   -1.3737680 
C    -1.5810238    2.1189240   -0.8578715 
H    -3.2089869    0.6706111   -0.9604803 
Pd   -0.4497058    0.1455732   -0.4253671 
P     0.3400963    0.5056640    1.7627184 
P     1.0345849   -1.6042099   -0.9613734 
H    -0.8583913    0.6154642   -3.0027625 
H    -0.7248290    2.4909383   -1.4422869 
C    -3.3781267   -3.4656022   -3.8492465 
C    -2.6735978   -2.6039902   -4.7018384 
C    -2.0779812   -1.4416857   -4.1956707 
C    -2.1909472   -1.1110396   -2.8294524 
C    -2.9012148   -1.9897914   -1.9783889 
C    -3.4859446   -3.1562999   -2.4824775 
H    -3.8389169   -4.3768019   -4.2443305 
H    -2.5778559   -2.8413017   -5.7662215 
H    -1.5170710   -0.7809367   -4.8646286 
H    -2.9754811   -1.7626397   -0.9082372 
H    -4.0286545   -3.8283872   -1.8091444 
C    -3.0577805    5.0253954    1.9381968 
C    -3.7153610    3.7906515    1.8136883 
C    -3.2477575    2.8273189    0.9160897 
C    -2.1101948    3.0807021    0.1155585 
C    -1.4667802    4.3356620    0.2433112 
C    -1.9320575    5.2971550    1.1462182 
H    -3.4263721    5.7744545    2.6463373 
H    -4.5947471    3.5753664    2.4282455 
H    -3.7677350    1.8680541    0.8410234 
H    -0.6039336    4.5626524   -0.3939287 
H    -1.4222654    6.2626608    1.2261754 
C    -1.0578812   -2.5649101    1.5852932 
C    -0.3789822   -3.5677046    0.6364300 
C    -0.2577067   -2.1271577    2.8303790 
C     0.9962019   -3.1557090    0.0780606 
C     0.8419310   -1.0551731    2.6497875 
C     2.7545326   -0.9707145   -0.7947461 
C     0.9744158   -2.2231262   -2.6933622 
C    -0.8920511    1.2439506    2.9108985 
C     1.8239283    1.5772274    1.8608539 
C     3.8485969   -1.8169380   -0.5180250 
C     0.3907390   -3.4620629   -3.0222447 
C    -0.5981283    2.3472568    3.7358979 
C     3.0363955    1.1830174    2.4592480 
C     2.9822858    0.4076434   -0.9901781 
C     1.5055987   -1.4162938   -3.7218260 
C    -2.1649080    0.6375538    2.9974178 
C     1.7400706    2.8457681    1.2470037 
C     5.1418433   -1.2842525   -0.4231151 
C     0.3703747   -3.8997899   -4.3543118 
C    -1.5554872    2.8178975    4.6461731 
C     4.1420613    2.0464435    2.4427745 
C     4.2782448    0.9332193   -0.9120452 
C     1.4794889   -1.8578456   -5.0507676 
C    -3.1048461    1.0918848    3.9308489 
C     2.8410921    3.7092274    1.2447226 
C     5.3586439    0.0882339   -0.6213550 
C     0.9188538   -3.1047182   -5.3693362 
C    -2.8014782    2.1838557    4.7573224 
C     4.0481368    3.3086795    1.8409181 
H    -2.0023032   -3.0238481    1.9287700 
H    -1.3556418   -1.6647629    1.0022450 
H    -0.2346246   -4.5255674    1.1712613 
H    -1.0733489   -3.7806364   -0.1973683 
H     0.2183145   -3.0140419    3.2913146 
H    -0.9695892   -1.7492066    3.5849815 
H     1.7071068   -2.9897641    0.9035446 
H     1.4200586   -3.9681020   -0.5375745 
H     1.2076797   -0.7491191    3.6460788 
H     1.7122516   -1.4364847    2.0879616 
H     3.7039097   -2.8941110   -0.3863822 
H    -0.0617940   -4.0938800   -2.2525584 
H     0.3791170    2.8360054    3.6741873 
H     3.1401503    0.2035337    2.9330922 
H     2.1327814    1.0729463   -1.1875954 
H     1.9652400   -0.4512118   -3.4812525 
H    -2.4247117   -0.1882873    2.3265966 
H     0.7995637    3.1568709    0.7820886 
H     5.9850572   -1.9471686   -0.2029986 
H    -0.0859150   -4.8649691   -4.5956937 
H    -1.3192200    3.6793205    5.2793051 
H     5.0816524    1.7266615    2.9046028 
H     4.4378500    2.0057903   -1.0575036 
H     1.9094455   -1.2303125   -5.8383989 
H    -4.0825988    0.6036233    3.9992740 
H     2.7587093    4.6951693    0.7752375 
H     6.3712665    0.4981095   -0.5480703 
H     0.9056164   -3.4519770   -6.4074878 
H    -3.5393076    2.5468610    5.4801861 
H     4.9132743    3.9796970    1.8345819 
