90
Energy =
C     0.0585228    0.6954657   -2.7372397 
C    -0.6932328    1.6323905   -1.9965539 
C    -0.0884732    2.5696541   -1.1115429 
H    -1.7884244    1.5701636   -2.0127641 
Pd    0.3516245    0.4701351   -0.4355817 
P     0.8999041    1.0704260    1.7831267 
P     0.4216037   -1.8983366   -0.4063512 
H     1.1362825    0.8873580   -2.8492580 
H     0.9370954    2.8989769   -1.3359723 
C    -1.5062762   -2.0368429   -5.6681350 
C    -2.3890889   -1.2444902   -4.9161986 
C    -1.8985992   -0.3713864   -3.9406615 
C    -0.5067182   -0.2496666   -3.7119218 
C     0.3703411   -1.0376846   -4.4947736 
C    -0.1228422   -1.9311741   -5.4514370 
H    -1.8941632   -2.7252093   -6.4260287 
H    -3.4684441   -1.3143502   -5.0848413 
H    -2.6086173    0.2222332   -3.3576304 
H     1.4501777   -0.9487658   -4.3461192 
H     0.5751714   -2.5374878   -6.0374858 
C    -2.5163209    5.3996243    1.0397452 
C    -1.2953821    5.7932857    0.4732349 
C    -0.4980937    4.8614134   -0.2025254 
C    -0.9139461    3.5200473   -0.3355764 
C    -2.1444533    3.1350531    0.2446304 
C    -2.9362287    4.0640103    0.9269798 
H    -3.1363150    6.1278531    1.5726389 
H    -0.9571436    6.8305251    0.5627462 
H     0.4548301    5.1756558   -0.6402463 
H    -2.4732226    2.0923088    0.1742786 
H    -3.8828911    3.7459163    1.3761676 
C     3.1529919   -1.6955075    1.4954045 
C     2.4049729   -3.0260656    1.3428712 
C     2.7765470   -0.9250760    2.7819996 
C     0.8910520   -2.8566035    1.1389764 
C     2.5327680    0.5717719    2.5633638 
C     1.5441819   -2.6257210   -1.6646579 
C    -1.2580720   -2.5676059   -0.7398732 
C    -0.3793085    0.4539294    2.9478254 
C     1.0172205    2.8772713    2.1273571 
C     1.4066454   -3.9574904   -2.1084234 
C    -1.6792121   -2.9302890   -2.0353795 
C    -0.1601092    0.3757400    4.3402640 
C     2.0954861    3.5938189    1.5650773 
C     2.6364852   -1.8586865   -2.1161670 
C    -2.1681692   -2.6861325    0.3360389 
C    -1.6363381    0.0837262    2.4293731 
C     0.1089362    3.5434726    2.9704866 
C     2.3323481   -4.4963005   -3.0121173 
C    -2.9813446   -3.4086349   -2.2446305 
C    -1.1799742   -0.0740638    5.1895260 
C     2.2852461    4.9457041    1.8784777 
C     3.5706957   -2.4052495   -3.0070532 
C    -3.4685345   -3.1561143    0.1172130 
C    -2.6582214   -0.3572442    3.2821057 
C     0.2973544    4.9008309    3.2696807 
C     3.4139595   -3.7226425   -3.4628365 
C    -3.8796689   -3.5194276   -1.1752884 
C    -2.4295109   -0.4397502    4.6633130 
C     1.3896374    5.6000155    2.7382268 
H     2.9422368   -1.0638865    0.6098452 
H     4.2410289   -1.8811138    1.4744416 
H     2.8242662   -3.5963124    0.4949823 
H     2.5620542   -3.6485755    2.2444980 
H     3.5864414   -1.0289662    3.5259313 
H     1.8839850   -1.3704561    3.2604518 
H     0.4002085   -3.8415090    1.0486567 
H     0.4217530   -2.3330216    1.9920912 
H     2.5674861    1.1281477    3.5168552 
H     3.3202560    1.0109153    1.9244476 
H     0.5732302   -4.5734808   -1.7541714 
H    -0.9912201   -2.8568573   -2.8818442 
H     0.8016250    0.6727876    4.7703953 
H     2.7956292    3.0966993    0.8827810 
H     2.7491743   -0.8240825   -1.7702363 
H    -1.8643259   -2.4202967    1.3528536 
H    -1.8053601    0.1359547    1.3471614 
H    -0.7457108    3.0077018    3.3937217 
H     2.2120649   -5.5271009   -3.3611004 
H    -3.2881528   -3.6930099   -3.2562201 
H    -0.9994965   -0.1357959    6.2676321 
H     3.1329228    5.4893543    1.4483737 
H     4.4166209   -1.8005116   -3.3499759 
H    -4.1595613   -3.2483138    0.9619165 
H    -3.6300822   -0.6402735    2.8642696 
H    -0.4183041    5.4119039    3.9215715 
H     4.1372486   -4.1495257   -4.1653025 
H    -4.8944597   -3.8938142   -1.3446765 
H    -3.2235329   -0.7881705    5.3318259 
H     1.5372327    6.6568324    2.9829672 
