90
Energy =
C    -1.8922477   -0.0949726   -2.2285407 
C    -2.4360564    0.8761354   -1.3261984 
C    -1.7377833    2.0788568   -1.0801289 
H    -3.3192839    0.6239502   -0.7259126 
Pd   -0.4967192    0.2081024   -0.5440088 
P     0.2595884    0.6881996    1.6343420 
P     0.9305956   -1.5980222   -1.1273251 
H    -1.3134110    0.2755515   -3.0866142 
H    -0.9637807    2.3539818   -1.8143731 
C    -3.4689767   -4.0754657   -2.6923415 
C    -3.5518865   -3.4321665   -1.4446493 
C    -3.0526784   -2.1351972   -1.2886494 
C    -2.4567298   -1.4512815   -2.3770511 
C    -2.3767392   -2.1123734   -3.6217703 
C    -2.8821754   -3.4098017   -3.7781384 
H    -3.8615774   -5.0901658   -2.8142627 
H    -4.0060813   -3.9470955   -0.5914295 
H    -3.1023009   -1.6519969   -0.3054910 
H    -1.9100282   -1.6015951   -4.4705366 
H    -2.8129313   -3.9033685   -4.7530635 
C    -2.7671327    5.3222065    1.5366538 
C    -1.6634097    5.4160452    0.6749757 
C    -1.3519771    4.3510344   -0.1757971 
C    -2.1270019    3.1659696   -0.1767545 
C    -3.2460994    3.0959812    0.6848520 
C    -3.5599974    4.1631041    1.5306787 
H    -3.0163814    6.1539013    2.2034856 
H    -1.0514845    6.3237021    0.6606070 
H    -0.5035565    4.4351029   -0.8651477 
H    -3.8797457    2.2053679    0.6920559 
H    -4.4283312    4.0903361    2.1923733 
C     0.0408113   -3.4313524    2.0615782 
C     1.0524892   -3.6912474    0.9329098 
C    -0.4518549   -1.9817492    2.1677686 
C     0.5978387   -3.3262649   -0.5027336 
C     0.6684487   -0.9460878    2.4143161 
C     2.7051903   -1.2698939   -0.7604281 
C     0.9705454   -1.7805553   -2.9646500 
C    -1.0749989    1.3660511    2.7054494 
C     1.7065386    1.7700191    1.9313082 
C     3.6754943   -2.2953791   -0.7611077 
C     0.6782986   -2.9744844   -3.6489629 
C    -0.8656416    2.4595692    3.5679254 
C     2.7527928    1.4315583    2.8119594 
C     3.1122277    0.0612396   -0.5487539 
C     1.3055888   -0.6274084   -3.7082008 
C    -2.3410294    0.7398636    2.6811405 
C     1.7779290    2.9781264    1.2058979 
C     5.0209640   -1.9878211   -0.5215830 
C     0.7373176   -3.0171383   -5.0516356 
C    -1.8977753    2.8983917    4.4099147 
C     3.8523423    2.2899743    2.9600084 
C     4.4604774    0.3675092   -0.3162328 
C     1.3578777   -0.6719358   -5.1055633 
C    -3.3592172    1.1646580    3.5439328 
C     2.8731597    3.8362220    1.3622571 
C     5.4148522   -0.6585905   -0.2942073 
C     1.0747407   -1.8711102   -5.7819858 
C    -3.1384995    2.2446706    4.4118869 
C     3.9153049    3.4907548    2.2382626 
H     0.5014489   -3.7436814    3.0175707 
H    -0.8411607   -4.0826658    1.9145771 
H     2.0134389   -3.1934009    1.1583008 
H     1.2820356   -4.7716068    0.9307990 
H    -1.2046858   -1.9040709    2.9705187 
H    -0.9812844   -1.7283856    1.2249811 
H     1.1174551   -3.9914059   -1.2135688 
H    -0.4858741   -3.4976753   -0.6457488 
H     0.8684257   -0.8205442    3.4923904 
H     1.6139477   -1.2507407    1.9277895 
H     3.3905898   -3.3345132   -0.9559154 
H     0.3846426   -3.8777249   -3.1076447 
H     0.1043159    2.9662411    3.5873721 
H     2.7243187    0.4996215    3.3834931 
H     2.3672738    0.8637928   -0.5639993 
H     1.5342159    0.3097663   -3.1853667 
H    -2.5323875   -0.0795773    1.9796970 
H     0.9665459    3.2425403    0.5203165 
H     5.7669946   -2.7892601   -0.5178857 
H     0.5067223   -3.9530374   -5.5710782 
H    -1.7253401    3.7511901    5.0746127 
H     4.6626087    2.0171562    3.6439315 
H     4.7552421    1.4072160   -0.1422652 
H     1.6252792    0.2278505   -5.6692426 
H    -4.3314415    0.6609012    3.5274754 
H     2.9160646    4.7737375    0.7981315 
H     6.4680200   -0.4259062   -0.1056778 
H     1.1176343   -1.9080233   -6.8753048 
H    -3.9361246    2.5826460    5.0814756 
H     4.7751865    4.1579452    2.3579547 
