90
Energy =
C    -0.6816551    0.8053331   -2.4091012 
C    -1.4046650    1.5768361   -1.4621347 
C    -0.7348566    2.4573190   -0.5731122 
H    -2.4782311    1.3977278   -1.3318621 
Pd   -0.0415080    0.3105739   -0.2825936 
P     0.4918535    0.6082764    1.9861876 
P     0.6009540   -1.8903858   -0.8015372 
H     0.3057773    1.1879292   -2.7053786 
H     0.2547598    2.8175511   -0.8895376 
C    -2.4143081   -1.8001320   -5.3564441 
C    -1.0769043   -1.3907584   -5.4592079 
C    -0.5187163   -0.5649291   -4.4757846 
C    -1.2873244   -0.1301554   -3.3713776 
C    -2.6248793   -0.5786248   -3.2649195 
C    -3.1824058   -1.3959742   -4.2513313 
H    -2.8566318   -2.4372014   -6.1292359 
H    -0.4681030   -1.7063664   -6.3127792 
H     0.5230163   -0.2390415   -4.5661769 
H    -3.2364753   -0.2893831   -2.4047285 
H    -4.2210103   -1.7275614   -4.1554287 
C    -2.6285687    5.0665746    2.2703810 
C    -1.2794867    5.2380177    1.9279181 
C    -0.6697695    4.3632483    1.0205117 
C    -1.3967703    3.3002308    0.4365526 
C    -2.7477753    3.1215077    0.8166085 
C    -3.3568333    4.0006425    1.7155159 
H    -3.1111337    5.7555057    2.9712660 
H    -0.7016523    6.0615701    2.3599972 
H     0.3809953    4.5087536    0.7479263 
H    -3.3300109    2.2894375    0.4089307 
H    -4.4050466    3.8506232    1.9921501 
C     3.1343661   -1.4547605    1.4346720 
C     2.7394552   -2.8406049    0.8950570 
C     2.6421505   -1.1163303    2.8533653 
C     1.2679683   -3.0601688    0.5000633 
C     1.1463685   -0.7985586    3.0347905 
C     1.8929616   -1.9895995   -2.1015258 
C    -0.8760579   -2.8269053   -1.3691340 
C    -1.0459096    1.0293012    2.9027425 
C     1.7357653    1.9234338    2.2897780 
C     2.3174049   -3.2263191   -2.6358939 
C    -0.9664136   -3.5043809   -2.5986097 
C    -2.1273040    0.1329368    2.7524646 
C     2.4214707    2.4823359    1.1931775 
C     2.5465438   -0.8093226   -2.5074076 
C    -1.9759777   -2.8554891   -0.4831896 
C    -1.1985150    2.1574409    3.7290627 
C     2.0948134    2.3205811    3.5969169 
C     3.3430181   -3.2681498   -3.5895835 
C    -2.1278441   -4.2219155   -2.9199231 
C    -3.3270049    0.3437326    3.4427712 
C     3.4189753    3.4474505    1.3910114 
C     3.5774267   -0.8537613   -3.4565512 
C    -3.1320304   -3.5752927   -0.8078952 
C    -2.4034446    2.3655179    4.4159974 
C     3.0870490    3.2903617    3.7924136 
C     3.9694723   -2.0828094   -4.0063689 
C    -3.2070472   -4.2667026   -2.0271704 
C    -3.4645042    1.4596705    4.2830196 
C     3.7453717    3.8599609    2.6909421 
H     2.8245665   -0.6632907    0.7223529 
H     4.2380465   -1.4140159    1.4531255 
H     3.3633282   -3.0591861    0.0097270 
H     3.0014268   -3.6081639    1.6486739 
H     3.2177029   -0.2481101    3.2214152 
H     2.8912882   -1.9553562    3.5314522 
H     1.1428726   -4.0745770    0.0801198 
H     0.5799222   -2.9969745    1.3601459 
H     0.4954360   -1.6661167    2.8324571 
H     0.9525105   -0.5065352    4.0826769 
H     1.8518435   -4.1618034   -2.3077249 
H    -0.1489207   -3.4549172   -3.3220619 
H    -2.0288240   -0.7320005    2.0856071 
H     2.1761472    2.1457075    0.1793454 
H     2.2490746    0.1477749   -2.0635332 
H    -1.9263100   -2.3075761    0.4653808 
H    -0.3954384    2.8929188    3.8198383 
H     1.6052517    1.8714648    4.4676483 
H     3.6586236   -4.2309963   -4.0043768 
H    -2.1893098   -4.7377365   -3.8834352 
H    -4.1557111   -0.3618828    3.3229856 
H     3.9439034    3.8738759    0.5299755 
H     4.0767626    0.0710418   -3.7633972 
H    -3.9752824   -3.5953849   -0.1096323 
H    -2.5132442    3.2519452    5.0487780 
H     3.3519514    3.5974771    4.8093813 
H     4.7715583   -2.1201391   -4.7506432 
H    -4.1100207   -4.8300377   -2.2839499 
H    -4.4018082    1.6277811    4.8232538 
H     4.5214899    4.6160159    2.8481472 
