103
Energy =
C    -1.7801455   -2.6922630   -1.5026615 
C    -1.4122097   -2.0414523   -2.7165474 
C    -0.0632643   -1.9519044   -3.1266576 
H    -2.1657106   -1.4578471   -3.2610244 
Pd   -0.3514993   -1.0327728   -1.0513630 
P     1.0732839    0.8307226   -1.0478576 
P    -0.6289029   -1.0470631    1.2768059 
H    -1.1596490   -3.5374870   -1.1741489 
H     0.6584497   -2.6400672   -2.6574008 
C    -5.7463761   -2.6622799    0.1740566 
C    -4.8456145   -3.6911451    0.4829980 
C    -3.5597813   -3.6925224   -0.0715524 
C    -3.1473550   -2.6644115   -0.9474865 
C    -4.0685928   -1.6340836   -1.2523177 
C    -5.3518602   -1.6339106   -0.6989413 
H    -6.7512317   -2.6589941    0.6086927 
H    -5.1419621   -4.4974125    1.1619749 
H    -2.8601933   -4.4978723    0.1764240 
H    -3.7716016   -0.8137410   -1.9155313 
H    -6.0487747   -0.8253385   -0.9432878 
C     1.3438928   -0.1085453   -6.7421837 
C    -0.0093836   -0.4599506   -6.6225005 
C    -0.4814445   -1.0519013   -5.4461391 
C     0.3967650   -1.3139436   -4.3694937 
C     1.7610579   -0.9711346   -4.5119187 
C     2.2277955   -0.3665850   -5.6821462 
H     1.7110156    0.3588997   -7.6615465 
H    -0.6991815   -0.2778456   -7.4531136 
H    -1.5348428   -1.3422850   -5.3770249 
H     2.4510567   -1.1606840   -3.6816318 
H     3.2835774   -0.0911902   -5.7682448 
O     0.0654178    2.5390893    3.7275933 
O     2.8818834    2.4499679    2.6873700 
C     0.5173346    1.8773574    1.5214609 
C     1.3289797    0.7799037    2.1348900 
C     0.3802828    2.0764674    0.1275615 
C     0.9140999   -0.5714818    2.1721162 
C    -0.1171985    2.7923728    2.4057395 
C     2.5514431    1.1344119    2.7657611 
C    -0.3883296    3.1511639   -0.3664188 
C     1.7088132   -1.5438654    2.8139374 
C     1.1362510    1.7074932   -2.6625760 
C     2.8140189    0.5767349   -0.5412013 
C    -1.0014987   -2.7460094    1.8762078 
C    -1.9272139    0.0486965    1.9532579 
C    -0.8899835    3.8559524    1.9081323 
C     3.3474993    0.1595855    3.3918903 
C    -1.0181122    4.0254591    0.5246753 
C     2.9163453   -1.1716808    3.4125996 
C    -0.0476717    1.7425412   -3.4302569 
C     3.6430916    1.6673339   -0.2030482 
C    -0.2145863   -3.8063781    1.3724881 
C    -2.8150815    0.6891832    1.0688580 
C     2.2968515    2.3317874   -3.1596922 
C     3.3324678   -0.7324351   -0.5065645 
C    -2.0490021   -3.0334513    2.7702936 
C    -2.0406648    0.2621313    3.3432563 
C    -0.0796039    2.4202318   -4.6542494 
C     4.9817325    1.4435656    0.1422829 
C    -0.4534380   -5.1246624    1.7792910 
C    -3.8171464    1.5301652    1.5684051 
C     2.2620845    3.0027349   -4.3897827 
C     4.6687291   -0.9511529   -0.1453976 
C    -2.2887504   -4.3571046    3.1712708 
C    -3.0536834    1.0937042    3.8369907 
C     1.0760308    3.0536138   -5.1354688 
C     5.4949490    0.1369982    0.1732423 
C    -1.4928606   -5.4021581    2.6832054 
C    -3.9402463    1.7286362    2.9517891 
C    -0.4748126    3.4443676    4.6879336 
C     4.0409646    2.9157520    3.3754875 
H    -0.4845761    3.3119856   -1.4430077 
H     1.3815315   -2.5847272    2.8621727 
H    -1.3905093    4.5484463    2.5882638 
H     4.2949907    0.4303680    3.8626862 
H    -1.6136767    4.8585611    0.1373019 
H     3.5304200   -1.9288617    3.9109465 
H    -0.9440127    1.2254970   -3.0662064 
H     3.2328423    2.6819042   -0.1825386 
H     0.5904190   -3.5943671    0.6575529 
H    -2.7026165    0.5369674   -0.0092145 
H     3.2334535    2.2881037   -2.5973187 
H     2.6766549   -1.5782228   -0.7450415 
H    -2.6928323   -2.2316875    3.1420569 
H    -1.3275300   -0.2043715    4.0306660 
H    -1.0020539    2.4364635   -5.2428341 
H     5.6260531    2.2924404    0.3942770 
H     0.1677889   -5.9368424    1.3877859 
H    -4.5003378    2.0333419    0.8767580 
H     3.1701435    3.4835479   -4.7680788 
H     5.0642047   -1.9713124   -0.1090489 
H    -3.1106067   -4.5691571    3.8628846 
H    -3.1478439    1.2516862    4.9165833 
H     1.0542367    3.5746497   -6.0980643 
H     6.5405815   -0.0334808    0.4501716 
H    -1.6844811   -6.4330516    2.9980620 
H    -4.7271562    2.3824151    3.3425658 
H    -0.1779135    3.0494220    5.6701998 
H    -1.5785207    3.4829132    4.6252272 
H    -0.0593810    4.4609741    4.5559926 
H     4.9605833    2.4477579    2.9764973 
H     3.9665978    2.7180235    4.4612293 
H     4.0768432    4.0006023    3.1999107 
