103
Energy =
C    -1.9808533   -2.6430060   -1.7560204 
C    -1.4946550   -1.7946259   -2.7936779 
C    -0.1332264   -1.8309777   -3.1761500 
H    -2.1592926   -1.0275625   -3.2129787 
Pd   -0.3941859   -1.2581846   -0.9745079 
P     1.3677179    0.3216760   -0.8786434 
P    -0.9425607   -0.9569205    1.2862476 
H    -1.4639174   -3.6052511   -1.6193390 
H     0.4259036   -2.7465720   -2.9279424 
C    -6.0615530   -2.5564961   -0.3958273 
C    -5.3759409   -1.3523591   -0.6283429 
C    -4.0527196   -1.3737008   -1.0787123 
C    -3.3826559   -2.5989893   -1.2935845 
C    -4.0823082   -3.8009388   -1.0547210 
C    -5.4129303   -3.7794387   -0.6188147 
H    -7.0962934   -2.5392012   -0.0389406 
H    -5.8750898   -0.3943805   -0.4481271 
H    -3.5117181   -0.4324634   -1.2334573 
H    -3.5758948   -4.7595143   -1.2149411 
H    -5.9426009   -4.7214251   -0.4427205 
C     1.7050770    0.4746475   -6.3053991 
C     2.2276773   -0.7701534   -5.9259378 
C     1.6251912   -1.4996262   -4.8950763 
C     0.4785907   -1.0075240   -4.2321923 
C    -0.0426253    0.2443292   -4.6322397 
C     0.5681455    0.9793056   -5.6522418 
H     2.1799541    1.0509115   -7.1061727 
H     3.1135019   -1.1718938   -6.4278931 
H     2.0444421   -2.4658444   -4.5961521 
H    -0.9267165    0.6538795   -4.1368337 
H     0.1551168    1.9515732   -5.9401923 
O     1.1628387    1.7914431    4.0479131 
O     0.9764006    3.8285944    1.7728330 
C     1.4054261    1.1761566    1.8017294 
C     0.0175486    1.6933033    1.5952864 
C     2.1788828    0.6288080    0.7516935 
C    -1.1120223    0.8713809    1.3908065 
C     1.9891337    1.3020037    3.0883029 
C    -0.1531008    3.1066825    1.5618973 
C     3.5153329    0.2429279    0.9789439 
C    -2.3653012    1.4454701    1.0744961 
C     0.7996732    1.9896772   -1.3911177 
C     2.7610315   -0.1527468   -1.9773207 
C     0.3055652   -1.5015491    2.5254696 
C    -2.4645690   -1.6670665    2.0343877 
C     3.3193129    0.9050856    3.3138029 
C    -1.4106319    3.6726171    1.2919723 
C     4.0733145    0.3906124    2.2530287 
C    -2.5038625    2.8348820    1.0346134 
C    -0.5138987    2.1664114   -1.8648679 
C     3.3692792    0.7264149   -2.8907557 
C     1.4235223   -2.2523592    2.1197371 
C    -2.7040594   -3.0353181    1.8011501 
C     1.6569345    3.1046053   -1.2786206 
C     3.2369159   -1.4780855   -1.8690045 
C     0.0956218   -1.2427380    3.8957589 
C    -3.2942329   -0.9628677    2.9320662 
C    -0.9594980    3.4358934   -2.2535741 
C     4.4600476    0.2930736   -3.6593051 
C     2.3376890   -2.7240991    3.0716298 
C    -3.7660527   -3.6868661    2.4392568 
C     1.2112535    4.3701246   -1.6812641 
C     4.3346120   -1.9013681   -2.6281918 
C     1.0103826   -1.7175344    4.8423875 
C    -4.3609944   -1.6186034    3.5617963 
C    -0.0939144    4.5368079   -2.1723466 
C     4.9526054   -1.0118431   -3.5216876 
C     2.1327250   -2.4560902    4.4326201 
C    -4.6014803   -2.9780674    3.3146170 
C     1.6699812    1.9808395    5.3678855 
C     0.8938774    5.2522348    1.8084417 
H     4.1200211   -0.1668892    0.1667454 
H    -3.2273586    0.8045425    0.8696179 
H     3.7682171    0.9928720    4.3055362 
H    -1.5383781    4.7565008    1.2549674 
H     5.1127782    0.0939344    2.4269354 
H    -3.4773965    3.2780473    0.8007073 
H    -1.1923808    1.3062101   -1.8938070 
H     2.9858587    1.7420840   -3.0202259 
H     1.5799315   -2.4547309    1.0536964 
H    -2.0517288   -3.5910074    1.1191360 
H     2.6610435    2.9843249   -0.8588496 
H     2.7459986   -2.1779201   -1.1813596 
H    -0.7766752   -0.6670654    4.2198092 
H    -3.1071456    0.0928863    3.1497066 
H    -1.9863844    3.5673276   -2.6096400 
H     4.9207996    0.9814938   -4.3750052 
H     3.2108081   -3.3003182    2.7490430 
H    -3.9469282   -4.7484135    2.2437227 
H     1.8832810    5.2313353   -1.6037600 
H     4.7038550   -2.9272851   -2.5274842 
H     0.8428311   -1.5178936    5.9061378 
H    -5.0025513   -1.0634568    4.2541467 
H    -0.4393601    5.5290024   -2.4814090 
H     5.8077706   -1.3420417   -4.1203784 
H     2.8441179   -2.8291224    5.1768003 
H    -5.4365903   -3.4862213    3.8076753 
H     0.8346945    2.3916584    5.9530154 
H     2.5130896    2.6968307    5.3738667 
H     1.9949243    1.0211762    5.8120534 
H     0.2189529    5.5928640    2.6158012 
H     0.5483398    5.6563664    0.8385486 
H     1.9156948    5.6047880    2.0093152 
