103
Energy =
C    -2.1383781   -2.4788283   -1.4668688 
C    -1.2865308   -2.2314713   -2.5914699 
C     0.0842075   -2.5703882   -2.5327826 
H    -1.6544645   -1.6273675   -3.4301601 
Pd   -0.4958855   -1.1266872   -0.8612858 
P     1.2572336    0.4112492   -0.9421248 
P    -1.1757439   -0.6009903    1.3123499 
H    -1.9204774   -3.3642471   -0.8540809 
H     0.3789141   -3.2993999   -1.7608306 
C    -6.1296998   -0.9344447   -0.9907410 
C    -5.2542419   -0.3302905   -1.9093337 
C    -3.9603508   -0.8297989   -2.0827658 
C    -3.5108640   -1.9516235   -1.3447817 
C    -4.4046804   -2.5516809   -0.4297741 
C    -5.6987455   -2.0468345   -0.2537616 
H    -7.1413466   -0.5391034   -0.8535063 
H    -5.5831417    0.5388707   -2.4888824 
H    -3.2838905   -0.3307419   -2.7861919 
H    -4.0740377   -3.4187556    0.1519713 
H    -6.3724122   -2.5261449    0.4641988 
C     3.1415902   -1.9713429   -5.4882510 
C     3.4454944   -2.5488419   -4.2461270 
C     2.4355907   -2.7334678   -3.2968141 
C     1.1030574   -2.3384360   -3.5639409 
C     0.8145591   -1.7510652   -4.8171182 
C     1.8237688   -1.5746309   -5.7679939 
H     3.9273939   -1.8322081   -6.2378504 
H     4.4697676   -2.8621619   -4.0196750 
H     2.6759711   -3.1895925   -2.3304623 
H    -0.2066784   -1.4422323   -5.0581924 
H     1.5816062   -1.1234285   -6.7352023 
O     0.2620573    2.9701512    3.4089693 
O     3.0712000    1.9710990    2.6862232 
C     0.7351433    1.9240416    1.3628698 
C     1.1373385    0.7409533    2.1873381 
C     0.8183933    1.9654639   -0.0479474 
C     0.3359307   -0.4131092    2.3569670 
C     0.3081485    3.0879035    2.0563634 
C     2.3669372    0.8287270    2.8941859 
C     0.4748366    3.1411220   -0.7469838 
C     0.7584868   -1.4523432    3.2115228 
C     1.4921883    0.9363659   -2.6862055 
C     2.8886371   -0.0818064   -0.2803534 
C    -2.1318505   -1.9885750    2.0496199 
C    -2.1720403    0.9051632    1.5858252 
C    -0.0517385    4.2515515    1.3541722 
C     2.7930744   -0.2193586    3.7292919 
C     0.0395742    4.2679809   -0.0421131 
C     1.9804902   -1.3482000    3.8845566 
C     0.3287736    1.2650764   -3.4197399 
C     3.0870887   -1.4183237    0.1176201 
C    -3.3658389   -1.7994303    2.6998954 
C    -2.3767402    1.4100899    2.8870714 
C     2.7482175    1.0180474   -3.3134565 
C     3.9300779    0.8570947   -0.1304285 
C    -1.6402220   -3.3023692    1.8752939 
C    -2.7523638    1.5521412    0.4786730 
C     0.4288908    1.7269821   -4.7375120 
C     4.3196729   -1.8186923    0.6483058 
C    -4.0827441   -2.9039662    3.1859785 
C    -3.1680468    2.5508379    3.0707742 
C     2.8402906    1.4620038   -4.6410745 
C     5.1659237    0.4478169    0.3873559 
C    -2.3538522   -4.4005316    2.3700686 
C    -3.5325857    2.6997056    0.6692711 
C     1.6882817    1.8330556   -5.3482081 
C     5.3613800   -0.8869512    0.7773940 
C    -3.5796678   -4.2023338    3.0277824 
C    -3.7419916    3.1978796    1.9640138 
C    -0.0830730    4.1109231    4.1925064 
C     4.2865804    2.1771483    3.4034555 
H     0.5565983    3.1832070   -1.8353038 
H     0.1307638   -2.3330003    3.3656551 
H    -0.3960578    5.1410085    1.8861639 
H     3.7446301   -0.1581359    4.2618258 
H    -0.2271781    5.1787363   -0.5882314 
H     2.3035145   -2.1565660    4.5487567 
H    -0.6562441    1.1695598   -2.9452812 
H     2.2594930   -2.1318885    0.0342486 
H    -3.7799202   -0.7938214    2.8146775 
H    -1.9042331    0.9223393    3.7457452 
H     3.6545051    0.7309574   -2.7724798 
H     3.7665109    1.9052929   -0.4012256 
H    -0.6947057   -3.4637144    1.3429821 
H    -2.5843592    1.1538216   -0.5272624 
H    -0.4767607    1.9964890   -5.2909242 
H     4.4655346   -2.8552946    0.9686639 
H    -5.0440762   -2.7442160    3.6850684 
H    -3.3360217    2.9382192    4.0812707 
H     3.8216612    1.5165343   -5.1232129 
H     5.9773940    1.1754370    0.4943268 
H    -1.9582506   -5.4126184    2.2357815 
H    -3.9777152    3.2048227   -0.1938938 
H     1.7689424    2.1890268   -6.3804451 
H     6.3269648   -1.2001240    1.1883842 
H    -4.1427860   -5.0607875    3.4079731 
H    -4.3557873    4.0925605    2.1127283 
H    -0.0260751    3.7818597    5.2400806 
H    -1.1108139    4.4541164    3.9697859 
H     0.6294128    4.9402662    4.0250498 
H     4.6530482    3.1656243    3.0910798 
H     5.0384350    1.4078728    3.1455571 
H     4.1111321    2.1751666    4.4955622 
