103
Energy =
C    -2.2005783   -2.4707672   -1.4430200 
C    -1.5070038   -2.0700344   -2.6075111 
C    -0.1029287   -2.3242201   -2.7313254 
H    -2.0085382   -1.4186633   -3.3341450 
Pd   -0.4681713   -1.0698847   -0.9462727 
P     1.7337488   -0.5953933   -0.3198790 
P    -1.4683955    0.3889356    0.5762714 
H    -1.7161802   -3.2415126   -0.8220643 
H     0.2857500   -3.2418405   -2.2686990 
C    -6.3351967   -1.9038199   -0.4310739 
C    -5.4572024   -2.5388403    0.4603644 
C    -4.1140082   -2.7114416    0.1124094 
C    -3.6170150   -2.2468961   -1.1286582 
C    -4.5124862   -1.6021617   -2.0123655 
C    -5.8567463   -1.4376949   -1.6663846 
H    -7.3896731   -1.7738052   -0.1667074 
H    -5.8214689   -2.9062715    1.4251853 
H    -3.4330867   -3.2126829    0.8087458 
H    -4.1622602   -1.2388329   -2.9828208 
H    -6.5376059   -0.9418415   -2.3652278 
C     2.4741842   -0.6347528   -5.7389762 
C     2.8440536   -1.7979319   -5.0488111 
C     1.9901035   -2.3484100   -4.0854196 
C     0.7476075   -1.7449974   -3.7885535 
C     0.3865854   -0.5719606   -4.4948414 
C     1.2386839   -0.0260848   -5.4590575 
H     3.1418104   -0.2031506   -6.4916988 
H     3.8039083   -2.2811797   -5.2589721 
H     2.2877347   -3.2546647   -3.5471437 
H    -0.5624474   -0.0701976   -4.2733313 
H     0.9428731    0.8830273   -5.9933851 
O     0.6251771    1.7294746    4.1413274 
O     2.7527412    2.8257698    2.2243219 
C     1.2365732    0.6067757    2.1748122 
C     0.7662962    1.8365546    1.4624984 
C     1.8025629   -0.5155171    1.5244296 
C    -0.4671218    1.9266454    0.7773651 
C     1.1717297    0.6131191    3.5942440 
C     1.5889893    2.9917322    1.5433405 
C     2.2884371   -1.6035455    2.2788411 
C    -0.8627741    3.1419177    0.1811366 
C     2.5092923    0.9446496   -0.9228221 
C     2.8596122   -1.9642994   -0.8106001 
C    -1.7903585   -0.2023764    2.2761312 
C    -3.0616162    0.9679232   -0.1301751 
C     1.6394669   -0.4829575    4.3407109 
C     1.1993254    4.1959007    0.9310411 
C     2.1995847   -1.5790415    3.6747541 
C    -0.0263602    4.2601521    0.2588804 
C     1.8865144    1.6633003   -1.9606383 
C     2.4395961   -3.2914765   -0.5650291 
C    -2.2157401    0.6821147    3.2887539 
C    -4.2648305    1.0171984    0.5962127 
C     3.7225623    1.4078645   -0.3716135 
C     4.0716629   -1.7440574   -1.4915425 
C    -1.5717020   -1.5607562    2.5782921 
C    -3.0527937    1.3746440   -1.4844284 
C     2.4709810    2.8403943   -2.4451759 
C     3.2328076   -4.3739282   -0.9638513 
C    -2.4455502    0.1980124    4.5832999 
C    -5.4305853    1.5057878   -0.0124484 
C     4.3072767    2.5789395   -0.8697134 
C     4.8591317   -2.8324379   -1.8983043 
C    -1.7884871   -2.0361931    3.8775934 
C    -4.2143187    1.8804818   -2.0799803 
C     3.6812166    3.2971001   -1.9018574 
C     4.4471285   -4.1452987   -1.6329360 
C    -2.2315468   -1.1580090    4.8788534 
C    -5.4051530    1.9534458   -1.3405117 
C     0.5782898    1.8547156    5.5611894 
C     3.6053804    3.9515712    2.4236848 
H     2.7496744   -2.4603282    1.7823407 
H    -1.8237634    3.2209318   -0.3318708 
H     1.5771440   -0.4841825    5.4310838 
H     1.8394397    5.0794676    0.9785993 
H     2.5805435   -2.4248319    4.2565248 
H    -0.3363390    5.2017583   -0.2060297 
H     0.9428124    1.2974941   -2.3784906 
H     1.4819060   -3.4752297   -0.0627044 
H    -2.3477844    1.7462150    3.0673016 
H    -4.2977236    0.6701913    1.6329917 
H     4.1941215    0.8636891    0.4531172 
H     4.3970935   -0.7258324   -1.7221211 
H    -1.2039521   -2.2328211    1.7945556 
H    -2.1244252    1.3041199   -2.0655736 
H     1.9809195    3.4012586   -3.2474295 
H     2.9003554   -5.3971385   -0.7604099 
H    -2.7852243    0.8836333    5.3668072 
H    -6.3640021    1.5349746    0.5588674 
H     5.2538769    2.9345433   -0.4492168 
H     5.7970867   -2.6481953   -2.4322118 
H    -1.6046044   -3.0897255    4.1114921 
H    -4.1926731    2.2095461   -3.1241861 
H     4.1399684    4.2151117   -2.2840780 
H     5.0644204   -4.9910452   -1.9527054 
H    -2.4053703   -1.5297936    5.8941823 
H    -6.3163336    2.3436813   -1.8054936 
H     1.5935678    1.8212149    5.9986718 
H    -0.0479681    1.0622695    6.0122539 
H     0.1239788    2.8362751    5.7589465 
H     4.4537126    3.5820675    3.0176649 
H     3.0842953    4.7530022    2.9801280 
H     3.9757983    4.3493603    1.4602747 
