103
Energy =
C    -2.2687784   -1.8622105   -2.2105484 
C    -1.1598194   -1.6122609   -3.0519753 
C     0.0497379   -2.3532493   -2.9040249 
H    -1.1836031   -0.7613829   -3.7456894 
Pd   -0.4180345   -1.2132038   -1.0268832 
P     1.6787270   -0.8064089   -0.0603521 
P    -1.5476203    0.1098975    0.5782754 
H    -2.3043840   -2.8456783   -1.7162709 
H    -0.0407528   -3.3823142   -2.5237897 
C    -6.1025857    0.0754219   -2.3985202 
C    -4.9600417    0.7596869   -2.8460426 
C    -3.7051848    0.1465093   -2.7911374 
C    -3.5622533   -1.1617567   -2.2744971 
C    -4.7194422   -1.8347310   -1.8222545 
C    -5.9774224   -1.2258370   -1.8906950 
H    -7.0849831    0.5565742   -2.4455548 
H    -5.0479658    1.7772944   -3.2404387 
H    -2.8284852    0.6957540   -3.1440735 
H    -4.6269397   -2.8469667   -1.4153214 
H    -6.8610823   -1.7667899   -1.5377736 
C     3.5508877   -1.5810030   -5.2830645 
C     3.1381946   -2.8974897   -5.0336642 
C     2.0011244   -3.1428794   -4.2538795 
C     1.2465150   -2.0752115   -3.7233505 
C     1.6657246   -0.7529501   -3.9938913 
C     2.8089566   -0.5083316   -4.7602383 
H     4.4485545   -1.3890459   -5.8794819 
H     3.7105923   -3.7379540   -5.4396433 
H     1.6902604   -4.1742711   -4.0522388 
H     1.1049285    0.0863357   -3.5652985 
H     3.1308533    0.5220141   -4.9452922 
O     0.4630651    3.6849180    2.2111791 
O     2.3543713    1.6827237    3.5399068 
C     1.0993393    1.6949902    1.1409727 
C     0.4810252    1.0003269    2.3122453 
C     1.6941175    1.0291541    0.0471899 
C    -0.7650171    0.3355021    2.2354517 
C     1.0420770    3.1177509    1.1227884 
C     1.1435133    1.0693069    3.5645442 
C     2.1434359    1.7609486   -1.0765146 
C    -1.3466562   -0.2221415    3.3919414 
C     3.2511372   -1.2994302   -0.8761511 
C     1.9670585   -1.4936999    1.6236430 
C    -3.2097166   -0.5672366    0.9679167 
C    -1.7736308    1.8298879   -0.0209323 
C     1.5301777    3.8429453    0.0225612 
C     0.5656252    0.5011017    4.7138289 
C     2.0630338    3.1555300   -1.0759026 
C    -0.6803037   -0.1288424    4.6181628 
C     3.3335304   -2.6276706   -1.3374381 
C     1.0452775   -2.3939553    2.1874687 
C    -4.3850733    0.2046663    0.9774154 
C    -1.3795304    2.1734622   -1.3278457 
C     4.3998409   -0.4813765   -0.9142883 
C     3.1582208   -1.1871928    2.3135703 
C    -3.2803609   -1.9417971    1.2846643 
C    -2.3024448    2.8217822    0.8317230 
C     4.5388757   -3.1272780   -1.8446266 
C     1.2992435   -2.9693617    3.4399456 
C    -5.6073593   -0.3856266    1.3320558 
C    -1.5400968    3.4848468   -1.7922913 
C     5.6013630   -0.9843743   -1.4315437 
C     3.4078586   -1.7656809    3.5631151 
C    -4.5001941   -2.5225435    1.6525043 
C    -2.4736879    4.1291072    0.3584333 
C     5.6729933   -2.3044734   -1.9000022 
C     2.4792665   -2.6548159    4.1288849 
C    -5.6665697   -1.7413953    1.6826346 
C    -2.0970689    4.4613552   -0.9531006 
C     0.4062271    5.1071101    2.3055803 
C     3.0835986    1.8250509    4.7578908 
H     2.5608821    1.2383603   -1.9417723 
H    -2.3157269   -0.7234896    3.3386034 
H     1.4755129    4.9334459    0.0043564 
H     1.0781605    0.5455665    5.6772091 
H     2.4211142    3.7215434   -1.9421251 
H    -1.1349643   -0.5599079    5.5160492 
H     2.4490454   -3.2722966   -1.2935637 
H     0.1222792   -2.6313485    1.6458019 
H    -4.3563059    1.2598663    0.6925461 
H    -0.9150259    1.4116101   -1.9643748 
H     4.3645217    0.5437201   -0.5335828 
H     3.8841072   -0.4940738    1.8777263 
H    -2.3721036   -2.5559281    1.2475090 
H    -2.5593292    2.5749846    1.8670698 
H     4.5885791   -4.1588717   -2.2070455 
H     0.5737893   -3.6625711    3.8776749 
H    -6.5188971    0.2205970    1.3261022 
H    -1.2200477    3.7467434   -2.8059681 
H     6.4872733   -0.3413669   -1.4610861 
H     4.3353508   -1.5283844    4.0950170 
H    -4.5419646   -3.5861992    1.9092674 
H    -2.8955276    4.8937173    1.0192840 
H     6.6134692   -2.6932071   -2.3038882 
H     2.6800802   -3.1082223    5.1051758 
H    -6.6226126   -2.1945751    1.9643216 
H    -2.2279422    5.4859907   -1.3168273 
H     1.4202887    5.5485329    2.2969019 
H    -0.0811854    5.3224526    3.2672641 
H    -0.1948143    5.5381183    1.4830311 
H     2.5156212    2.4202155    5.4973315 
H     4.0091020    2.3556393    4.4919270 
H     3.3350300    0.8382016    5.1900933 
