103
Energy =
C    -2.3745617   -1.6345017   -2.0907743 
C    -1.2222994   -1.9694860   -2.8609612 
C    -0.2191960   -2.8266683   -2.3562490 
H    -1.0257891   -1.4260646   -3.7943071 
Pd   -0.5352626   -1.0307743   -0.9741586 
P     1.6233507   -0.4992609   -0.2258542 
P    -1.6127660    0.2253024    0.6877083 
H    -2.7539451   -2.3927785   -1.3920071 
H    -0.4778493   -3.4625300   -1.4939983 
C    -5.2854779    1.3292889   -3.2250224 
C    -3.9776037    1.4075804   -3.7336214 
C    -3.0249561    0.4495592   -3.3764259 
C    -3.3569045   -0.6122631   -2.5014387 
C    -4.6758685   -0.6790287   -2.0011585 
C    -5.6298458    0.2812606   -2.3598894 
H    -6.0295962    2.0824431   -3.5038039 
H    -3.6999706    2.2248921   -4.4075269 
H    -2.0047297    0.5373886   -3.7669216 
H    -4.9504736   -1.4927500   -1.3214723 
H    -6.6458516    0.2098505   -1.9580258 
C     3.3293686   -4.0350244   -4.4538698 
C     2.2425731   -3.5113582   -5.1706413 
C     1.0850988   -3.1060628   -4.4973207 
C     0.9894238   -3.2288754   -3.0920611 
C     2.0850364   -3.7764246   -2.3856878 
C     3.2461852   -4.1663818   -3.0583372 
H     4.2365681   -4.3466850   -4.9814903 
H     2.2947159   -3.4248105   -6.2609191 
H     0.2365985   -2.7212394   -5.0723577 
H     2.0280387   -3.8689794   -1.2950071 
H     4.0921901   -4.5704399   -2.4935704 
O     0.4095602    3.5054144    2.8116500 
O     2.3746618    1.4273605    3.7219307 
C     1.0531760    1.7508768    1.3918939 
C     0.4951271    0.8442603    2.4436446 
C     1.6583213    1.2986669    0.1958367 
C    -0.7292795    0.1498225    2.3070518 
C     0.9997004    3.1497315    1.6411479 
C     1.2086950    0.7319767    3.6669325 
C     2.1767104    2.2236473   -0.7345201 
C    -1.2196451   -0.6452558    3.3636347 
C     2.9145055   -0.6920006   -1.5204838 
C     2.2524629   -1.3748032    1.2538216 
C    -3.2822801   -0.4611815    1.0427954 
C    -1.8372446    2.0087913    0.3523055 
C     1.5098811    4.0675630    0.7066684 
C     0.7232172   -0.0728102    4.7122727 
C     2.0941869    3.5949444   -0.4741773 
C    -0.4896393   -0.7523706    4.5513941 
C     4.2332521   -1.1016776   -1.2433422 
C     1.6029781   -2.5498876    1.6795635 
C    -4.4397868    0.3349745    1.1186203 
C    -1.5487856    2.5082044   -0.9314233 
C     2.5453561   -0.4126059   -2.8538072 
C     3.3779211   -0.9017585    1.9612004 
C    -3.3966716   -1.8608712    1.2018070 
C    -2.2874325    2.8831398    1.3639460 
C     5.1702497   -1.2031801   -2.2807823 
C     2.0761689   -3.2508140    2.7968498 
C    -5.6864247   -0.2579547    1.3728530 
C    -1.7174886    3.8706180   -1.2078341 
C     3.4862322   -0.5084868   -3.8853995 
C     3.8552421   -1.6151118    3.0677799 
C    -4.6412408   -2.4477525    1.4608642 
C    -2.4668010    4.2421695    1.0769397 
C     4.8019412   -0.9027923   -3.5997652 
C     3.2055647   -2.7867706    3.4876504 
C    -5.7907649   -1.6443473    1.5485127 
C    -2.1809890    4.7367330   -0.2062047 
C     0.3768401    4.8822726    3.1814464 
C     3.1071700    1.4563573    4.9452645 
H     2.6538991    1.8736817   -1.6533123 
H    -2.1748304   -1.1661284    3.2690232 
H     1.4537054    5.1423987    0.8918319 
H     1.2801117   -0.1707263    5.6466535 
H     2.4980306    4.3098592   -1.1984903 
H    -0.8739390   -1.3694125    5.3701458 
H     4.5318563   -1.3540517   -0.2223219 
H     0.7136473   -2.8991378    1.1416107 
H    -4.3776835    1.4152154    0.9613489 
H    -1.1769313    1.8258069   -1.7021763 
H     1.5102166   -0.1286589   -3.0801972 
H     3.8576370    0.0361937    1.6643503 
H    -2.5027976   -2.4922730    1.1223144 
H    -2.4762413    2.5041884    2.3736233 
H     6.1925401   -1.5240580   -2.0552434 
H     1.5607964   -4.1570575    3.1308579 
H    -6.5809706    0.3713033    1.4236543 
H    -1.4841948    4.2565567   -2.2052826 
H     3.1866384   -0.2950449   -4.9160482 
H     4.7347741   -1.2511532    3.6093230 
H    -4.7160248   -3.5325494    1.5893637 
H    -2.8253991    4.9192529    1.8594349 
H     5.5355994   -0.9881729   -4.4078913 
H     3.5779984   -3.3369190    4.3581196 
H    -6.7655566   -2.1022067    1.7453059 
H    -2.3178217    5.8012656   -0.4239617 
H     1.3986911    5.2975123    3.2646034 
H    -0.1158851    4.9156422    4.1638316 
H    -0.2083193    5.4779994    2.4559975 
H     2.4973900    1.8800355    5.7650545 
H     3.9753676    2.1046039    4.7583336 
H     3.4568473    0.4457641    5.2287752 
