103
Energy =
C    -2.1116695   -2.3705853   -1.9748943 
C    -1.5477059   -1.4870882   -2.9418423 
C    -0.1845645   -1.5889549   -3.3051655 
H    -2.1502229   -0.6481591   -3.3150809 
Pd   -0.4510664   -1.1603380   -1.0710528 
P     1.3995215    0.2982550   -0.8338650 
P    -1.0206326   -0.9972411    1.1982540 
H    -1.6677827   -3.3752256   -1.9014258 
H     0.3077713   -2.5553496   -3.1146039 
C    -6.1994319   -2.0762263   -0.6647737 
C    -5.4250195   -0.9127340   -0.8091271 
C    -4.0990840   -1.0013703   -1.2429438 
C    -3.5149625   -2.2558848   -1.5291419 
C    -4.3034131   -3.4163533   -1.3787841 
C    -5.6363293   -3.3261890   -0.9587666 
H    -7.2364561   -2.0067016   -0.3211143 
H    -5.8570469    0.0655133   -0.5730148 
H    -3.4895698   -0.0937585   -1.3288997 
H    -3.8649094   -4.3970019   -1.5957555 
H    -6.2349792   -4.2365666   -0.8506910 
C     1.8629186    0.8026019   -6.2336243 
C     2.2947651   -0.4981186   -5.9364171 
C     1.6257767   -1.2559975   -4.9689879 
C     0.5016011   -0.7356678   -4.2894016 
C     0.0727110    0.5738771   -4.6057224 
C     0.7500869    1.3358449   -5.5619041 
H     2.3898068    1.4002131   -6.9846771 
H     3.1613864   -0.9223915   -6.4531368 
H     1.9739588   -2.2671044   -4.7342122 
H    -0.7907972    1.0068553   -4.0941407 
H     0.4082255    2.3517720   -5.7852085 
O     1.1899191    1.4119008    4.1850259 
O     1.1615779    3.6180650    2.0649766 
C     1.4373906    0.9510533    1.9026953 
C     0.0847900    1.5615346    1.7170411 
C     2.1978428    0.4395384    0.8253710 
C    -1.0868730    0.8246226    1.4387724 
C     2.0046265    0.9486480    3.2027657 
C    -0.0038911    2.9811072    1.7867490 
C     3.5069656   -0.0363550    1.0412061 
C    -2.3001037    1.4926947    1.1524389 
C     0.9352726    2.0290979   -1.2298986 
C     2.7826858   -0.1752211   -1.9455200 
C     0.1739893   -1.7044599    2.4077985 
C    -2.5925033   -1.6723078    1.8722089 
C     3.3068578    0.4622244    3.4159400 
C    -1.2221271    3.6381276    1.5442709 
C     4.0499768   -0.0142749    2.3300557 
C    -2.3576781    2.8870379    1.2133415 
C     1.8516993    3.0819115   -1.0242896 
C     3.4545162    0.7303923   -2.7856423 
C     1.2548304   -2.4851454    1.9599494 
C    -2.9067818   -3.0025003    1.5321247 
C    -0.3583272    2.3150167   -1.7054018 
C     3.1817991   -1.5298771   -1.9262920 
C    -0.0431377   -1.5369846    3.7911266 
C    -3.3923746   -0.9916910    2.8141250 
C     1.4842927    4.3970939   -1.3368329 
C     4.5320432    0.2909953   -3.5692743 
C     2.1261105   -3.0773804    2.8843114 
C    -4.0121166   -3.6384089    2.1096520 
C    -0.7258047    3.6330812   -2.0035340 
C     4.2671699   -1.9601090   -2.6991954 
C     0.8287068   -2.1318908    4.7100402 
C    -4.5027862   -1.6306776    3.3824713 
C     0.1985965    4.6738810   -1.8295826 
C     4.9489427   -1.0461949   -3.5186002 
C     1.9148118   -2.9000150    4.2591124 
C    -4.8168428   -2.9513720    3.0298899 
C     1.6835833    1.4751343    5.5220566 
C     1.1606829    5.0375730    2.2060439 
H     4.1022792   -0.4185781    0.2088728 
H    -3.1945383    0.9199687    0.8918242 
H     3.7425388    0.4518896    4.4173682 
H    -1.2866022    4.7274594    1.5859274 
H     5.0683207   -0.3808959    2.4952553 
H    -3.3002439    3.4024747    1.0016614 
H     2.8404492    2.8737693   -0.6024868 
H     3.1310767    1.7730312   -2.8465545 
H     1.4167787   -2.6157671    0.8836507 
H    -2.2785869   -3.5411591    0.8146292 
H    -1.0831474    1.4991475   -1.8072199 
H     2.6408183   -2.2474314   -1.2969665 
H    -0.8869799   -0.9384220    4.1473353 
H    -3.1482019    0.0318884    3.1134932 
H     2.2023159    5.2104406   -1.1876602 
H     5.0419576    1.0007064   -4.2286219 
H     2.9709401   -3.6764040    2.5295577 
H    -4.2505000   -4.6699050    1.8319711 
H    -1.7377528    3.8488417   -2.3612809 
H     4.5769064   -3.0098882   -2.6671665 
H     0.6556970   -2.0026397    5.7837534 
H    -5.1207122   -1.0936789    4.1097547 
H    -0.0858112    5.7043619   -2.0673537 
H     5.7945682   -1.3812493   -4.1280473 
H     2.5927509   -3.3665855    4.9814282 
H    -5.6856697   -3.4465661    3.4756032 
H     1.9470323    0.4686382    5.8981146 
H     0.8622174    1.8885393    6.1248085 
H     2.5648553    2.1399311    5.5924012 
H     2.1974976    5.3135403    2.4460527 
H     0.4925604    5.3565878    3.0277582 
H     0.8559669    5.5321635    1.2647613 
