103
Energy =
C    -2.4378540   -1.6557339   -2.0856181 
C    -1.3022775   -1.7747868   -2.9185891 
C    -0.1840356   -2.5659999   -2.4998479 
H    -1.2120524   -1.1275523   -3.7998188 
Pd   -0.5415865   -0.9597352   -1.0225490 
P     1.3094325   -1.2661321    0.3727684 
P    -1.2615990    1.0265288   -0.0300068 
H    -2.5583494   -2.4240972   -1.3050728 
H    -0.3963725   -3.4592333   -1.8964768 
C    -6.0148247    0.6390206   -2.7009964 
C    -5.8343827   -0.1112202   -1.5290796 
C    -4.6613170   -0.8502430   -1.3477494 
C    -3.6406382   -0.8498206   -2.3281905 
C    -3.8343165   -0.0829122   -3.4998722 
C    -5.0110064    0.6489347   -3.6831288 
H    -6.9350495    1.2128929   -2.8512700 
H    -6.6118347   -0.1255721   -0.7583868 
H    -4.5260813   -1.4384436   -0.4337982 
H    -3.0684366   -0.0677164   -4.2807270 
H    -5.1469622    1.2327706   -4.5987971 
C     3.6930380   -2.5795021   -4.3734435 
C     3.2890037   -3.6431454   -3.5538804 
C     2.0189279   -3.6368225   -2.9645160 
C     1.1255839   -2.5634321   -3.1792053 
C     1.5465779   -1.4973419   -4.0107305 
C     2.8131889   -1.5075647   -4.6018477 
H     4.6863801   -2.5832549   -4.8337159 
H     3.9656703   -4.4842105   -3.3700073 
H     1.7117966   -4.4692549   -2.3223724 
H     0.8831194   -0.6417180   -4.1814082 
H     3.1212409   -0.6731030   -5.2408161 
O    -0.0800573    2.1039182    4.0120751 
O     2.8081416    1.9078930    2.9917249 
C     0.5928273    0.4822445    2.4566444 
C     0.9549214    1.6393126    1.5784290 
C     0.7997916   -0.8724916    2.1037963 
C     0.1749624    2.0679330    0.4798785 
C     0.0793959    0.7814285    3.7473636 
C     2.1180903    2.3793047    1.9206629 
C     0.4963174   -1.9000042    3.0208959 
C     0.5551285    3.2056839   -0.2616658 
C     2.8224751   -0.2931659    0.0563064 
C     1.8271350   -3.0310924    0.3868450 
C    -2.3371577    0.9290064    1.4451041 
C    -2.1320466    2.0331507   -1.2955500 
C    -0.2399038   -0.2477951    4.6507911 
C     2.5039881    3.5013428    1.1665734 
C    -0.0223421   -1.5797104    4.2800803 
C     1.7149397    3.9065566    0.0842609 
C     2.9492419    0.3962429   -1.1643407 
C     3.1647082   -3.4322295    0.2098084 
C    -2.8274468   -0.3284247    1.8484315 
C    -1.5114070    2.1501990   -2.5607089 
C     3.8615088   -0.2406886    1.0091495 
C     0.8212350   -4.0183471    0.4950551 
C    -2.6507272    2.0790816    2.1985411 
C    -3.3638100    2.6734134   -1.0706235 
C     4.1076827    1.1366674   -1.4322151 
C     3.4909547   -4.7966813    0.1643262 
C    -3.6353338   -0.4362933    2.9872634 
C    -2.0837784    2.9461334   -3.5600420 
C     5.0218996    0.4916520    0.7289565 
C     1.1521430   -5.3781835    0.4585089 
C    -3.4715112    1.9674821    3.3285337 
C    -3.9427817    3.4530487   -2.0831030 
C     5.1439672    1.1832006   -0.4875448 
C     2.4912352   -5.7703915    0.2924348 
C    -3.9625787    0.7127279    3.7239628 
C    -3.2991652    3.6056216   -3.3189318 
C    -0.5257851    2.5035632    5.3065669 
C     3.9479938    2.6299193    3.4540402 
H     0.6780605   -2.9455853    2.7619149 
H    -0.0555548    3.5515777   -1.0984115 
H    -0.6478037   -0.0187055    5.6376296 
H     3.4074692    4.0604230    1.4191591 
H    -0.2545816   -2.3805512    4.9897850 
H     2.0073491    4.7889493   -0.4943152 
H     2.1351766    0.3517999   -1.8952350 
H     3.9532070   -2.6840270    0.0896942 
H    -2.5466479   -1.2218340    1.2791794 
H    -0.5678457    1.6233343   -2.7524032 
H     3.7525041   -0.7554516    1.9691547 
H    -0.2279585   -3.7168676    0.6027782 
H    -2.2387307    3.0518987    1.9110182 
H    -3.8766575    2.5613340   -0.1110244 
H     4.2012437    1.6772520   -2.3794961 
H     4.5342928   -5.0959081    0.0204502 
H    -4.0034429   -1.4171335    3.3049425 
H    -1.5855850    3.0450911   -4.5301543 
H     5.8335459    0.5250991    1.4634930 
H     0.3645979   -6.1332068    0.5513420 
H    -3.7224024    2.8624236    3.9077094 
H    -4.9043488    3.9436709   -1.9008652 
H     6.0512056    1.7588564   -0.6993745 
H     2.7503323   -6.8334487    0.2554871 
H    -4.5977626    0.6298625    4.6122253 
H    -3.7519761    4.2242764   -4.1005867 
H    -1.5405019    2.1168308    5.5173380 
H    -0.5501785    3.6026742    5.2872361 
H     0.1734812    2.1621567    6.0926411 
H     4.7406872    2.6636453    2.6832978 
H     4.3143546    2.0787646    4.3320742 
H     3.6746360    3.6599709    3.7501809 
