103
Energy =
C    -2.1481588   -2.4009507   -1.5141576 
C    -1.4162730   -2.0706103   -2.6923087 
C    -0.0428095   -2.3759406   -2.8185146 
H    -1.8815146   -1.4245359   -3.4480505 
Pd   -0.4291073   -1.0787454   -0.9723404 
P     1.4220656    0.3608353   -0.8883969 
P    -1.1001931   -0.6316490    1.2294440 
H    -1.8421083   -3.3021059   -0.9649842 
H     0.3775985   -3.1273118   -2.1304897 
C    -6.1933908   -1.1504570   -0.7292628 
C    -5.3927847   -0.4042771   -1.6110961 
C    -4.0794236   -0.8012984   -1.8765842 
C    -3.5335792   -1.9561213   -1.2669005 
C    -4.3513080   -2.6967330   -0.3853157 
C    -5.6673375   -2.2983514   -0.1201815 
H    -7.2212148   -0.8363268   -0.5205674 
H    -5.7955064    0.4951843   -2.0885534 
H    -3.4635760   -0.1968649   -2.5521114 
H    -3.9452779   -3.5922240    0.0971683 
H    -6.2819905   -2.8877351    0.5681039 
C     2.4050153   -1.5594264   -6.2526092 
C     2.9922759   -1.8404009   -5.0085343 
C     2.1872962   -2.1091913   -3.8983150 
C     0.7775299   -2.0847029   -4.0041225 
C     0.1996125   -1.8033838   -5.2635003 
C     1.0073005   -1.5492646   -6.3771216 
H     3.0358623   -1.3559106   -7.1239088 
H     4.0818309   -1.8456205   -4.9045433 
H     2.6486540   -2.3170284   -2.9259990 
H    -0.8887954   -1.8155139   -5.3817890 
H     0.5443517   -1.3492551   -7.3489972 
O     0.1029635    3.0404049    3.3323772 
O     2.9265280    2.0976464    2.9278789 
C     0.7341351    1.9274999    1.3646791 
C     1.0992056    0.7856398    2.2606091 
C     0.9001179    1.9167504   -0.0401768 
C     0.3335080   -0.3982755    2.3688021 
C     0.2278668    3.1044065    1.9813962 
C     2.2429411    0.9346662    3.0899323 
C     0.5495794    3.0470872   -0.8077991 
C     0.7099984   -1.4103453    3.2759552 
C     1.9986984    0.9109486   -2.5449384 
C     2.9142104   -0.2182973    0.0001375 
C    -2.0165651   -2.0627763    1.9340875 
C    -2.1509661    0.8438257    1.4800179 
C    -0.1291043    4.2245186    1.2107553 
C     2.6227837   -0.0827362    3.9824013 
C     0.0359166    4.1851404   -0.1785879 
C     1.8495018   -1.2459520    4.0692870 
C     1.0204067    1.1021414   -3.5443667 
C     3.9347341    0.6803043    0.3770800 
C    -3.2413247   -1.9321252    2.6138995 
C    -2.4411715    1.3120791    2.7788665 
C     3.3530813    1.1412089   -2.8555634 
C     3.0463299   -1.5893641    0.2945157 
C    -1.4701500   -3.3515368    1.7393484 
C    -2.6658790    1.5192280    0.3578038 
C     1.3862523    1.5499570   -4.8187316 
C     5.0820437    0.2005655    1.0211322 
C    -3.8951332   -3.0703602    3.1111960 
C    -3.2614056    2.4351457    2.9441869 
C     3.7154564    1.5824389   -4.1355806 
C     4.1896290   -2.0609681    0.9535170 
C    -2.1226475   -4.4838519    2.2418765 
C    -3.4745735    2.6493720    0.5299592 
C     2.7356662    1.7928535   -5.1159850 
C     5.2099873   -1.1671515    1.3117012 
C    -3.3386828   -4.3439346    2.9319671 
C    -3.7768832    3.1044855    1.8221792 
C    -0.3260133    4.1988308    4.0447195 
C     4.0320583    2.3768936    3.7844822 
H     0.6886887    3.0428960   -1.8916641 
H     0.1091006   -2.3167425    3.3769656 
H    -0.5337509    5.1218017    1.6838675 
H     3.5107498    0.0264267    4.6088679 
H    -0.2343529    5.0607259   -0.7778799 
H     2.1379513   -2.0330593    4.7736017 
H    -0.0318382    0.8878695   -3.3197979 
H     3.8162548    1.7527554    0.1928424 
H    -3.6988518   -0.9473362    2.7420845 
H    -2.0105820    0.8113883    3.6521163 
H     4.1304232    0.9668922   -2.1066959 
H     2.2393181   -2.2794236    0.0208351 
H    -0.5266659   -3.4649137    1.1907542 
H    -2.4138725    1.1626683   -0.6458862 
H     0.6193818    1.6895499   -5.5868587 
H     5.8775133    0.8984192    1.3031150 
H    -4.8504282   -2.9566978    3.6338680 
H    -3.4943614    2.7931327    3.9525977 
H     4.7712668    1.7569226   -4.3673790 
H     4.2826088   -3.1256552    1.1907088 
H    -1.6857782   -5.4764543    2.0911374 
H    -3.8663334    3.1770265   -0.3454841 
H     3.0233528    2.1326070   -6.1161605 
H     6.1055324   -1.5364228    1.8223045 
H    -3.8530520   -5.2287412    3.3207629 
H    -4.4135937    3.9853169    1.9567270 
H    -0.3207834    3.9149658    5.1069938 
H    -1.3497091    4.4950091    3.7482146 
H     0.3670568    5.0457462    3.8837466 
H     4.8434419    1.6373740    3.6476664 
H     3.7206809    2.3918907    4.8457095 
H     4.3924877    3.3736155    3.4918403 
