103
Energy =
C     1.7319268    3.3109326    0.0838303 
C     2.5166229    2.5067292   -0.7940521 
C     2.0567431    2.1989620   -2.0958796 
H     3.4272126    2.0281014   -0.4097993 
Pd    0.6298013    1.4363106   -0.4750258 
P     0.0293019   -0.5863656   -1.5507231 
P    -0.7625014    1.0101419    1.3638690 
H     1.0711902    4.0568472   -0.3840589 
H     1.2973111    2.8713218   -2.5247257 
C     2.9392467    4.2132090    4.1136387 
C     3.0783661    2.9060848    3.6174963 
C     2.6964469    2.6087235    2.3060278 
C     2.1550849    3.6085935    1.4671219 
C     2.0200436    4.9169092    1.9781588 
C     2.4173106    5.2181496    3.2867776 
H     3.2338171    4.4443891    5.1422948 
H     3.4780743    2.1155517    4.2613870 
H     2.7812231    1.5819161    1.9305748 
H     1.6006684    5.7033381    1.3404676 
H     2.3094092    6.2395969    3.6660662 
C     4.1561146   -0.0946724   -5.0656798 
C     3.2215146    0.8822654   -5.4383002 
C     2.5357309    1.6079695   -4.4579690 
C     2.7810890    1.3832914   -3.0847597 
C     3.7319614    0.4009820   -2.7245104 
C     4.4063992   -0.3335215   -3.7039646 
H     4.6879685   -0.6690801   -5.8311980 
H     3.0182263    1.0747587   -6.4964502 
H     1.7995644    2.3619295   -4.7551682 
H     3.9405864    0.2004695   -1.6703954 
H     5.1320628   -1.0965855   -3.4040401 
O    -0.8652716   -4.1459729    0.8972156 
O    -3.3283326   -2.5664494    1.8071998 
C    -0.7938658   -1.8207505    1.2103067 
C    -1.8637607   -1.7614138    0.1671997 
C    -0.2416887   -0.6868819    1.8446399 
C    -1.6140873   -1.3315334   -1.1569484 
C    -0.2794482   -3.1062033    1.5431358 
C    -3.1633237   -2.2181169    0.5054075 
C     0.8559757   -0.8251468    2.7256997 
C    -2.6355136   -1.3854188   -2.1268062 
C    -2.5764564    0.9993208    1.0470781 
C    -0.7128089    2.0252436    2.8961693 
C     1.2137067   -1.9301811   -1.1515031 
C    -0.0028849   -0.3975630   -3.3773865 
C     0.7823106   -3.2416511    2.4535344 
C    -4.1831585   -2.2585234   -0.4621565 
C     1.3517155   -2.0962265    3.0253508 
C    -3.9052404   -1.8531859   -1.7724785 
C    -3.0800639    1.4335066   -0.1923909 
C    -0.7764702    3.4226245    2.7317860 
C     0.9702139   -3.2517279   -1.5813892 
C     0.6323808   -1.2835117   -4.2655700 
C    -3.4687559    0.6391068    2.0780120 
C    -0.7698482    1.4783581    4.1953757 
C     2.3552875   -1.6487502   -0.3777206 
C    -0.7241321    0.7020549   -3.8926355 
C    -4.4635188    1.4881720   -0.4099376 
C    -0.8761011    4.2627153    3.8470509 
C     1.8879150   -4.2647167   -1.2746549 
C     0.5174635   -1.0890454   -5.6502457 
C    -4.8492973    0.6972113    1.8563126 
C    -0.8619636    2.3249363    5.3085472 
C     3.2630906   -2.6673884   -0.0621543 
C    -0.8479467    0.8832772   -5.2755432 
C    -5.3486020    1.1189232    0.6130158 
C    -0.9109481    3.7161594    5.1379414 
C     3.0357613   -3.9739626   -0.5194559 
C    -0.2310445   -0.0182445   -6.1577823 
C    -0.4502127   -5.4759602    1.2034695 
C    -4.5953994   -3.0626158    2.2360098 
H     1.3116892    0.0594727    3.1792555 
H    -2.4422989   -1.0679615   -3.1540072 
H     1.1842759   -4.2267144    2.6996066 
H    -5.1869844   -2.6013171   -0.2021581 
H     2.1948574   -2.2024269    3.7158407 
H    -4.6965814   -1.8971692   -2.5278588 
H    -2.3823571    1.7158307   -0.9893817 
H    -0.7515814    3.8511741    1.7242750 
H     0.0563848   -3.4882771   -2.1362113 
H     1.2320537   -2.1143825   -3.8840777 
H    -3.0849037    0.3092382    3.0481586 
H    -0.7519967    0.3944229    4.3430977 
H     2.5066185   -0.6318224    0.0021659 
H    -1.1949023    1.4147441   -3.2040797 
H    -4.8493401    1.8183502   -1.3797270 
H    -0.9163320    5.3474506    3.7069351 
H     1.7020399   -5.2872083   -1.6199403 
H     1.0243376   -1.7777453   -6.3337463 
H    -5.5397087    0.4203934    2.6601510 
H    -0.9022999    1.8922332    6.3136745 
H     4.1423709   -2.4431077    0.5503340 
H    -1.4205340    1.7315038   -5.6649873 
H    -6.4295833    1.1664879    0.4448245 
H    -0.9812028    4.3739700    6.0103507 
H     3.7477935   -4.7702351   -0.2780303 
H    -0.3222647    0.1240807   -7.2395493 
H     0.6159523   -5.6293799    0.9518215 
H    -1.0724236   -6.1333157    0.5793391 
H    -0.6183724   -5.7105105    2.2711662 
H    -4.4826299   -3.2845650    3.3069258 
H    -4.8678033   -3.9871194    1.6932346 
H    -5.3884661   -2.3038113    2.0978878 
