103
Energy =
C     2.0323462    3.0365321    0.3146123 
C     2.1915843    2.7084824   -1.0521388 
C     1.1424847    2.9546766   -1.9857154 
H     3.0802071    2.1528776   -1.3802781 
Pd    0.4712492    1.5184386   -0.3941601 
P    -1.1491967    0.1916044   -1.4507648 
P     0.4031706    0.2293061    1.5912048 
H     1.2672800    3.7907983    0.5562216 
H     0.4694043    3.7972281   -1.7644557 
C     4.9729509    2.5619309    3.4154471 
C     3.9773643    3.5449826    3.5110958 
C     3.0189994    3.6741112    2.4998185 
C     3.0447425    2.8338270    1.3642082 
C     4.0595886    1.8532306    1.2774828 
C     5.0081097    1.7151356    2.2948455 
H     5.7191836    2.4540910    4.2093954 
H     3.9405711    4.2091294    4.3803703 
H     2.2380186    4.4366707    2.5851735 
H     4.1043537    1.1850461    0.4135272 
H     5.7799806    0.9428511    2.2135685 
C     1.4331187    1.8977352   -6.1461545 
C     1.8664955    0.9928532   -5.1625435 
C     1.7825131    1.3334999   -3.8093204 
C     1.2514082    2.5805464   -3.4101465 
C     0.8182496    3.4792632   -4.4081169 
C     0.9169769    3.1442080   -5.7642098 
H     1.4952878    1.6288466   -7.2054862 
H     2.2630296    0.0147398   -5.4547640 
H     2.0970415    0.6145439   -3.0432820 
H     0.4026166    4.4499890   -4.1147914 
H     0.5801777    3.8552667   -6.5256916 
O    -3.1509909   -3.2956766    0.4019783 
O    -0.3467821   -4.1121538    1.3160461 
C    -1.5601837   -1.7242887    1.0964603 
C    -0.7026377   -2.2183423   -0.0247241 
C    -1.1459710   -0.6985477    1.9779113 
C    -0.4621733   -1.4979298   -1.2148694 
C    -2.8095472   -2.3570013    1.3214228 
C    -0.0605563   -3.4771551    0.1514820 
C    -1.9521540   -0.3352018    3.0756392 
C     0.4644683   -1.9814214   -2.1677730 
C     0.6748478    1.2670232    3.0820543 
C     1.6909786   -1.0779878    1.5831495 
C    -1.5406977    0.3509011   -3.2402057 
C    -2.8498629    0.2368617   -0.7465870 
C    -3.6165845   -1.9831573    2.4108666 
C     0.8257104   -3.9739561   -0.8193195 
C    -3.1737808   -0.9836809    3.2845735 
C     1.0927790   -3.2124148   -1.9647633 
C    -0.1036132    2.4401298    3.1940557 
C     1.7369778   -2.0447398    2.6097410 
C    -1.7923877    1.6512587   -3.7192891 
C    -3.8447490   -0.6238615   -1.2546636 
C     1.5923962    0.9478511    4.0986797 
C     2.6176244   -1.1407124    0.5255087 
C    -1.7460851   -0.7527803   -4.0945715 
C    -3.1833970    1.1874638    0.2349354 
C     0.0003595    3.2539900    4.3286438 
C     2.7306757   -3.0320497    2.5935707 
C    -2.2238452    1.8493150   -5.0361546 
C    -5.1534745   -0.5407167   -0.7661314 
C     1.7034315    1.7748404    5.2264779 
C     3.6012184   -2.1375367    0.5066361 
C    -2.1705849   -0.5477276   -5.4144821 
C    -4.4951978    1.2654201    0.7222595 
C     0.9018690    2.9177557    5.3512321 
C     3.6651664   -3.0775529    1.5460512 
C    -2.4059257    0.7510189   -5.8888218 
C    -5.4802100    0.4010213    0.2235429 
C    -4.3785045   -4.0054014    0.5599712 
C     0.2106507   -5.4027238    1.5579381 
H    -1.6283022    0.4461646    3.7669110 
H     0.6833762   -1.3982744   -3.0666269 
H    -4.5828612   -2.4628978    2.5809855 
H     1.3271983   -4.9336079   -0.6780980 
H    -3.7972849   -0.7023598    4.1394338 
H     1.8021814   -3.5903924   -2.7082654 
H    -0.7977739    2.7112805    2.3889784 
H     0.9855182   -2.0351283    3.4059780 
H    -1.6519887    2.5100636   -3.0543349 
H    -3.5948959   -1.3600598   -2.0246802 
H     2.2346014    0.0676561    4.0078889 
H     2.5386869   -0.4217004   -0.2978226 
H    -1.5849569   -1.7727818   -3.7330564 
H    -2.4073983    1.8571714    0.6236044 
H    -0.6173776    4.1542578    4.4120684 
H     2.7708017   -3.7738407    3.3982114 
H    -2.4077197    2.8651965   -5.3993999 
H    -5.9246783   -1.2081122   -1.1651934 
H     2.4281212    1.5241214    6.0077718 
H     4.3109916   -2.1869262   -0.3254385 
H    -2.3236771   -1.4097071   -6.0722581 
H    -4.7468119    2.0012326    1.4927749 
H     0.9887771    3.5555992    6.2368999 
H     4.4371838   -3.8542091    1.5352799 
H    -2.7355971    0.9067851   -6.9211906 
H    -6.5062208    0.4652349    0.6006676 
H    -4.4280159   -4.7085406   -0.2838181 
H    -5.2445854   -3.3183069    0.5194238 
H    -4.3957981   -4.5685076    1.5119263 
H     1.3154425   -5.3603828    1.5920358 
H    -0.1108621   -6.1272633    0.7865680 
H    -0.1746389   -5.7143397    2.5393517 
