103
Energy =
C     0.6596750    3.6128031   -0.3001557 
C     1.7970404    3.0702422   -0.9386437 
C     1.6855188    2.2985878   -2.1323629 
H     2.7605843    3.1081742   -0.4141228 
Pd    0.4770241    1.3414295   -0.5145998 
P     0.0592809   -0.6771473   -1.6327778 
P    -0.5715555    0.6651534    1.4719193 
H    -0.2693088    3.6855246   -0.8886430 
H     0.8695660    2.5513110   -2.8234060 
C     0.6945004    6.0063779    3.2667938 
C     1.8750270    5.8465111    2.5252391 
C     1.8779129    5.0615531    1.3671717 
C     0.6935919    4.4300985    0.9224344 
C    -0.4923460    4.6160857    1.6695053 
C    -0.4897192    5.3881131    2.8343673 
H     0.6947678    6.6171346    4.1753711 
H     2.7967246    6.3420813    2.8473190 
H     2.8009509    4.9655821    0.7862172 
H    -1.4157144    4.1251512    1.3412792 
H    -1.4125605    5.5058059    3.4109346 
C     4.9495881    0.1671476   -3.9616490 
C     4.9864399    0.4492386   -2.5852493 
C     3.9347287    1.1430038   -1.9806596 
C     2.8192951    1.5731480   -2.7381383 
C     2.7977666    1.2840248   -4.1201900 
C     3.8524146    0.5894127   -4.7253713 
H     5.7731305   -0.3789747   -4.4330203 
H     5.8382921    0.1198006   -1.9810979 
H     3.9706266    1.3371138   -0.9026423 
H     1.9415297    1.6069432   -4.7219727 
H     3.8132739    0.3758445   -5.7985715 
O    -0.7746843   -4.4150492    0.5323798 
O    -3.1367374   -2.9679554    1.6974093 
C    -0.6485191   -2.1341197    1.0712033 
C    -1.7622560   -1.9548016    0.0877472 
C    -0.0760281   -1.0797706    1.8207835 
C    -1.5872941   -1.3901919   -1.1970388 
C    -0.1729593   -3.4570821    1.2840792 
C    -3.0479600   -2.4394037    0.4488862 
C     0.9584437   -1.3411158    2.7434682 
C    -2.6742715   -1.3031497   -2.0914260 
C    -2.4015410    0.6852267    1.5211538 
C    -0.0115307    1.6041730    2.9500327 
C     1.2538054   -2.0329823   -1.3507205 
C    -0.0208019   -0.4115108   -3.4515370 
C     0.8643486   -3.7108197    2.1982508 
C    -4.1320669   -2.3367572   -0.4400899 
C     1.4209032   -2.6487478    2.9202856 
C    -3.9336677   -1.7716899   -1.7049428 
C    -3.1046738    1.4103706    0.5394180 
C    -0.8545264    1.9157855    4.0344808 
C     2.4476417   -1.7644044   -0.6553897 
C     0.6734893   -1.2132338   -4.3759498 
C    -3.1128231    0.0023298    2.5304621 
C     1.3346925    2.0273122    2.9798145 
C     0.9871582   -3.3383716   -1.8148912 
C    -0.7860296    0.6791291   -3.9232063 
C    -4.5048748    1.4600614    0.5686908 
C    -0.3491427    2.6147284    5.1393194 
C     3.3750385   -2.7897645   -0.4324481 
C     0.5822888   -0.9427982   -5.7503140 
C    -4.5113589    0.0685959    2.5633626 
C     1.8367093    2.7185531    4.0883154 
C     1.9253822   -4.3559388   -1.6008261 
C    -0.8794496    0.9416231   -5.2953613 
C    -5.2080565    0.7940915    1.5837373 
C     0.9949336    3.0121539    5.1715779 
C     3.1171939   -4.0837402   -0.9093582 
C    -0.1949398    0.1272902   -6.2134286 
C    -0.4132892   -5.7802358    0.7306271 
C    -4.3633402   -3.5668880    2.1105057 
H     1.3929645   -0.5281525    3.3304061 
H    -2.5379021   -0.8871823   -3.0919465 
H     1.2395660   -4.7252087    2.3492297 
H    -5.1236119   -2.6952299   -0.1554500 
H     2.2236642   -2.8477996    3.6377840 
H    -4.7749840   -1.7033306   -2.4022940 
H    -2.5482243    1.9180951   -0.2573248 
H    -1.9088023    1.6264981    4.0176380 
H     2.6337095   -0.7540553   -0.2776492 
H     1.3019842   -2.0377911   -4.0286017 
H    -2.5742720   -0.6014846    3.2675966 
H     1.9861171    1.8197474    2.1219149 
H     0.0425421   -3.5584441   -2.3226978 
H    -1.3119882    1.3243737   -3.2084010 
H    -5.0474148    2.0155691   -0.2030016 
H    -1.0132097    2.8537699    5.9764389 
H     4.2981537   -2.5788636    0.1167850 
H     1.1322442   -1.5699493   -6.4594981 
H    -5.0605577   -0.4538179    3.3537740 
H     2.8808654    3.0459602    4.0975672 
H     1.7230031   -5.3669019   -1.9699776 
H    -1.4823195    1.7844008   -5.6490910 
H    -6.3019718    0.8368354    1.6093466 
H     1.3844945    3.5624622    6.0341009 
H     3.8450027   -4.8842711   -0.7395900 
H    -0.2626192    0.3342942   -7.2863708 
H    -1.0443759   -6.3591374    0.0409790 
H    -0.6120495   -6.0985336    1.7711589 
H     0.6518991   -5.9519360    0.4866244 
H    -5.1832648   -2.8247313    2.1400262 
H    -4.1814972   -3.9514583    3.1244001 
H    -4.6443978   -4.4019047    1.4417824 
