103
Energy =
C     0.5815100    3.5216829   -0.3563765 
C     1.1277969    3.0843670   -1.6063174 
C     0.2872944    2.5046612   -2.5836026 
H     2.2160133    3.0419796   -1.7396993 
Pd    0.1927275    1.3598603   -0.6109691 
P     0.3295537   -0.8513633   -1.3453506 
P    -0.7271809    0.8606041    1.4794727 
H    -0.4411840    3.9229732   -0.3664460 
H    -0.7919658    2.7036516   -2.4853539 
C     2.8838154    4.6376401    3.1072097 
C     1.5544169    5.0599488    2.9634461 
C     0.8208047    4.7057320    1.8246510 
C     1.4005156    3.9178334    0.8050793 
C     2.7442376    3.4999788    0.9633622 
C     3.4763790    3.8581061    2.0989345 
H     3.4577919    4.9133181    3.9977864 
H     1.0827563    5.6683957    3.7421151 
H    -0.2185636    5.0353829    1.7214739 
H     3.2155455    2.8717113    0.1987270 
H     4.5141660    3.5242481    2.2038508 
C     1.3215982    0.9025500   -6.4311756 
C     2.3266856    1.4547107   -5.6205583 
C     2.0146483    1.9729410   -4.3605059 
C     0.6827160    1.9568127   -3.8869361 
C    -0.3192107    1.3973883   -4.7153782 
C    -0.0039557    0.8721196   -5.9722421 
H     1.5720716    0.4997299   -7.4179389 
H     3.3621996    1.4806550   -5.9738947 
H     2.8113537    2.4055045   -3.7483922 
H    -1.3560615    1.3763134   -4.3629598 
H    -0.7942595    0.4447535   -6.5978306 
O    -2.1242985   -3.9813806    0.4105542 
O    -0.8141574   -3.2189734    3.0768780 
C    -1.6098181   -1.7605761    0.9637413 
C    -0.1903627   -2.2295566    1.0431479 
C    -2.0216608   -0.4362687    1.2456465 
C     0.7775319   -1.9830493    0.0424707 
C    -2.5993727   -2.7332850    0.6575009 
C     0.1728986   -3.0224627    2.1643809 
C    -3.3902392   -0.0967019    1.2180083 
C     2.0789432   -2.5121024    0.1656683 
C    -1.5970446    2.3243005    2.1746154 
C     0.3724119    0.2452219    2.8019389 
C     1.7309654   -0.9921507   -2.5239545 
C    -1.1390258   -1.6068860   -2.1292307 
C    -3.9608859   -2.3845023    0.6111601 
C     1.4770686   -3.5316888    2.2924680 
C    -4.3436386   -1.0692932    0.8983078 
C     2.4170349   -3.2748730    1.2881288 
C    -1.3963332    2.7722271    3.4938095 
C     1.7664323    0.3510304    2.6377385 
C     1.6479673   -1.6642621   -3.7564930 
C    -1.1835402   -2.9860753   -2.4197390 
C    -2.4341225    3.0708444    1.3143045 
C    -0.1596943   -0.3166690    3.9814715 
C     2.9480060   -0.3760185   -2.1515769 
C    -2.2545922   -0.7945690   -2.4117218 
C    -2.0402043    3.9333679    3.9491491 
C     2.6259382   -0.1037004    3.6459666 
C     2.7781183   -1.7535452   -4.5828657 
C    -2.3278658   -3.5349652   -3.0131339 
C    -3.0816748    4.2232746    1.7753036 
C     0.7057228   -0.7577433    4.9903344 
C     4.0778456   -0.4864813   -2.9706968 
C    -3.4014385   -1.3512920   -2.9913543 
C    -2.8850852    4.6573950    3.0971572 
C     2.0965086   -0.6557425    4.8221511 
C     3.9955999   -1.1831551   -4.1864382 
C    -3.4358676   -2.7205892   -3.2977383 
C    -3.0485063   -5.0389168    0.1628473 
C    -0.5633796   -4.0643989    4.1979510 
H    -3.7145529    0.9179254    1.4603204 
H     2.8234463   -2.3409122   -0.6149547 
H    -4.7203548   -3.1286255    0.3615204 
H     1.7612001   -4.1275218    3.1624907 
H    -5.4051958   -0.8015807    0.8796301 
H     3.4286227   -3.6835142    1.3805488 
H    -0.7252636    2.2283781    4.1644149 
H     2.1691158    0.7851127    1.7167148 
H     0.7036620   -2.1135656   -4.0770841 
H    -0.3335847   -3.6276073   -2.1651747 
H    -2.5736036    2.7478608    0.2751856 
H    -1.2430449   -0.4232129    4.0985892 
H     3.0073788    0.1804452   -1.2074517 
H    -2.2253141    0.2686282   -2.1472834 
H    -1.8719910    4.2744459    4.9758687 
H     3.7097974   -0.0266318    3.5130193 
H     2.7024875   -2.2734051   -5.5433541 
H    -2.3581900   -4.6044400   -3.2469051 
H    -3.7340882    4.7880921    1.1013324 
H     0.2937342   -1.1852038    5.9106047 
H     5.0207601   -0.0216149   -2.6642404 
H    -4.2712220   -0.7191643   -3.1971414 
H    -3.3846496    5.5627642    3.4567590 
H     2.7689834   -1.0068158    5.6119918 
H     4.8762472   -1.2663151   -4.8316539 
H    -4.3307362   -3.1560201   -3.7548279 
H    -3.7297889   -5.1832494    1.0221967 
H    -2.4372351   -5.9418675    0.0214937 
H    -3.6393398   -4.8477985   -0.7525836 
H    -1.5029828   -4.0902096    4.7684336 
H     0.2432586   -3.6561507    4.8353693 
H    -0.2979575   -5.0882036    3.8741327 
