103
Energy =
C     1.7441058    3.3042286    0.1360686 
C     2.5316277    2.5077156   -0.7462068 
C     2.0787958    2.2168807   -2.0544269 
H     3.4382535    2.0216676   -0.3618774 
Pd    0.6394083    1.4396731   -0.4513797 
P     0.0339413   -0.5645724   -1.5585445 
P    -0.7635391    0.9932995    1.3748204 
H     1.0879967    4.0569888   -0.3273827 
H     1.3243472    2.8968884   -2.4799150 
C     2.9341228    4.1620460    4.1806236 
C     3.0698432    2.8590814    3.6727570 
C     2.6930482    2.5759406    2.3566659 
C     2.1602456    3.5861637    1.5247470 
C     2.0277440    4.8900058    2.0477982 
C     2.4200256    5.1770117    3.3611018 
H     3.2253959    4.3822753    5.2126184 
H     3.4628431    2.0606908    4.3110446 
H     2.7751350    1.5524403    1.9716636 
H     1.6146683    5.6842487    1.4156963 
H     2.3144002    6.1951773    3.7497547 
C     4.1853331   -0.0522081   -5.0380283 
C     3.2562365    0.9321317   -5.4048808 
C     2.5684814    1.6501782   -4.4203061 
C     2.8060668    1.4100161   -3.0483470 
C     3.7520368    0.4208889   -2.6938678 
C     4.4285347   -0.3058207   -3.6776901 
H     4.7186341   -0.6207243   -5.8069311 
H     3.0587311    1.1364183   -6.4619123 
H     1.8365510    2.4099382   -4.7131385 
H     3.9550010    0.2087375   -1.6409042 
H     5.1501609   -1.0744562   -3.3822913 
O    -0.8919362   -4.1550796    0.8338507 
O    -3.3499169   -2.5777692    1.7533578 
C    -0.8087993   -1.8349526    1.1798822 
C    -1.8735543   -1.7548446    0.1329238 
C    -0.2528942   -0.7132205    1.8323348 
C    -1.6153831   -1.3062153   -1.1833613 
C    -0.3028830   -3.1278231    1.4966250 
C    -3.1767622   -2.2108871    0.4577492 
C     0.8409465   -0.8700406    2.7150569 
C    -2.6322436   -1.3408077   -2.1588906 
C    -2.5760800    0.9956401    1.0505225 
C    -0.7149773    1.9852074    2.9222705 
C     1.2087959   -1.9208856   -1.1737968 
C     0.0110633   -0.3492379   -3.3824471 
C     0.7545669   -3.2820572    2.4090358 
C    -4.1918670   -2.2323635   -0.5153729 
C     1.3286099   -2.1479450    2.9984855 
C    -3.9057610   -1.8081853   -1.8179421 
C    -3.0727999    1.4511543   -0.1840440 
C    -0.7723416    3.3851547    2.7783137 
C     2.3488642   -1.6571387   -0.3916095 
C     0.6442983   -1.2265656   -4.2805928 
C    -3.4740071    0.6233514    2.0722486 
C    -0.7775669    1.4195838    4.2131434 
C     0.9595553   -3.2347296   -1.6236104 
C    -0.7009168    0.7622744   -3.8849609 
C    -4.4551415    1.5151630   -0.4061311 
C    -0.8709099    4.2091822    3.9055630 
C     3.2495175   -2.6854233   -0.0869952 
C     0.5365437   -1.0116357   -5.6628120 
C    -4.8533825    0.6908718    1.8460669 
C    -0.8688020    2.2501143    5.3384423 
C     1.8702665   -4.2572433   -1.3278413 
C    -0.8176823    0.9640116   -5.2656443 
C    -5.3458768    1.1340011    0.6075145 
C    -0.9111609    3.6438856    5.1882174 
C     3.0166352   -3.9839757   -0.5639106 
C    -0.2027306    0.0712438   -6.1581096 
C    -0.4853528   -5.4915584    1.1226598 
C    -4.6208356   -3.0761112    2.1679447 
H     1.2999007    0.0055179    3.1827361 
H    -2.4324393   -1.0090128   -3.1802793 
H     1.1498996   -4.2727635    2.6428572 
H    -5.1983918   -2.5748327   -0.2655860 
H     2.1691120   -2.2684824    3.6898364 
H    -4.6935660   -1.8370484   -2.5777365 
H    -2.3707168    1.7426981   -0.9738387 
H    -0.7432511    3.8284301    1.7773101 
H     2.5045788   -0.6465910    0.0032133 
H     1.2372004   -2.0665383   -3.9085525 
H    -3.0953861    0.2767481    3.0386214 
H    -0.7646748    0.3335379    4.3450159 
H     0.0466555   -3.4580673   -2.1853640 
H    -1.1700840    1.4680734   -3.1882426 
H    -4.8356855    1.8617291   -1.3722820 
H    -0.9060354    5.2960154    3.7813025 
H     4.1275781   -2.4749675    0.5321112 
H     1.0417757   -1.6938654   -6.3539760 
H    -5.5481908    0.4045593    2.6427613 
H    -0.9135117    1.8028361    6.3369765 
H     1.6800462   -5.2735699   -1.6886260 
H    -1.3833175    1.8212869   -5.6453135 
H    -6.4259636    1.1889820    0.4358744 
H    -0.9803315    4.2891542    6.0700323 
H     3.7231126   -4.7877227   -0.3310939 
H    -0.2882798    0.2296793   -7.2380989 
H    -0.6591151   -5.7405016    2.1861991 
H     0.5809812   -5.6471808    0.8730592 
H    -1.1085899   -6.1365044    0.4867143 
H    -5.4106218   -2.3124990    2.0376515 
H    -4.5143613   -3.3151059    3.2358321 
H    -4.8936014   -3.9910880    1.6094192 
