103
Energy =
C     0.8965418    3.4698129   -0.1488001 
C     1.9505404    2.9372646   -0.9595838 
C     1.6532550    2.3333159   -2.2023102 
H     2.9621192    2.8436974   -0.5454199 
Pd    0.5437055    1.3130913   -0.4881930 
P     0.8857141   -0.9413490   -0.9862253 
P    -1.3003811    0.9735504    0.9081172 
H     0.0341370    3.9099702   -0.6681595 
H     0.6760999    2.5793011   -2.6483406 
C     1.2956853    4.6903457    3.9614231 
C     0.2306978    5.1540896    3.1759237 
C     0.1212781    4.7654469    1.8352341 
C     1.0735526    3.9002915    1.2512650 
C     2.1448078    3.4419029    2.0560586 
C     2.2548631    3.8345853    3.3930352 
H     1.3814862    4.9931398    5.0100055 
H    -0.5218753    5.8220326    3.6077824 
H    -0.7156174    5.1283903    1.2290139 
H     2.8889174    2.7547433    1.6370354 
H     3.0897533    3.4683359    3.9999294 
C     4.3173638    0.4679728   -5.0065062 
C     2.9355655    0.5106922   -5.2463997 
C     2.0851602    1.1207862   -4.3192389 
C     2.5946838    1.6939194   -3.1297457 
C     3.9881116    1.6352287   -2.8986223 
C     4.8377818    1.0323554   -3.8305460 
H     4.9883031   -0.0009252   -5.7336116 
H     2.5209377    0.0743144   -6.1608612 
H     1.0076490    1.1563529   -4.5125325 
H     4.4148266    2.0750506   -1.9926358 
H     5.9148975    1.0018556   -3.6389447 
O    -2.2956361   -3.8680489   -0.5423319 
O    -2.3991837   -2.9962892    2.3983688 
C    -1.9805704   -1.6389766    0.1166264 
C    -0.8088660   -2.1540011    0.8931633 
C    -2.3960942   -0.2861091    0.1175457 
C     0.5355436   -2.0037658    0.4821990 
C    -2.7545162   -2.5911642   -0.5999929 
C    -1.0836778   -2.8907321    2.0761568 
C    -3.5559824    0.1013191   -0.5849515 
C     1.5793300   -2.5715274    1.2418063 
C    -2.3062933    2.5073134    1.0432390 
C    -1.0172459    0.3980940    2.6183751 
C     2.6721337   -1.1998704   -1.3248613 
C    -0.0594276   -1.6902264   -2.3604828 
C    -3.8990105   -2.1959986   -1.3151513 
C    -0.0386114   -3.4380210    2.8409915 
C    -4.2920138   -0.8528942   -1.2954762 
C     1.2839548   -3.2765046    2.4130934 
C    -2.7399851    3.0251306    2.2781739 
C     0.2855394    0.4457030    3.1491406 
C     3.5883207   -0.6043754   -0.4273673 
C    -0.8493926   -0.8581107   -3.1776235 
C    -2.5755157    3.2327610   -0.1397390 
C    -2.0861445   -0.0728936    3.4094838 
C     3.1595762   -1.9405066   -2.4164879 
C    -0.0381184   -3.0817123   -2.5883579 
C    -3.4495281    4.2353370    2.3245959 
C     0.5209045    0.0240705    4.4639359 
C     4.9652564   -0.8010114   -0.5859305 
C    -1.6026229   -1.4081152   -4.2223054 
C    -3.2916664    4.4346897   -0.0898694 
C    -1.8449982   -0.4814842    4.7271427 
C     4.5415376   -2.1168582   -2.5817727 
C    -0.7817503   -3.6247499   -3.6443137 
C    -3.7309201    4.9391273    1.1458789 
C    -0.5433520   -0.4372354    5.2532022 
C     5.4437530   -1.5652582   -1.6616859 
C    -1.5640649   -2.7909607   -4.4595669 
C    -3.0434924   -4.9032653   -1.1770961 
C    -2.7752799   -3.7826684    3.5272814 
H    -3.8946010    1.1397575   -0.5659809 
H     2.6175244   -2.4750360    0.9167479 
H    -4.4860851   -2.9250865   -1.8777935 
H    -0.2482727   -3.9900493    3.7597072 
H    -5.1929535   -0.5479117   -1.8379208 
H     2.0969616   -3.7148094    3.0011319 
H    -2.5118564    2.4966827    3.2079587 
H     1.1085633    0.8088881    2.5250251 
H     3.2135505    0.0044397    0.4053376 
H    -0.8900590    0.2171162   -2.9690654 
H    -2.2157622    2.8539805   -1.1043757 
H    -3.0948358   -0.1350192    2.9885409 
H     2.4657631   -2.3749858   -3.1419139 
H     0.5430854   -3.7360401   -1.9304213 
H    -3.7765904    4.6305487    3.2918711 
H     1.5360171    0.0562584    4.8723843 
H     5.6657288   -0.3508678    0.1253016 
H    -2.2259184   -0.7598048   -4.8465497 
H    -3.5006408    4.9830919   -1.0142230 
H    -2.6753645   -0.8380312    5.3458337 
H     4.9121287   -2.6902274   -3.4375910 
H    -0.7571285   -4.7043462   -3.8265732 
H    -4.2840593    5.8830166    1.1871999 
H    -0.3595196   -0.7622217    6.2827208 
H     6.5204513   -1.7161807   -1.7910338 
H    -2.1496000   -3.2214056   -5.2788417 
H    -2.4952068   -5.8344498   -0.9740596 
H    -3.1021316   -4.7420007   -2.2698945 
H    -4.0638115   -4.9745259   -0.7559947 
H    -2.3567613   -3.3665872    4.4628606 
H    -2.4477373   -4.8325548    3.4091658 
H    -3.8733293   -3.7414105    3.5672629 
