105
Energy =
C     2.4695769    2.3774617   -0.6416712 
C     2.4205715    2.5582175    0.7718805 
C     2.8275568    1.5367974    1.6592268 
H     1.9073598    3.4374305    1.1823779 
Pd    1.1733295    0.7988146    0.2609702 
P    -0.1533178   -0.5951655    1.6058940 
P     0.2668838    0.0126223   -1.7549614 
H     3.2645257    1.7321252   -1.0405630 
H     3.4539325    0.7271809    1.2507446 
C     0.8242758    5.1238481   -3.5205232 
C     0.3171439    5.1030552   -2.2098803 
C     0.8458823    4.2197070   -1.2649372 
C     1.8965504    3.3353479   -1.6071615 
C     2.3979424    3.3705077   -2.9270859 
C     1.8675609    4.2562183   -3.8732434 
H     0.4062752    5.8140950   -4.2603962 
H    -0.4990495    5.7762569   -1.9277084 
H     0.4255700    4.2036097   -0.2529175 
H     3.2103862    2.6926727   -3.2100775 
H     2.2713103    4.2655289   -4.8909616 
C     2.8462316    1.7865137    5.9468161 
C     2.9161717    0.5398244    5.3044125 
C     2.9134417    0.4698123    3.9087440 
C     2.8223144    1.6439265    3.1258843 
C     2.7551125    2.8927135    3.7857593 
C     2.7729872    2.9615276    5.1829343 
H     2.8563504    1.8418147    7.0401487 
H     2.9700614   -0.3798131    5.8954278 
H     2.9580334   -0.5051180    3.4097230 
H     2.7226322    3.8192198    3.2033139 
H     2.7370294    3.9369827    5.6788939 
O    -5.9508794    1.5163370   -0.0617058 
O     0.7567610   -6.3705261   -1.5691979 
C    -2.2118691   -1.2654963   -0.2587196 
C    -1.2676671   -2.2203269   -0.9232527 
C    -1.8713333   -0.5329994    0.9139479 
C    -0.1337453   -1.7905683   -1.6682248 
C    -0.6282954   -4.5285371   -1.3066760 
C    -4.3781861   -0.1724059   -0.2996971 
C     0.5077785   -4.1027583   -2.0083330 
C    -4.0277939    0.5729883    0.8353433 
C    -1.5323143   -3.5996617   -0.7951953 
C    -3.4938305   -1.1096028   -0.8291332 
C     0.7423664   -2.7462393   -2.2303988 
C    -2.8009870    0.3770903    1.4675737 
C    -0.5910711   -6.0355065   -1.2258932 
C    -5.7491276    0.2761464   -0.7466664 
C     1.3077877   -5.3303564   -2.3843289 
C    -5.1669441    1.5219786    1.1358776 
C    -1.2758460    0.8144971   -2.3251930 
C     1.4927602    0.1502721   -3.1195375 
C    -0.3290268   -0.0005445    3.3363576 
C     0.2990072   -2.3680254    1.7118106 
C    -0.5906264   -3.3308228    2.2356569 
C     2.8194058   -0.2585564   -2.8531010 
C    -1.7822664    1.9122662   -1.6058834 
C    -0.3627185    1.3959054    3.5431316 
C    -1.9972561    0.3035079   -3.4256184 
C     1.5569783   -2.7767583    1.2294419 
C    -0.4154771   -0.8616337    4.4478310 
C     1.1809530    0.6847725   -4.3832947 
C    -0.5231411    1.9192178    4.8310786 
C    -2.9985411    2.4989476   -1.9822227 
C     3.8055774   -0.1643418   -3.8426944 
C    -0.2127819   -4.6783993    2.2885967 
C     2.1737648    0.7829788   -5.3706465 
C    -0.5662118   -0.3324195    5.7370351 
C    -3.2010948    0.9069152   -3.8101319 
C     1.9224644   -4.1303022    1.2665531 
C     1.0409079   -5.0809328    1.7993874 
C    -0.6277076    1.0546144    5.9310067 
C     3.4822271    0.3558080   -5.1072753 
C    -3.7022695    2.0036037   -3.0889083 
H    -2.4167260   -3.9184073   -0.2341827 
H    -3.7487302   -1.6897400   -1.7216087 
H    -2.5511675    0.9373382    2.3735190 
H     1.6082742   -2.4261334   -2.8164819 
H    -5.8198692    0.4598808   -1.8328546 
H    -6.5252619   -0.4731307   -0.4707260 
H    -0.8028827   -6.4271880   -0.2152555 
H    -1.3187949   -6.4935589   -1.9333392 
H     1.2040619   -5.5641179   -3.4679144 
H     2.3851631   -5.2431685   -2.1563061 
H    -4.8419709    2.5586184    1.3351937 
H    -5.7591173    1.1736472    2.0121096 
H    -1.2317944    2.2832579   -0.7353888 
H    -1.5876469   -3.0283002    2.5747004 
H    -0.2488884    2.0729339    2.6873134 
H     3.0798048   -0.6484331   -1.8609153 
H    -1.6281852   -0.5760930   -3.9646957 
H     2.2369808   -2.0309975    0.8003914 
H    -0.3521665   -1.9451305    4.3166837 
H     0.1717811    1.0473425   -4.5962295 
H    -0.9064842   -5.4208298    2.6970961 
H    -0.5436883    3.0033256    4.9785755 
H     4.8282717   -0.4897253   -3.6258794 
H    -3.4042111    3.3360299   -1.4058875 
H     2.8930784   -4.4449486    0.8702261 
H    -0.6304445   -1.0106405    6.5941846 
H     1.9202530    1.2064313   -6.3479059 
H    -3.7572821    0.5129188   -4.6672360 
H     1.3234645   -6.1381207    1.8136149 
H    -0.7414497    1.4636393    6.9400591 
H     4.2531739    0.4353848   -5.8804836 
H    -4.6519086    2.4640535   -3.3801405 
