105
Energy =
C     3.0346706    1.7868854    0.1475353 
C     2.1701094    2.7618850    0.7434275 
C     1.5584136    2.4947986    1.9895838 
H     1.8448963    3.6321412    0.1597731 
Pd    1.0312208    0.9047622    0.4481176 
P     1.3181943   -1.1490882   -0.6338106 
P    -1.2721855    0.6928074    0.7682203 
H     3.6446315    1.1740153    0.8253936 
H     2.0172409    1.7028506    2.6034353 
C     4.4344115    1.8516640   -3.9233069 
C     5.1084304    1.1058846   -2.9456119 
C     4.6558247    1.1074657   -1.6205760 
C     3.5162494    1.8536587   -1.2452327 
C     2.8469107    2.6032729   -2.2428937 
C     3.3024248    2.6034926   -3.5642645 
H     4.7867470    1.8497180   -4.9598194 
H     5.9917827    0.5172677   -3.2141909 
H     5.1845106    0.5188687   -0.8630549 
H     1.9487576    3.1765346   -1.9856655 
H     2.7705733    3.1878622   -4.3225601 
C    -1.2315114    4.8891624    4.2069836 
C    -0.8549011    3.6164924    4.6626658 
C     0.0553192    2.8530173    3.9254478 
C     0.6014764    3.3401608    2.7139666 
C     0.2064979    4.6207512    2.2642788 
C    -0.6969716    5.3862617    3.0072129 
H    -1.9371141    5.4943633    4.7853920 
H    -1.2657537    3.2217243    5.5974507 
H     0.3501593    1.8616341    4.2862193 
H     0.6187806    5.0300321    1.3374327 
H    -0.9865046    6.3790083    2.6489013 
O    -0.7493731   -5.1151133    3.9381504 
O    -3.5606467   -0.5963149   -5.0721717 
C    -1.1033696   -2.4057031    0.1555138 
C    -1.8246763   -1.5613645   -0.8523666 
C     0.3148575   -2.3995603    0.2930131 
C    -2.0383740   -0.1646389   -0.6811086 
C    -2.9190442   -1.4534262   -3.0143815 
C    -1.2607255   -4.0277625    1.9534336 
C    -3.1065069   -0.0735446   -2.8548777 
C     0.1337480   -4.0078345    2.0985849 
C    -2.3131231   -2.2044886   -2.0089621 
C    -1.8787912   -3.2602285    0.9679099 
C    -2.7074318    0.5717282   -1.6847875 
C     0.9293252   -3.2295840    1.2580590 
C    -3.4405474   -1.8412752   -4.3771704 
C    -1.8256311   -4.9476515    3.0098177 
C    -3.7444097    0.4566996   -4.1200263 
C     0.4920174   -4.9166578    3.2540289 
C    -1.8834622   -0.2091227    2.2375177 
C    -2.0202173    2.3700048    0.7641411 
C     3.0670649   -1.7075285   -0.5197198 
C     0.8354891   -1.2988043   -2.3905162 
C     0.4885099   -0.1361274   -3.1027007 
C    -2.9805531    2.7992151    1.6978157 
C    -0.9483336   -0.6952319    3.1714832 
C     3.7908699   -2.1739953   -1.6334815 
C    -3.2524869   -0.5118413    2.3953210 
C     0.7665133   -2.5582175   -3.0241223 
C     3.7305253   -1.5671719    0.7210059 
C    -1.5783480    3.2673273   -0.2358550 
C     5.1454647   -2.5168784   -1.5005120 
C    -1.3746003   -1.4752758    4.2555079 
C    -3.5212078    4.0903863    1.6033975 
C     0.0667413   -0.2302612   -4.4365385 
C    -2.1363101    4.5472416   -0.3375645 
C     5.0789985   -1.9200996    0.8516570 
C    -3.6765862   -1.2728200    3.4923821 
C     0.3622083   -2.6432714   -4.3622516 
C     0.0079063   -1.4806547   -5.0674937 
C     5.7903356   -2.3972772   -0.2621421 
C    -3.1163507    4.9579347    0.5795421 
C    -2.7391257   -1.7553854    4.4208332 
H    -2.1535475   -3.2814273   -2.1227371 
H    -2.9662359   -3.2648904    0.8429702 
H     2.0183792   -3.2516101    1.3554241 
H    -2.8904992    1.6420383   -1.5560376 
H    -2.6900911   -4.5225461    3.5487212 
H    -2.1377476   -5.9206061    2.5672643 
H    -2.7522511   -2.4935838   -4.9425065 
H    -4.4223765   -2.3605134   -4.2972481 
H    -4.8238550    0.6806856   -3.9636806 
H    -3.2605143    1.3691472   -4.5116911 
H     1.2143091   -4.4745671    3.9629913 
H     0.9149974   -5.8800133    2.8893902 
H     0.1178693   -0.4910022    3.0201020 
H     0.5353342    0.8361506   -2.6010124 
H     3.3085063   -2.2525604   -2.6115326 
H    -3.3020938    2.1345119    2.5046718 
H    -3.9799066   -0.1702040    1.6506009 
H     1.0111310   -3.4683353   -2.4650057 
H     3.1878535   -1.1679348    1.5868435 
H    -0.7983246    2.9518027   -0.9408543 
H    -0.2225629    0.6727410   -4.9830218 
H     5.6986106   -2.8725310   -2.3758571 
H    -4.2639033    4.4173769    2.3381878 
H    -0.6437689   -1.8810404    4.9617498 
H     0.3111229   -3.6205127   -4.8537965 
H     5.5786972   -1.8132471    1.8199812 
H    -1.7990116    5.2280455   -1.1261073 
H    -4.7402349   -1.5015486    3.6170593 
H    -0.3297299   -1.5499065   -6.1064312 
H     6.8472821   -2.6650516   -0.1638976 
H    -3.5502923    5.9604100    0.5062552 
H    -3.0707804   -2.3640571    5.2683887 
