105
Energy =
C     2.6575711    2.3379681   -0.6866864 
C     1.6695938    3.1356235   -0.0303863 
C     1.4408489    3.0347004    1.3597967 
H     0.9791280    3.7341519   -0.6382989 
Pd    1.1562621    1.0226441    0.3051513 
P    -0.8254677    0.3276412    1.3876716 
P     1.3625959   -0.9643870   -0.9022065 
H     3.5596968    2.0715865   -0.1169278 
H     2.2579025    2.6264533    1.9753322 
C     3.0786405    2.1931266   -4.9732194 
C     1.8349198    2.5113227   -4.4024115 
C     1.6904233    2.5628141   -3.0122442 
C     2.7893827    2.3070831   -2.1570771 
C     4.0344340    2.0008906   -2.7480054 
C     4.1770352    1.9399868   -4.1393992 
H     3.1893068    2.1461275   -6.0613164 
H     0.9720655    2.7141424   -5.0461980 
H     0.7053468    2.7816521   -2.5852624 
H     4.8992747    1.8094873   -2.1051646 
H     5.1505257    1.6914293   -4.5734402 
C    -1.4935171    5.2009004    3.6336784 
C    -0.3527912    4.6693118    4.2526334 
C     0.5851640    3.9544960    3.4997008 
C     0.4097863    3.7690863    2.1097086 
C    -0.7470024    4.3083785    1.5000312 
C    -1.6885282    5.0131796    2.2549763 
H    -2.2309390    5.7564741    4.2221608 
H    -0.1953608    4.8057148    5.3271098 
H     1.4708170    3.5361723    3.9892663 
H    -0.9214086    4.1681539    0.4297664 
H    -2.5799312    5.4190981    1.7657412 
O    -0.8863232   -5.8147704    3.1436213 
O    -3.5460007    0.8821006   -4.4895584 
C    -1.3843855   -2.2068935    0.2313350 
C    -1.4302888   -1.5287695   -1.1046839 
C    -1.1958110   -1.4839979    1.4452847 
C    -0.2746375   -0.9958099   -1.7400630 
C    -2.8065207   -0.6335256   -2.8942346 
C    -1.4282655   -4.2788201    1.4898653 
C    -1.6733803   -0.0447718   -3.4770145 
C    -1.2434780   -3.5663327    2.6819746 
C    -2.6918549   -1.3814015   -1.7243491 
C    -1.5404255   -3.6066399    0.2733399 
C    -0.4082874   -0.2342492   -2.9271412 
C    -1.1603839   -2.1742029    2.6766197 
C    -4.0109637   -0.2263689   -3.7099563 
C    -1.4179467   -5.7523472    1.8164287 
C    -2.1308818    0.7662763   -4.6683343 
C    -1.1159387   -4.5676417    3.8077969 
C     2.6810921   -1.1591192   -2.1694439 
C     1.6130926   -2.5315718    0.0316834 
C    -2.2845518    1.0215278    0.5132928 
C    -0.9018359    0.8622157    3.1420356 
C     0.2309298    0.5906499    3.9411493 
C     1.8837551   -2.4996535    1.4103214 
C     3.9986207   -0.9965151   -1.6910695 
C    -3.5917560    0.6347541    0.8783530 
C     2.4762159   -1.5852985   -3.4953745 
C    -2.0097820    1.5124833    3.7146512 
C    -2.0968016    1.8686180   -0.5949054 
C     1.6111857   -3.7665765   -0.6501804 
C    -4.6918535    1.1251113    0.1628763 
C     5.0927393   -1.2568404   -2.5232991 
C     2.1168786   -3.6923147    2.1111344 
C     0.2316468    0.9126927    5.3037361 
C     1.8409764   -4.9540417    0.0541258 
C    -3.1982228    2.3423916   -1.3209637 
C     3.5769704   -1.8221155   -4.3328777 
C    -1.9967355    1.8495125    5.0763530 
C    -0.8881635    1.5373572    5.8753580 
C    -4.4966453    1.9803347   -0.9343339 
C     2.0858910   -4.9206014    1.4375951 
C     4.8833569   -1.6619187   -3.8505900 
H    -3.5738914   -1.8037578   -1.2326180 
H    -1.6809428   -4.1525080   -0.6653091 
H    -1.0253047   -1.6253223    3.6129839 
H     0.4690120    0.2370161   -3.3796172 
H    -2.4423362   -6.1853674    1.7666088 
H    -0.7633034   -6.3417329    1.1495617 
H    -4.3568436   -1.0617184   -4.3593702 
H    -4.8650345    0.1110687   -3.0979707 
H    -1.6984486    1.7824774   -4.7054330 
H    -1.8821443    0.2535481   -5.6248119 
H    -2.0398190   -4.6005417    4.4281381 
H    -0.2618186   -4.3682112    4.4796881 
H     4.1637311   -0.6745791   -0.6555973 
H     1.1148587    0.1235437    3.4897962 
H    -3.7461816   -0.0654282    1.7066667 
H     1.8947463   -1.5376283    1.9354092 
H     1.4650890   -1.7516256   -3.8777395 
H    -2.8760075    1.7742422    3.1010891 
H    -1.0764688    2.1189111   -0.9078985 
H     1.4253568   -3.7974758   -1.7293877 
H     1.1096438    0.6854939    5.9172781 
H    -5.7049725    0.8287579    0.4543012 
H     2.3136196   -3.6611890    3.1877101 
H     6.1104112   -1.1348109   -2.1382291 
H    -2.8591971    2.3649255    5.5109701 
H    -3.0461513    2.9735285   -2.2016795 
H     1.8295150   -5.9110927   -0.4779122 
H     3.4083461   -2.1472341   -5.3647343 
H    -0.8882159    1.7956792    6.9393116 
H    -5.3571318    2.3512135   -1.5008016 
H     2.2448786   -5.8511059    1.9909122 
H     5.7380007   -1.8574031   -4.5063539 
