105
Energy =
C     3.1048759    1.8456041   -0.2768875 
C     2.7241245    2.0069883    1.0736753 
C     2.8368106    0.9372522    2.0151735 
H     2.2017548    2.9254517    1.3705560 
Pd    1.4976202    0.3359249    0.3378392 
P     0.1128616    0.4909008   -1.5702219 
P     0.2155962   -1.3574419    1.3061004 
H     3.8159436    1.0358343   -0.5046580 
H     3.6594103    0.2204599    1.8768687 
C     2.8260532    4.7956670   -3.3903316 
C     3.7327843    3.7300919   -3.4878875 
C     3.7999811    2.7709071   -2.4714440 
C     2.9730939    2.8654493   -1.3292074 
C     2.0619919    3.9442652   -1.2459449 
C     1.9878568    4.8956677   -2.2671160 
H     2.7684917    5.5443655   -4.1871394 
H     4.3858323    3.6409859   -4.3616384 
H     4.5051724    1.9374619   -2.5556599 
H     1.3964256    4.0375399   -0.3834985 
H     1.2722632    5.7204271   -2.1870450 
C     1.2424865    1.1541664    6.0129680 
C     0.6753349    1.9328487    4.9902800 
C     1.1880462    1.8703037    3.6905273 
C     2.2886545    1.0345515    3.3826769 
C     2.8542957    0.2690389    4.4254252 
C     2.3348549    0.3239162    5.7242960 
H     0.8359236    1.1979960    7.0284200 
H    -0.1756773    2.5875615    5.2076001 
H     0.7123457    2.4608291    2.8996744 
H     3.7126287   -0.3754129    4.2113657 
H     2.7848059   -0.2864713    6.5135140 
O    -2.0351792   -5.1129224   -3.7638218 
O    -4.2622557    2.9727751    2.5522742 
C    -1.9980442   -1.3330711   -1.0323857 
C    -2.2933387   -0.5449515    0.2079671 
C    -0.9907995   -0.9412320   -1.9619314 
C    -1.4263565   -0.5290996    1.3354708 
C    -3.7101897    1.1006227    1.2953966 
C    -2.4527852   -3.2987124   -2.3772011 
C    -2.8124298    1.1683103    2.3722578 
C    -1.4618871   -2.9121273   -3.2891667 
C    -3.4659723    0.2437534    0.2242007 
C    -2.7525303   -2.4979980   -1.2756025 
C    -1.6868611    0.3497839    2.4154588 
C    -0.7516267   -1.7249811   -3.1118580 
C    -4.8019542    2.1158745    1.5387217 
C    -2.9899571   -4.6418450   -2.8075362 
C    -3.3015576    2.2405217    3.3196153 
C    -1.3417520   -3.9980301   -4.3343867 
C     0.0871033   -2.9687181    0.4236336 
C     0.5985889   -1.9739317    2.9957646 
C     1.0639751    0.7676615   -3.1156762 
C    -1.0707118    1.8811802   -1.3669399 
C    -2.0999111    2.0922273   -2.3091879 
C     1.9018361   -2.4879696    3.1641357 
C     0.9120552   -3.2382404   -0.6817728 
C     2.1604393   -0.0914073   -3.3509654 
C    -0.7835027   -3.9693284    0.9042867 
C    -1.0160238    2.6810117   -0.2101783 
C     0.7595855    1.7700088   -4.0542645 
C    -0.3321919   -2.0959598    4.0448555 
C     2.9040511    0.0145522   -4.5325400 
C     0.8459168   -4.4835187   -1.3244346 
C     2.2680498   -3.1147202    4.3602217 
C    -3.0328790    3.1177573   -2.1081094 
C     0.0475223   -2.7048444    5.2507052 
C     1.5190870    1.8834245   -5.2282931 
C    -0.8488150   -5.2086168    0.2571286 
C    -1.9621820    3.6938744   -0.0019210 
C    -2.9634586    3.9202526   -0.9572584 
C     2.5784482    1.0000842   -5.4778547 
C     1.3427421   -3.2165333    5.4104349 
C    -0.0408111   -5.4657002   -0.8636849 
H    -4.1319529    0.2173721   -0.6441095 
H    -3.5208930   -2.7919519   -0.5531139 
H     0.0140827   -1.4262187   -3.8334313 
H    -0.9852546    0.4157052    3.2521505 
H    -3.0469973   -5.3729688   -1.9811499 
H    -4.0043574   -4.5476115   -3.2564849 
H    -5.0395902    2.7296337    0.6529402 
H    -5.7391862    1.6228517    1.8818343 
H    -3.7621522    1.7947542    4.2299057 
H    -2.5096637    2.9382357    3.6467745 
H    -0.2985858   -4.3018844   -4.5348122 
H    -1.7993459   -3.6846483   -5.2996465 
H     1.5949758   -2.4625014   -1.0463926 
H    -2.1837050    1.4412488   -3.1864033 
H     2.4298032   -0.8461157   -2.6019956 
H     2.6275835   -2.4044369    2.3459594 
H    -1.4118939   -3.7758206    1.7805879 
H    -0.2500789    2.4733142    0.5460797 
H    -0.0546486    2.4751855   -3.8668289 
H    -1.3580902   -1.7358872    3.9250566 
H    -3.8251164    3.2833086   -2.8457774 
H     3.7439316   -0.6649658   -4.7108798 
H     3.2799204   -3.5165818    4.4761671 
H     1.4823651   -4.6818881   -2.1928725 
H    -1.9363426    4.2906403    0.9148275 
H     1.2814483    2.6732020   -5.9481386 
H    -0.6811042   -2.7902312    6.0635660 
H    -1.5329049   -5.9789283    0.6283858 
H    -3.7022710    4.7119824   -0.7953092 
H     3.1621266    1.0894622   -6.3998284 
H     1.6297965   -3.6991771    6.3502724 
H    -0.1079789   -6.4274259   -1.3811722 
