105
Energy =
C     2.4729449    2.3745132   -0.6435511 
C     2.4246419    2.5550543    0.7700448 
C     2.8303156    1.5326539    1.6569487 
H     1.9125977    3.4347404    1.1810378 
Pd    1.1749633    0.7971686    0.2602342 
P    -0.1546006   -0.5928839    1.6062081 
P     0.2676195    0.0102952   -1.7550084 
H     3.2670064    1.7282703   -1.0427158 
H     3.4555271    0.7223305    1.2480153 
C     0.8255056    5.1195455   -3.5223621 
C     0.3193040    5.0992761   -2.2113528 
C     0.8490007    4.2165919   -1.2663210 
C     1.8994743    3.3321466   -1.6089398 
C     2.3997294    3.3665527   -2.9293261 
C     1.8684820    4.2517081   -3.8755160 
H     0.4072406    5.8097642   -4.2621167 
H    -0.4971305    5.7721261   -1.9290277 
H     0.4293519    4.2007815   -0.2540209 
H     3.2118629    2.6884931   -3.2126705 
H     2.2710963    4.2602244   -4.8936940 
C     2.8493574    1.7818109    5.9445972 
C     2.9130416    0.5347963    5.3021384 
C     2.9104598    0.4648721    3.9064700 
C     2.8256562    1.6395061    3.1236998 
C     2.7647457    2.8885828    3.7835589 
C     2.7826246    2.9572403    5.1807807 
H     2.8593688    1.8369881    7.0379398 
H     2.9619118   -0.3851565    5.8931005 
H     2.9497615   -0.5102775    3.4074157 
H     2.7371036    3.8152338    3.2010741 
H     2.7519752    3.9328598    5.6767796 
O    -5.9481296    1.5242911   -0.0670707 
O     0.7509364   -6.3732078   -1.5593600 
C    -2.2131455   -1.2631942   -0.2585588 
C    -1.2697017   -2.2199653   -0.9213300 
C    -1.8721551   -0.5296144    0.9132789 
C    -0.1346360   -1.7924346   -1.6658420 
C    -0.6323787   -4.5293861   -1.3009413 
C    -4.3779343   -0.1672205   -0.3019004 
C     0.5049397   -4.1057765   -2.0018738 
C    -4.0269984    0.5792838    0.8322529 
C    -1.5359595   -3.5988483   -0.7917157 
C    -3.4946346   -1.1063292   -0.8297429 
C     0.7410360   -2.7498014   -2.2257822 
C    -2.8007495    0.3825159    1.4653165 
C    -0.5969460   -6.0362822   -1.2181630 
C    -5.7478094    0.2829818   -0.7504332 
C     1.3042588   -5.3346840   -2.3750131 
C    -5.1649225    1.5302699    1.1309875 
C    -1.2740572    0.8130777   -2.3266665 
C     1.4939180    0.1454366   -3.1195131 
C    -0.3308895    0.0051408    3.3354376 
C     0.2955080   -2.3661210    1.7153015 
C    -0.5960828   -3.3271593    2.2390790 
C     2.8202814   -0.2639290   -2.8525260 
C    -1.9954278    0.3020252   -3.4270995 
C    -0.4231336   -0.8537225    4.4481497 
C    -1.7794082    1.9123468   -1.6088908 
C     1.5536510   -2.7770657    1.2352887 
C    -0.3595191    1.4020436    3.5398068 
C     1.1827949    0.6795423   -4.3836324 
C    -0.5742824   -0.3217510    5.7361723 
C    -3.1978275    0.9071167   -3.8134394 
C     3.8069140   -0.1701874   -3.8417147 
C    -0.2200883   -4.6751754    2.2940520 
C     2.1760449    0.7772211   -5.3705885 
C    -0.5199489    1.9281962    4.8266055 
C    -2.9942974    2.5007457   -1.9870387 
C     1.9173548   -4.1310391    1.2745170 
C     1.0337412   -5.0799354    1.8070129 
C    -0.6303067    1.0658617    5.9277468 
C     3.4843394    0.3499938   -5.1064779 
C    -3.6977121    2.0055821   -3.0940013 
H    -2.4212896   -3.9159271   -0.2311976 
H    -3.7498963   -1.6871117   -1.7216970 
H    -2.5504464    0.9436895    2.3705679 
H     1.6077488   -2.4314936   -2.8116604 
H    -5.8172471    0.4655714   -1.8369181 
H    -6.5254509   -0.4646748   -0.4743784 
H    -0.8104470   -6.4263210   -0.2072284 
H    -1.3243131   -6.4945472   -1.9258292 
H     1.2021518   -5.5698326   -3.4584458 
H     2.3813606   -5.2481275   -2.1453639 
H    -4.8383494    2.5666449    1.3291780 
H    -5.7581864    1.1840781    2.0073163 
H    -1.6273610   -0.5787530   -3.9649500 
H    -1.5932374   -3.0230626    2.5763160 
H    -0.3640805   -1.9377028    4.3189984 
H     3.0802573   -0.6535596   -1.8601344 
H    -1.2290921    2.2834545   -0.7383449 
H     2.2352665   -2.0327185    0.8063441 
H    -0.2421261    2.0771930    2.6829858 
H     0.1738013    1.0422532   -4.5971467 
H    -0.9153480   -5.4162547    2.7023661 
H    -0.6431215   -0.9982874    6.5942970 
H     4.8294027   -0.4958749   -3.6243758 
H    -3.7539007    0.5131522   -4.6706348 
H     2.8882293   -4.4472977    0.8801094 
H    -0.5359568    3.0126376    4.9722281 
H     1.9230373    1.2004734   -6.3480692 
H    -3.3990392    3.3391039   -1.4119006 
H     1.3147475   -6.1375188    1.8226263 
H    -0.7443063    1.4770279    6.9359036 
H     4.2557497    0.4296119   -5.8792228 
H    -4.6461326    2.4675228   -3.3868495 
