105
Energy =
C     2.8228523    1.9971632   -0.4630729 
C     2.9337715    1.8701964    0.9528073 
C     3.2071135    0.6238875    1.5599872 
H     2.6417357    2.7139495    1.5914704 
Pd    1.3244622    0.5093734    0.2656524 
P     0.1084670    0.3549437   -1.7339996 
P    -0.1240176   -0.8979053    1.4623846 
H     3.4369992    1.3255129   -1.0787810 
H     3.6238742   -0.1724078    0.9221102 
C     1.5131329    5.5495186   -2.5121109 
C     2.3374075    4.6148710   -3.1543536 
C     2.7602890    3.4650012   -2.4762598 
C     2.3693306    3.2274210   -1.1401306 
C     1.5398109    4.1813094   -0.5038838 
C     1.1174512    5.3279696   -1.1817923 
H     1.1790094    6.4471579   -3.0423894 
H     2.6521572    4.7781382   -4.1902704 
H     3.4003185    2.7362472   -2.9850399 
H     1.2065113    4.0146684    0.5267955 
H     0.4708736    6.0519255   -0.6749907 
C     3.6431794   -0.0823240    5.7737974 
C     3.7390354    1.2259970    5.2752761 
C     3.5883398    1.4703089    3.9060666 
C     3.3503089    0.4051840    3.0071089 
C     3.2741034   -0.9096013    3.5219045 
C     3.4099724   -1.1497917    4.8917678 
H     3.7571995   -0.2712815    6.8460767 
H     3.9396919    2.0593787    5.9564767 
H     3.6898944    2.4931628    3.5290550 
H     3.0813104   -1.7432066    2.8367397 
H     3.3306748   -2.1716947    5.2755810 
O    -0.6504608   -5.8987997   -2.8920400 
O    -5.5206372    2.4962161    1.0150974 
C    -1.7551148   -1.7061565   -1.1777019 
C    -2.4307783   -0.7731277   -0.2197305 
C    -0.6277750   -1.3264871   -1.9590269 
C    -1.8508116   -0.3894792    1.0228295 
C    -4.3360257    0.6582734    0.2397164 
C    -1.6185084   -3.9479515   -2.0938392 
C    -3.7470951    1.0609113    1.4470120 
C    -0.4859487   -3.5820831   -2.8338671 
C    -3.7028529   -0.2758546   -0.5772328 
C    -2.2741409   -3.0120812   -1.2963100 
C    -2.5314234    0.5209605    1.8635765 
C    -0.0091342   -2.2719377   -2.8076136 
C    -5.6267003    1.4242617    0.0728814 
C    -1.8714044   -5.4187206   -2.3214604 
C    -4.6475258    2.0998844    2.0778564 
C     0.0222301   -4.8166425   -3.5451310 
C    -0.0169512   -2.7006374    1.1495355 
C    -0.0287149   -0.6810613    3.2852660 
C     1.2144503    0.5756381   -3.1871888 
C    -1.2930750    1.5135794   -1.9362438 
C    -2.1896308    1.3840691   -3.0187386 
C    -0.1894603   -1.7383483    4.2021647 
C     1.0908133   -3.2005809    0.4387144 
C     2.4513711   -0.1085518   -3.1802515 
C    -1.0271403   -3.5895589    1.5763656 
C    -1.5166894    2.4980521   -0.9566071 
C     0.9071584    1.4253181   -4.2658837 
C     0.2310240    0.6187470    3.7720875 
C     3.3469253    0.0294207   -4.2477035 
C     1.1887843   -4.5705322    0.1546010 
C    -0.1249617   -1.4897309    5.5801919 
C    -3.2835262    2.2518140   -3.1249447 
C     0.2851468    0.8636339    5.1488477 
C     1.8103615    1.5655803   -5.3310340 
C    -0.9146636   -4.9594302    1.3072240 
C    -2.6255428    3.3499886   -1.0565080 
C    -3.5021897    3.2340209   -2.1443882 
C     3.0253087    0.8672914   -5.3287726 
C     0.1041176   -0.1911116    6.0560829 
C     0.1895126   -5.4510888    0.5914905 
H    -4.1446734   -0.5901948   -1.5280737 
H    -3.1517726   -3.2881671   -0.7029870 
H     0.8487486   -1.9860815   -3.4223459 
H    -2.0976925    0.8135223    2.8244034 
H    -2.0679501   -5.9804887   -1.3910945 
H    -2.7332447   -5.5764432   -3.0086409 
H    -5.7557804    1.8550682   -0.9351904 
H    -6.5069919    0.7773509    0.2885789 
H    -5.2162293    1.6717169    2.9340885 
H    -4.1098071    2.9942278    2.4397263 
H     1.1112756   -4.9699135   -3.4406961 
H    -0.2173574   -4.7849740   -4.6319031 
H     1.8624294   -2.5054182    0.0865577 
H    -2.0427990    0.5932907   -3.7628419 
H     2.7140262   -0.7493495   -2.3290073 
H    -0.3517640   -2.7599490    3.8484066 
H    -1.9131724   -3.2043928    2.0932335 
H    -0.8338195    2.5719004   -0.1041350 
H    -0.0241893    1.9978923   -4.2703779 
H     0.4031762    1.4381368    3.0630980 
H    -3.9754470    2.1538744   -3.9680978 
H     4.2991670   -0.5108166   -4.2336715 
H    -0.2499486   -2.3189117    6.2842091 
H     2.0415808   -4.9500329   -0.4171782 
H    -2.8135054    4.0976292   -0.2798818 
H     1.5627027    2.2346970   -6.1614547 
H     0.4912575    1.8746218    5.5132990 
H    -1.7008860   -5.6445718    1.6414663 
H    -4.3668707    3.9013827   -2.2198970 
H     3.7269591    0.9811584   -6.1614132 
H     0.1573997   -0.0022766    7.1331023 
H     0.2615976   -6.5172679    0.3554121 
