105
Energy =
C     3.0952520    1.6855484    0.0602277 
C     2.4274346    2.4057538    1.1035726 
C     2.0709793    1.7442217    2.3009570 
H     2.0388118    3.4131184    0.9087391 
Pd    1.1501950    0.7268469    0.4841397 
P     1.0950572   -0.8655213   -1.2280405 
P    -1.0462458    0.3915365    1.2018617 
H     3.7960805    0.8956083    0.3634587 
H     2.6011100    0.8032431    2.5198744 
C     3.6336061    3.0744240   -3.9790013 
C     4.4515764    2.0637796   -3.4538387 
C     4.2803964    1.6330197   -2.1325971 
C     3.2843809    2.2028537   -1.3082546 
C     2.4669522    3.2233583   -1.8517269 
C     2.6418505    3.6546809   -3.1695889 
H     3.7659507    3.4107950   -5.0123498 
H     5.2277679    1.6054078   -4.0754680 
H     4.9195620    0.8395000   -1.7306833 
H     1.6728030    3.6703698   -1.2425763 
H     1.9988423    4.4440594   -3.5731000 
C    -0.0657291    3.2613736    5.7017077 
C     0.2348461    4.1239147    4.6349806 
C     0.9222332    3.6499341    3.5138495 
C     1.3318128    2.2989418    3.4415084 
C     1.0223812    1.4417272    4.5244648 
C     0.3273528    1.9156710    5.6412669 
H    -0.6024347    3.6391928    6.5779786 
H    -0.0687431    5.1745226    4.6782683 
H     1.1551136    4.3402389    2.6978844 
H     1.3308527    0.3914543    4.4822732 
H     0.0981193    1.2366087    6.4688175 
O    -0.2188433   -6.1279590    2.1634040 
O    -4.5492173    1.0293060   -4.1207533 
C    -1.1811836   -2.3408364   -0.3874572 
C    -2.0442220   -1.2251072   -0.8968348 
C     0.2333388   -2.3611981   -0.5574431 
C    -2.1400311    0.0381462   -0.2480230 
C    -3.5495977   -0.4384910   -2.6285750 
C    -1.0607087   -4.4608532    0.7868162 
C    -3.6231124    0.8129478   -2.0015451 
C     0.3329997   -4.4707732    0.6338149 
C    -2.7941308   -1.4661682   -2.0670782 
C    -1.8220312   -3.4227834    0.2528849 
C    -2.9583638    1.0502075   -0.7988152 
C     0.9835727   -3.4512534   -0.0607934 
C    -4.3597032   -0.3717589   -3.9009165 
C    -1.4501241   -5.6816718    1.5862913 
C    -4.4755720    1.7151359   -2.8664551 
C     0.8668837   -5.7011194    1.3342417 
C    -1.3924299   -0.9456403    2.4010088 
C    -1.6854110    1.9691426    1.8910629 
C     2.7962746   -1.4080718   -1.6690324 
C     0.2562887   -0.4472545   -2.7976058 
C    -0.0111957   -1.4356825   -3.7690693 
C    -2.4062781    2.0600631    3.0953232 
C    -2.7147100   -1.3019456    2.7405238 
C     3.2501017   -1.4821045   -2.9996369 
C    -0.3143691   -1.6955702    2.9092855 
C    -0.1636762    0.8781812   -3.0126448 
C     3.7056678   -1.6665898   -0.6176835 
C    -1.4125817    3.1472653    1.1576039 
C     4.5814734   -1.8336129   -3.2717939 
C    -2.9467848   -2.3837610    3.5996959 
C    -2.8847260    3.3041867    3.5329971 
C    -0.6849279   -1.0899080   -4.9471129 
C    -1.9104499    4.3826708    1.5884184 
C     5.0300966   -2.0265339   -0.8937991 
C    -0.5523798   -2.7912402    3.7507446 
C    -0.8543804    1.2137226   -4.1857079 
C    -1.1107267    0.2331151   -5.1541073 
C     5.4710172   -2.1114403   -2.2251947 
C    -2.6557935    4.4609972    2.7752553 
C    -1.8674575   -3.1287924    4.1032357 
H    -2.7222662   -2.4463653   -2.5489066 
H    -2.9106120   -3.4005994    0.3652714 
H     2.0667299   -3.4890785   -0.2066469 
H    -3.0522098    2.0181292   -0.2991649 
H    -2.1617313   -5.4662815    2.4021404 
H    -1.9000140   -6.4617126    0.9311985 
H    -3.8392252   -0.7970304   -4.7767465 
H    -5.3320379   -0.9019348   -3.7849108 
H    -5.4860414    1.8617889   -2.4223797 
H    -4.0319079    2.7118094   -3.0395967 
H     1.7416817   -5.5040335    1.9789906 
H     1.1524035   -6.4877547    0.5996797 
H    -3.5589832   -0.7470430    2.3166088 
H     0.2914962   -2.4741914   -3.5940323 
H     2.5749521   -1.2470627   -3.8269665 
H    -2.5879650    1.1664151    3.6990343 
H     0.7078499   -1.4383313    2.6087700 
H     0.0394437    1.6373611   -2.2500155 
H     3.3746588   -1.5741097    0.4242489 
H    -0.8129227    3.0879323    0.2400985 
H    -0.8902315   -1.8570172   -5.7012327 
H     4.9231874   -1.8819761   -4.3108345 
H    -3.4397091    3.3658364    4.4746017 
H    -3.9733608   -2.6553285    3.8672403 
H    -1.1987624    2.2406956   -4.3418831 
H     5.7220099   -2.2311200   -0.0702600 
H    -1.7083269    5.2859558    1.0033426 
H     0.2837675   -3.3942946    4.1177937 
H    -1.6574012    0.4980780   -6.0646800 
H     6.5087617   -2.3840441   -2.4425729 
H    -3.0422143    5.4264955    3.1174677 
H    -2.0517822   -3.9843384    4.7612072 
