105
Energy =
C     2.5807891    2.2622332   -0.6148976 
C     2.3691758    2.6112915    0.7512851 
C     2.6444200    1.6988788    1.7945017 
H     1.8318624    3.5379294    0.9910512 
Pd    1.1500918    0.8149416    0.3045378 
P    -0.3562697   -0.3989077    1.6343544 
P     0.4716954   -0.1986774   -1.6992668 
H     3.4015050    1.5658900   -0.8360015 
H     3.2952472    0.8405307    1.5613244 
C     1.3557628    4.6581996   -3.9755131 
C     0.6946010    4.7984269   -2.7432135 
C     1.0858985    4.0302978   -1.6433791 
C     2.1495167    3.1025984   -1.7487105 
C     2.8060556    2.9750911   -2.9927019 
C     2.4134450    3.7456196   -4.0940700 
H     1.0459489    5.2591892   -4.8365469 
H    -0.1343176    5.5070775   -2.6440821 
H     0.5469236    4.1386605   -0.6953478 
H     3.6309749    2.2614538   -3.0928212 
H     2.9362100    3.6292671   -5.0490660 
C     2.1629574    2.4532906    5.9949914 
C     2.2787943    1.1388311    5.5147785 
C     2.4388690    0.9045304    4.1465185 
C     2.4686763    1.9787862    3.2273919 
C     2.3533774    3.2972990    3.7248536 
C     2.2078370    3.5304497    5.0965701 
H     2.0454850    2.6372014    7.0677876 
H     2.2410421    0.2949393    6.2107139 
H     2.5183987   -0.1230304    3.7730771 
H     2.4115926    4.1487739    3.0390491 
H     2.1364721    4.5580095    5.4678903 
O    -5.8581251    1.5747970   -0.9479778 
O     0.7708029   -6.5178530   -0.7013166 
C    -2.1983145   -1.2595176   -0.3739763 
C    -1.2081582   -2.2982235   -0.8045583 
C    -1.9789223   -0.3993397    0.7393849 
C     0.0180413   -1.9740298   -1.4500791 
C    -0.5882155   -4.6429416   -0.8333567 
C    -4.3144848   -0.1506648   -0.8003875 
C     0.6353236   -4.3174423   -1.4343846 
C    -4.0804024    0.7178076    0.2756018 
C    -1.5227963   -3.6490849   -0.5496009 
C    -3.3994265   -1.1549102   -1.1085546 
C     0.9303495   -3.0001789   -1.7840936 
C    -2.9426478    0.5812575    1.0692066 
C    -0.5999207   -6.1294838   -0.5706921 
C    -5.6107750    0.2603731   -1.4569842 
C     1.4435545   -5.5900437   -1.5596226 
C    -5.2216182    1.7095615    0.3270095 
C    -0.9708623    0.5429346   -2.5458661 
C     1.8562320   -0.2393351   -2.9095170 
C    -0.7201956    0.3939564    3.2523845 
C     0.0416666   -2.1508174    1.9963377 
C    -0.9235788   -3.0401680    2.5160859 
C     1.7129804    0.1421487   -4.2563270 
C    -1.5653623   -0.0913495   -3.6580636 
C    -0.7451762    1.8051977    3.2939600 
C    -1.5350033    1.7240831   -2.0303452 
C     1.3397133   -2.6211689    1.7204610 
C    -0.9578855   -0.3322347    4.4357928 
C     3.1302730   -0.6266858   -2.4353146 
C    -1.0449190    2.4751462    4.4854882 
C    -2.6988464    0.4716943   -4.2576644 
C     2.8201476    0.1106541   -5.1185029 
C    -0.5824173   -4.3749367    2.7686261 
C     4.2310175   -0.6622476   -3.3000380 
C    -1.2481283    0.3436049    5.6290708 
C    -2.6825921    2.2715151   -2.6209574 
C     1.6705764   -3.9633758    1.9571403 
C     0.7122270   -4.8399635    2.4842577 
C    -1.2997171    1.7442998    5.6556476 
C     4.0761387   -0.2946626   -4.6473016 
C    -3.2577762    1.6521941   -3.7396089 
H    -2.4762954   -3.8879665   -0.0677048 
H    -3.5626285   -1.8322461   -1.9527887 
H    -2.7868025    1.2399764    1.9286281 
H     1.8689184   -2.7626279   -2.2924360 
H    -5.5485367    0.3165662   -2.5576424 
H    -6.4338351   -0.4412252   -1.1918711 
H    -0.9436089   -6.3940700    0.4449566 
H    -1.2470905   -6.6618605   -1.3039158 
H     1.4669716   -5.9523561   -2.6120859 
H     2.4868299   -5.4872237   -1.2113208 
H    -4.8954845    2.7581983    0.4449922 
H    -5.9223089    1.4724800    1.1593397 
H    -1.1544663   -1.0331118   -4.0385547 
H    -1.9474359   -2.6936549    2.6954525 
H    -0.5151950    2.3777080    2.3867866 
H     0.7463089    0.4865296   -4.6333149 
H    -1.0860396    2.1931968   -1.1488874 
H     2.0814872   -1.9347724    1.2943868 
H    -0.9050254   -1.4241743    4.4368647 
H     3.2588278   -0.8966007   -1.3794334 
H    -1.3350559   -5.0603490    3.1724188 
H    -1.0571868    3.5691614    4.5055882 
H     2.6974419    0.4158196   -6.1627494 
H    -3.1557968   -0.0183180   -5.1238315 
H     2.6752231   -4.3279871    1.7205748 
H    -1.4298862   -0.2305786    6.5434620 
H     5.2114941   -0.9697832   -2.9220379 
H    -3.1361288    3.1750430   -2.2023237 
H     0.9690387   -5.8902501    2.6532672 
H    -1.5229951    2.2681718    6.5905945 
H     4.9368055   -0.3160216   -5.3235726 
H    -4.1533589    2.0826883   -4.1992640 
