105
Energy =
C     3.2555768    1.5742724    0.1960119 
C     2.5338862    2.2552729    1.2219759 
C     2.0342247    1.5499617    2.3416755 
H     2.2576467    3.3063741    1.0716449 
Pd    1.1868045    0.7529692    0.3634745 
P     0.9148415   -0.5909646   -1.5412587 
P    -0.9632506    0.2271599    1.1999497 
H     3.8208555    0.6775327    0.4907624 
H     2.5112519    0.5833345    2.5637478 
C     4.7353800    3.5453010   -3.3315957 
C     3.4954071    3.9254150   -2.7874759 
C     3.0074210    3.2926813   -1.6401671 
C     3.7456873    2.2594443   -1.0156022 
C     4.9827440    1.8798443   -1.5795649 
C     5.4772704    2.5237240   -2.7214848 
H     5.1167078    4.0432296   -4.2289646 
H     2.9065490    4.7146559   -3.2663050 
H     2.0251484    3.5731381   -1.2423768 
H     5.5608926    1.0737076   -1.1152690 
H     6.4419035    2.2196199   -3.1406488 
C    -0.1407166    3.1429680    5.6870585 
C     0.1006664    3.9567383    4.5673531 
C     0.7881335    3.4511196    3.4612887 
C     1.2629153    2.1183832    3.4556660 
C     1.0073858    1.3100428    4.5882685 
C     0.3110470    1.8153256    5.6915976 
H    -0.6795945    3.5446376    6.5513153 
H    -0.2537012    4.9920933    4.5563102 
H     0.9605165    4.1012068    2.5985972 
H     1.3670134    0.2763080    4.6033145 
H     0.1288699    1.1735230    6.5596137 
O     1.1891507   -5.6555643    2.3258607 
O    -5.4662302    0.1880343   -3.3459878 
C    -0.9107895   -2.4750003   -0.3591671 
C    -2.0484741   -1.5685451   -0.7094195 
C     0.4362936   -2.1514309   -0.6734099 
C    -2.2302777   -0.3293439   -0.0304892 
C    -3.9650764   -1.0738659   -2.1038119 
C    -0.1465111   -4.4062698    0.8962934 
C    -4.1416002    0.1461352   -1.4376403 
C     1.1871224   -4.0328501    0.6640047 
C    -2.9499108   -1.9506791   -1.7209300 
C    -1.1931435   -3.6400927    0.3890587 
C    -3.3067472    0.5134405   -0.3817849 
C     1.4900356   -2.9273283   -0.1271917 
C    -4.9788364   -1.1513811   -3.2191852 
C    -0.1383349   -5.6248215    1.7889646 
C    -5.2794699    0.8822573   -2.1081908 
C     2.0767785   -4.9971355    1.4165754 
C    -0.9959908   -1.0963281    2.4693932 
C    -1.7082836    1.7382971    1.9317336 
C     2.2778356   -1.0496440   -2.6926035 
C    -0.3699575   -0.1052139   -2.7660054 
C    -0.9907799    1.1520337   -2.6643937 
C    -2.3811576    1.7589891    3.1665550 
C    -2.2245997   -1.6095885    2.9383461 
C     2.9195032    0.0156393   -3.3589544 
C     0.2094296   -1.6697569    2.9141588 
C    -0.6738455   -0.9460871   -3.8574142 
C     2.5931819   -2.3779192   -3.0502132 
C    -1.6036961    2.9302301    1.1799626 
C     3.8779275   -0.2447597   -4.3465910 
C    -2.2363968   -2.6578645    3.8671304 
C    -2.9707177    2.9474034    3.6222833 
C    -1.9336040    1.5530756   -3.6224777 
C    -2.2093375    4.1092586    1.6308351 
C     3.5579180   -2.6300812   -4.0361194 
C     0.1944629   -2.7297347    3.8319013 
C    -1.6181155   -0.5428863   -4.8085572 
C    -2.2564369    0.7035404   -4.6889750 
C     4.2054978   -1.5665860   -4.6819768 
C    -2.9010564    4.1167709    2.8521872 
C    -1.0280839   -3.2168192    4.3158898 
H    -2.7968825   -2.9035782   -2.2378787 
H    -2.2361570   -3.8816832    0.6171229 
H     2.5325414   -2.6424592   -0.3069214 
H    -3.4588143    1.4627269    0.1393126 
H    -0.8528900   -5.5621895    2.6276625 
H    -0.3624006   -6.5480344    1.2087009 
H    -4.5402512   -1.4568337   -4.1861121 
H    -5.7991551   -1.8622169   -2.9715973 
H    -6.2013810    0.8578699   -1.4844734 
H    -5.0482230    1.9390521   -2.3326631 
H     2.8740707   -4.5044617    2.0012603 
H     2.5591161   -5.7224049    0.7229976 
H    -3.1688573   -1.2020346    2.5608455 
H    -0.7380202    1.8098275   -1.8252878 
H     2.6560534    1.0508809   -3.1225375 
H    -2.4359447    0.8566543    3.7816531 
H     1.1593909   -1.3073845    2.5079779 
H    -0.1729785   -1.9148120   -3.9596968 
H     2.0771227   -3.2194594   -2.5791040 
H    -1.0463061    2.9277351    0.2351219 
H    -2.4220085    2.5285920   -3.5303208 
H     4.3673801    0.5934603   -4.8519075 
H    -3.4845764    2.9564385    4.5888553 
H    -3.1916033   -3.0483151    4.2335719 
H    -1.8568460   -1.2028832   -5.6491512 
H     3.7946555   -3.6645113   -4.3064241 
H    -2.1339087    5.0239995    1.0337550 
H     1.1324534   -3.1945535    4.1496465 
H    -3.0082996    1.0092929   -5.4227999 
H     4.9565734   -1.7685072   -5.4526742 
H    -3.3712449    5.0382886    3.2104963 
H    -1.0397677   -4.0450432    5.0320133 
