105
Energy =
C     2.9871641    1.8586222    0.2318670 
C     2.1086935    2.7572724    0.9201842 
C     1.5313268    2.3740404    2.1524250 
H     1.7482287    3.6617566    0.4143990 
Pd    1.0146617    0.8977854    0.4971795 
P     1.3338984   -1.0497537   -0.7575567 
P    -1.2727721    0.5898904    0.8497153 
H     3.6266728    1.2112001    0.8475944 
H     2.0247140    1.5491295    2.6913758 
C     4.3099226    2.2950758   -3.8417013 
C     5.0259812    1.4977194   -2.9374056 
C     4.5973117    1.3777937   -1.6098379 
C     3.4403891    2.0516225   -1.1586108 
C     2.7281509    2.8540819   -2.0827129 
C     3.1596795    2.9756063   -3.4065131 
H     4.6436915    2.3882195   -4.8801692 
H     5.9234696    0.9633036   -3.2658461 
H     5.1587170    0.7490886   -0.9103546 
H     1.8155274    3.3727465   -1.7667758 
H     2.5948698    3.5994282   -4.1073665 
C    -1.2688865    4.5057001    4.6117072 
C    -0.8454511    3.2136163    4.9585037 
C     0.0668378    2.5364727    4.1435326 
C     0.5686075    3.1314714    2.9613543 
C     0.1264852    4.4303985    2.6214694 
C    -0.7790759    5.1091813    3.4420239 
H    -1.9763356    5.0433143    5.2513763 
H    -1.2212067    2.7362102    5.8692227 
H     0.3984636    1.5296113    4.4196996 
H     0.5035168    4.9220152    1.7198924 
H    -1.1055213    6.1172913    3.1682863 
O    -0.4973337   -5.4435309    3.5151460 
O    -3.6820366   -0.2958434   -5.0176186 
C    -1.0285182   -2.4423319   -0.0183018 
C    -1.8009500   -1.5419366   -0.9357016 
C     0.3920063   -2.4032413    0.0856893 
C    -2.0520767   -0.1712891   -0.6456881 
C    -2.9569690   -1.2951668   -3.0538574 
C    -1.0918241   -4.2116388    1.6412962 
C    -3.1826347    0.0602078   -2.7771472 
C     0.3047926   -4.1606921    1.7542986 
C    -2.3009943   -2.1048773   -2.1286010 
C    -1.7573421   -3.3846430    0.7382730 
C    -2.7712535    0.6213845   -1.5685423 
C     1.0551540   -3.2911110    0.9631015 
C    -3.5036023   -1.5883686   -4.4303531 
C    -1.6019690   -5.2332707    2.6298322 
C    -3.8719601    0.6697375   -3.9779918 
C     0.7194288   -5.1506299    2.8207599 
C    -1.8168988   -0.4479872    2.2542863 
C    -2.0715432    2.2363951    1.0017676 
C     3.1003963   -1.5615467   -0.7322760 
C     0.8088305   -1.0694301   -2.5085083 
C     0.4059243    0.1357665   -3.1122490 
C    -3.0164079    2.5570093    1.9930627 
C    -0.8428699   -0.9799041    3.1210691 
C     3.7907140   -1.5101362    0.5006050 
C    -3.1716955   -0.8054306    2.4202857 
C     0.7617128   -2.2737480   -3.2430899 
C     3.8085647   -1.9076660   -1.8986994 
C    -1.6884793    3.2251150    0.0658358 
C     5.1507510   -1.8349848    0.5696604 
C    -1.2164361   -1.8598413    4.1464768 
C    -3.6006360    3.8322887    2.0175391 
C    -0.0500690    0.1380659   -4.4380859 
C    -2.2899707    4.4891124    0.0825690 
C     5.1746689   -2.2220053   -1.8267292 
C    -3.5432761   -1.6673615    3.4602218 
C     0.3232105   -2.2614457   -4.5730386 
C    -0.0870111   -1.0571653   -5.1696222 
C     5.8465121   -2.1933399   -0.5972663 
C    -3.2550439    4.7916825    1.0558436 
C    -2.5671520   -2.1953232    4.3216729 
H    -2.1119553   -3.1633230   -2.3338339 
H    -2.8470864   -3.4124869    0.6392083 
H     2.1465230   -3.2877080    1.0324381 
H    -2.9839654    1.6709258   -1.3479168 
H    -2.4640476   -4.8814343    3.2225935 
H    -1.8971027   -6.1753861    2.1148073 
H    -2.8108202   -2.1690975   -5.0641685 
H    -4.4659546   -2.1452363   -4.3690919 
H    -4.9530841    0.8441665   -3.7766851 
H    -3.4279443    1.6266866   -4.3054972 
H     1.4469621   -4.7465033    3.5468039 
H     1.1604350   -6.0668735    2.3669930 
H     0.2124427   -0.7307549    2.9607463 
H     0.4361582    1.0643718   -2.5325049 
H     3.2595635   -1.2030594    1.4101073 
H    -3.2919501    1.8197997    2.7524743 
H    -3.9288856   -0.4266097    1.7248605 
H     1.0503739   -3.2182782   -2.7684132 
H     3.3044466   -1.9145428   -2.8689108 
H    -0.9199301    2.9939765   -0.6832202 
H    -0.3832297    1.0728122   -4.8994916 
H     5.6712105   -1.7988111    1.5322564 
H    -4.3306576    4.0743430    2.7966048 
H    -0.4549810   -2.2996580    4.7978745 
H     0.2890784   -3.1959024   -5.1430139 
H     5.7152652   -2.4833902   -2.7422227 
H    -1.9981206    5.2415743   -0.6574916 
H    -4.5959923   -1.9388571    3.5916816 
H    -0.4512122   -1.0516492   -6.2018647 
H     6.9121013   -2.4391869   -0.5465150 
H    -3.7234307    5.7810674    1.0747933 
H    -2.8576544   -2.8817645    5.1237161 
