105
Energy =
C     3.2836284    1.4886338    0.3164018 
C     2.4400877    2.6085916    0.4898104 
C     1.5375531    2.6947328    1.5906204 
H     2.3648655    3.3410518   -0.3242578 
Pd    1.0867796    0.8550171    0.4095332 
P     0.9126115   -0.8871947   -1.1543812 
P    -0.9524461    0.3567017    1.4556422 
H     3.4474228    0.8347331    1.1882939 
H     1.8434043    2.2176602    2.5320717 
C     6.1248599    0.9454274   -2.8579707 
C     5.6265226    2.2283434   -2.5838051 
C     4.6928676    2.4166206   -1.5590996 
C     4.2489496    1.3230737   -0.7804386 
C     4.7737225    0.0393422   -1.0565676 
C     5.6947621   -0.1489640   -2.0904202 
H     6.8525105    0.7992243   -3.6627529 
H     5.9729560    3.0876706   -3.1672038 
H     4.3315522    3.4269414   -1.3413006 
H     4.4318172   -0.8181831   -0.4655130 
H     6.0775547   -1.1521957   -2.3021181 
C    -1.4729651    5.7364118    2.0602163 
C    -0.9605035    5.0576044    3.1747510 
C     0.0220853    4.0736218    3.0100035 
C     0.5136437    3.7487186    1.7263913 
C    -0.0111047    4.4443609    0.6111379 
C    -0.9916771    5.4261671    0.7766710 
H    -2.2430529    6.5041434    2.1873586 
H    -1.3278382    5.2918498    4.1792448 
H     0.4160210    3.5445643    3.8844537 
H     0.3389321    4.2017182   -0.3986152 
H    -1.3895219    5.9500872   -0.0986918 
O    -4.4538101    0.9012996   -4.1271508 
O    -0.7215715   -5.8730548    2.9230500 
C    -1.8910873   -1.4139657   -0.9924422 
C    -1.6566828   -2.1335771    0.3006152 
C    -0.8325879   -0.8747274   -1.7773776 
C    -1.2716766   -1.4643761    1.4962087 
C    -1.5204788   -4.2586675    1.4618594 
C    -3.5010398   -0.5529860   -2.5911313 
C    -1.1054268   -3.6008673    2.6277573 
C    -2.4590527    0.0068282   -3.3445532 
C    -1.8297256   -3.5331799    0.3130606 
C    -3.2240835   -1.2866763   -1.4396724 
C    -1.0184756   -2.2097489    2.6696443 
C    -1.1288057   -0.1765123   -2.9705851 
C    -1.5012354   -5.7440583    1.7304928 
C    -4.8068854   -0.1692288   -3.2454396 
C    -0.7971475   -4.6535444    3.6694340 
C    -3.0774254    0.7676306   -4.4965803 
C    -0.9170753    0.8617120    3.2242549 
C    -2.4575953    1.0847970    0.7129301 
C     1.2479367   -2.5948223   -0.5797333 
C     1.9412931   -0.6343637   -2.6567694 
C     2.5627452   -1.6860353   -3.3582218 
C    -2.3261816    1.9813660   -0.3630938 
C    -1.9572895    1.5822557    3.8398263 
C     1.8625045   -2.7799697    0.6734107 
C     0.2405100    0.5487184    3.9728057 
C     2.1158633    0.6919842   -3.1084348 
C     0.8809942   -3.7216940   -1.3468118 
C    -3.7425121    0.7049693    1.1572264 
C     2.1069493   -4.0737106    1.1566872 
C    -1.8509307    1.9592872    5.1876819 
C    -3.4680810    2.4984326   -0.9908493 
C     3.3163238   -1.4150065   -4.5086873 
C    -4.8796739    1.2411239    0.5403526 
C     1.1452062   -5.0111801   -0.8682788 
C     0.3401384    0.9215190    5.3188296 
C     2.8614994    0.9567061   -4.2626882 
C     3.4614467   -0.0980526   -4.9668644 
C     1.7530043   -5.1893797    0.3855178 
C    -4.7431384    2.1367396   -0.5336364 
C    -0.7097232    1.6273515    5.9302120 
H    -2.1431945   -4.0354381   -0.6077739 
H    -4.0275544   -1.7187696   -0.8347912 
H    -0.3211349    0.2337838   -3.5839152 
H    -0.7361163   -1.7034176    3.5967782 
H    -5.2437269   -1.0289061   -3.8022796 
H    -5.5649360    0.1991886   -2.5326822 
H    -2.5323398   -6.1401116    1.8715331 
H    -1.0160661   -6.3296445    0.9296215 
H     0.1690410   -4.4986195    4.1819989 
H    -1.5940393   -4.6999980    4.4455527 
H    -2.9647055    0.2091496   -5.4532339 
H    -2.6550826    1.7780095   -4.6405503 
H    -2.8425434    1.8721419    3.2675525 
H     2.4746047   -2.7168911   -3.0052125 
H     2.1234998   -1.9040498    1.2794881 
H    -1.3264729    2.2476888   -0.7208015 
H     1.0702061    0.0136349    3.4935992 
H     1.6729059    1.5197483   -2.5407336 
H     0.3639218   -3.5883708   -2.3035669 
H    -3.8507708   -0.0237000    1.9683775 
H     3.7961643   -2.2396850   -5.0457913 
H     2.5653678   -4.2113243    2.1411065 
H    -3.3647249    3.1752527   -1.8444479 
H    -2.6639947    2.5255417    5.6534542 
H     2.9931006    1.9894297   -4.5996957 
H     0.8597033   -5.8817011   -1.4682634 
H    -5.8759212    0.9501261    0.8895941 
H     1.2394253    0.6679853    5.8896245 
H     4.0544178    0.1094076   -5.8634085 
H     1.9319358   -6.1975077    0.7718907 
H    -5.6328678    2.5423103   -1.0261660 
H    -0.6311187    1.9249247    6.9808205 
