105
Energy =
C     2.9665230    1.9400573   -0.6675284 
C     2.1170915    2.8530759    0.0310698 
C     1.8962921    2.7424084    1.4217887 
H     1.5140853    3.5660797   -0.5454165 
Pd    1.3018259    0.8291124    0.3140177 
P     1.1935165   -1.1274978   -0.9545341 
P    -0.7468406    0.4008814    1.4114063 
H     3.8272218    1.5246465   -0.1234164 
H     2.6526525    2.1982308    2.0091699 
C     3.2994015    1.8704363   -4.9638169 
C     4.3589088    1.4286931   -4.1586906 
C     4.2471591    1.4664077   -2.7636502 
C     3.0711132    1.9373433   -2.1404703 
C     2.0114066    2.3830272   -2.9668857 
C     2.1265516    2.3544817   -4.3604668 
H     3.3858326    1.8412349   -6.0547249 
H     5.2773869    1.0503783   -4.6181467 
H     5.0824292    1.1270807   -2.1431784 
H     1.0771272    2.7345142   -2.5152794 
H     1.2952271    2.7055002   -4.9815986 
C    -0.6533896    5.2399786    3.8167499 
C    -0.8914335    5.1317464    2.4363079 
C    -0.0745784    4.3223689    1.6420174 
C     0.9964902    3.5961646    2.2131087 
C     1.2153483    3.7051624    3.6050559 
C     0.4036018    4.5241306    4.3975522 
H    -1.2925346    5.8776710    4.4361121 
H    -1.7188392    5.6819281    1.9764770 
H    -0.2809127    4.2481322    0.5708492 
H     2.0353076    3.1436868    4.0649228 
H     0.5931850    4.5978974    5.4729469 
O    -3.4304151    1.5461072   -4.3939477 
O    -1.7146247   -5.7151661    2.9883400 
C    -1.6545922   -1.2638279   -1.1237431 
C    -1.6933975   -1.9837992    0.1903707 
C    -0.4409064   -0.8882993   -1.7631788 
C    -1.3841873   -1.3359686    1.4218190 
C    -2.0339489   -4.0642551    1.3881178 
C    -2.9050749   -0.1153408   -2.8603309 
C    -1.7308916   -3.4252837    2.5975479 
C    -1.7044357    0.3169734   -3.4450030 
C    -2.0570811   -3.3451023    0.1937056 
C    -2.8880639   -0.9099507   -1.7160041 
C    -1.4386009   -2.0620808    2.6316104 
C    -0.4748686   -0.0768115   -2.9238441 
C    -2.2431248   -5.5318418    1.6711572 
C    -4.0456470    0.4935686   -3.6414551 
C    -1.7448956   -4.4687826    3.6917106 
C    -2.0511236    1.2266662   -4.6019751 
C    -0.7197704    0.8834128    3.1823505 
C    -2.0964022    1.3331612    0.5836748 
C     1.2197603   -2.7433939   -0.0719112 
C     2.4508196   -1.4753804   -2.2508735 
C     3.7844716   -1.5257405   -1.7924993 
C    -3.4424382    1.1339698    0.9581420 
C    -1.7119839    1.6701870    3.7946575 
C     1.5062936   -2.7958034    1.3029117 
C     0.3706333    0.4212487    3.9523600 
C     2.1663207   -1.8230157   -3.5850146 
C     1.0272240   -3.9420849   -0.7903707 
C    -1.7969876    2.1794227   -0.5003613 
C     1.5665388   -4.0315596    1.9641087 
C    -1.6318906    1.9553892    5.1659009 
C    -4.4650203    1.8068890    0.2768229 
C     4.8158648   -1.9180334   -2.6526647 
C    -2.8234209    2.8363410   -1.1928916 
C     1.0851419   -5.1722845   -0.1254138 
C     0.4366177    0.6940126    5.3240625 
C     3.2076400   -2.1933253   -4.4496490 
C     4.5299142   -2.2444464   -3.9872946 
C     1.3464465   -5.2195876    1.2546155 
C    -4.1568396    2.6595357   -0.7962466 
C    -0.5711652    1.4570990    5.9348422 
H    -2.2886547   -3.8339960   -0.7582401 
H    -3.8168218   -1.2117355   -1.2215580 
H     0.4570135    0.2741199   -3.3767240 
H    -1.2113585   -1.5693891    3.5812816 
H    -4.5205765   -0.2587565   -4.3106047 
H    -4.8320523    0.9334270   -3.0043378 
H    -3.3216951   -5.8036527    1.6229337 
H    -1.6914853   -6.1920467    0.9780139 
H    -0.8634925   -4.4220553    4.3562145 
H    -2.6565536   -4.3803138    4.3246045 
H    -1.8945722    0.7150896   -5.5783132 
H    -1.4719992    2.1677191   -4.6151524 
H    -2.5378664    2.0774248    3.2051023 
H     4.0101260   -1.2661359   -0.7509630 
H     1.6655257   -1.8633054    1.8561656 
H    -3.6904503    0.4372915    1.7664693 
H     1.1698060   -0.1557545    3.4711411 
H     1.1364278   -1.8248941   -3.9533921 
H     0.8277919   -3.9107949   -1.8671159 
H    -0.7543911    2.2848761   -0.8216276 
H     5.8457483   -1.9606170   -2.2833424 
H     1.7767034   -4.0641894    3.0381053 
H    -5.5075974    1.6557084    0.5757467 
H    -2.4034129    2.5767946    5.6317248 
H     2.9779665   -2.4559585   -5.4875082 
H     0.9261729   -6.0996216   -0.6857663 
H    -2.5889270    3.4669745   -2.0557055 
H     1.2793851    0.3196993    5.9144811 
H     5.3366171   -2.5435048   -4.6643985 
H     1.3712554   -6.1805885    1.7772552 
H    -4.9586470    3.1733905   -1.3365070 
H    -0.5190308    1.6770178    7.0061129 
