105
Energy =
C     3.1149795    1.8283667   -0.2712233 
C     2.7379046    1.9835230    1.0810975 
C     2.8460672    0.9070648    2.0154649 
H     2.2217598    2.9032056    1.3850031 
Pd    1.5000074    0.3244821    0.3374296 
P     0.1133387    0.4988170   -1.5677140 
P     0.2080485   -1.3658761    1.2977197 
H     3.8207382    1.0158162   -0.5055132 
H     3.6640972    0.1862946    1.8708691 
C     2.8491328    4.7998962   -3.3653159 
C     3.7485366    3.7289492   -3.4715669 
C     3.8113737    2.7628465   -2.4614255 
C     2.9874189    2.8555476   -1.3169050 
C     2.0835522    3.9397113   -1.2249694 
C     2.0137893    4.8981780   -2.2398329 
H     2.7951608    5.5542304   -4.1570455 
H     4.3991858    3.6410761   -4.3472305 
H     4.5106843    1.9251860   -2.5525149 
H     1.4201551    4.0317660   -0.3607226 
H     1.3038893    5.7271660   -2.1530132 
C     1.2628429    1.1103020    6.0184049 
C     0.6968085    1.8970282    5.0012465 
C     1.2059954    1.8388853    3.6999137 
C     2.3016291    0.9992991    3.3848334 
C     2.8659192    0.2252630    4.4219670 
C     2.3502284    0.2760813    5.7225133 
H     0.8591716    1.1508498    7.0351466 
H    -0.1505132    2.5546453    5.2241794 
H     0.7314216    2.4361111    2.9134173 
H     3.7202348   -0.4226092    4.2021903 
H     2.7991615   -0.3406536    6.5073693 
O    -2.0705458   -5.0804607   -3.7880117 
O    -4.2405694    2.9856898    2.5731355 
C    -2.0084784   -1.3148473   -1.0375695 
C    -2.2974019   -0.5318632    0.2074851 
C    -0.9994732   -0.9244687   -1.9658273 
C    -1.4287011   -0.5275714    1.3337994 
C    -3.7024696    1.1164101    1.3060396 
C    -2.4763411   -3.2706758   -2.3921734 
C    -2.8024866    1.1730122    2.3817077 
C    -1.4836245   -2.8855959   -3.3027889 
C    -3.4652389    0.2637755    0.2299038 
C    -2.7704634   -2.4737075   -1.2863535 
C    -1.6820540    0.3471547    2.4188532 
C    -0.7659876   -1.7037359   -3.1199476 
C    -4.7875602    2.1370462    1.5565582 
C    -3.0219600   -4.6083283   -2.8289303 
C    -3.2830289    2.2437497    3.3351091 
C    -1.3707301   -3.9669811   -4.3534817 
C     0.0689010   -2.9713209    0.4062123 
C     0.5891241   -1.9943115    2.9834291 
C     1.0638178    0.7787560   -3.1129646 
C    -1.0614742    1.8951515   -1.3547939 
C    -2.0905696    2.1179389   -2.2944352 
C     1.8894236   -2.5172341    3.1472985 
C     0.8925840   -3.2402817   -0.7002694 
C     2.1548630   -0.0854309   -3.3547176 
C    -0.8082318   -3.9688665    0.8813256 
C    -1.0001645    2.6881171   -0.1936438 
C     0.7641132    1.7883078   -4.0453138 
C    -0.3410915   -2.1164649    4.0330051 
C     2.8975714    0.0230503   -4.5366300 
C     0.8187362   -4.4817245   -1.3494998 
C     2.2532949   -3.1527390    4.3394641 
C    -3.0166998    3.1482801   -2.0864237 
C     0.0364461   -2.7341585    5.2350488 
C     1.5228975    1.9042212   -5.2195676 
C    -0.8809347   -5.2044254    0.2278753 
C    -1.9394813    3.7059152    0.0214224 
C    -2.9405069    3.9440340   -0.9313322 
C     2.5767306    1.0161496   -5.4756412 
C     1.3287329   -3.2545528    5.3903262 
C    -0.0741561   -5.4607638   -0.8939992 
H    -4.1327892    0.2460460   -0.6374154 
H    -3.5401405   -2.7666031   -0.5648295 
H     0.0009282   -1.4058950   -3.8406163 
H    -0.9787159    0.4041255    3.2547511 
H    -3.0831557   -5.3432379   -2.0062066 
H    -4.0359865   -4.5055793   -3.2768763 
H    -5.0232556    2.7564892    0.6742120 
H    -5.7270889    1.6481242    1.8992444 
H    -3.7446317    1.7967214    4.2442642 
H    -2.4860204    2.9348692    3.6639188 
H    -0.3295790   -4.2761695   -4.5561767 
H    -1.8270759   -3.6459699   -5.3168316 
H     1.5807170   -2.4670442   -1.0604058 
H    -2.1796689    1.4723827   -3.1751249 
H     2.4206261   -0.8461072   -2.6105227 
H     2.6146369   -2.4335751    2.3286525 
H    -1.4359757   -3.7757233    1.7581752 
H    -0.2346216    2.4711845    0.5603953 
H    -0.0458248    2.4970511   -3.8527873 
H    -1.3649719   -1.7496446    3.9164085 
H    -3.8089568    3.3228256   -2.8219926 
H     3.7330110   -0.6605352   -4.7202104 
H     3.2628882   -3.5612442    4.4520148 
H     1.4539729   -4.6795112   -2.2189640 
H    -1.9086095    4.2975199    0.9413551 
H     1.2891364    2.6996936   -5.9343929 
H    -0.6916759   -2.8195536    6.0483621 
H    -1.5698330   -5.9724262    0.5950106 
H    -3.6738671    4.7397165   -0.7640682 
H     3.1599587    1.1076717   -6.3976906 
H     1.6140883   -3.7438614    6.3272314 
H    -0.1470505   -6.4194396   -1.4163404 
