105
Energy =
C     2.6670867    2.3223950   -0.6999314 
C     1.6864836    3.1254269   -0.0392924 
C     1.4633677    3.0262721    1.3519717 
H     0.9965439    3.7274847   -0.6443191 
Pd    1.1628408    1.0156125    0.2997249 
P     1.3530495   -0.9727953   -0.9084965 
P    -0.8172600    0.3316103    1.3918040 
H     3.5703565    2.0509966   -0.1343700 
H     2.2809304    2.6140274    1.9641491 
C     3.0671891    2.1767221   -4.9884016 
C     1.8274008    2.4994252   -4.4116061 
C     1.6897626    2.5511324   -3.0207592 
C     2.7917548    2.2907838   -2.1709127 
C     4.0327427    1.9797198   -2.7678002 
C     4.1685517    1.9190592   -4.1598926 
H     3.1724819    2.1295390   -6.0770233 
H     0.9623038    2.7057965   -5.0512417 
H     0.7076656    2.7738190   -2.5889340 
H     4.8998380    1.7845835   -2.1291208 
H     5.1390608    1.6671868   -4.5986779 
C    -1.4474527    5.2124896    3.6370371 
C    -1.6503628    5.0237400    2.2596136 
C    -0.7165292    4.3125607    1.5011156 
C     0.4399941    3.7672794    2.1059572 
C     0.6231131    3.9535201    3.4948262 
C    -0.3068976    4.6750503    4.2512214 
H    -2.1785659    5.7735150    4.2282122 
H    -2.5418576    5.4339520    1.7741489 
H    -0.8967646    4.1721565    0.4318396 
H     1.5086520    3.5306953    3.9807156 
H    -0.1434235    4.8121276    5.3247117 
O    -3.5642027    0.8990187   -4.4704329 
O    -0.9009020   -5.8093184    3.1514504 
C    -1.4437275   -1.5227863   -1.0965837 
C    -1.3946115   -2.2005956    0.2395064 
C    -0.2886592   -0.9957335   -1.7378643 
C    -1.1969606   -1.4780111    1.4521961 
C    -1.4427068   -4.2716225    1.4992855 
C    -2.8245675   -0.6207469   -2.8791666 
C    -1.2492981   -3.5594353    2.6902172 
C    -1.6913796   -0.0381320   -3.4680036 
C    -1.5571134   -3.5995524    0.2829108 
C    -2.7077234   -1.3689421   -1.7097016 
C    -1.1594024   -2.1677293    2.6837553 
C    -0.4245229   -0.2336744   -2.9243849 
C    -1.4379267   -5.7450280    1.8265269 
C    -4.0310898   -0.2070291   -3.6885225 
C    -1.1220399   -4.5608487    3.8159920 
C    -2.1508411    0.7748228   -4.6572714 
C    -0.8824129    0.8679690    3.1460890 
C    -2.2767937    1.0328336    0.5240548 
C     1.6001496   -2.5411106    0.0242602 
C     2.6640980   -1.1739768   -2.1824666 
C     3.9848653   -1.0193143   -1.7103312 
C    -2.0898467    1.8789985   -0.5849662 
C     0.2525775    0.5909068    3.9401554 
C     1.8761155   -2.5106466    1.4018791 
C    -1.9838673    1.5253493    3.7231141 
C     2.4504436   -1.5969956   -3.5080164 
C     1.5897110   -3.7760074   -0.6577377 
C    -3.5842493    0.6527438    0.8951935 
C     2.1054736   -3.7045591    2.1017932 
C     0.2617250    0.9149427    5.3022380 
C    -3.1921914    2.3584324   -1.3058966 
C     5.0734399   -1.2841619   -2.5483705 
C    -4.6851365    1.1487799    0.1848638 
C     1.8163154   -4.9646656    0.0455955 
C    -1.9623043    1.8642808    5.0842322 
C     3.5457742   -1.8381378   -4.3513889 
C     4.8553498   -1.6857227   -3.8753299 
C     2.0660574   -4.9325974    1.4282307 
C    -4.4906425    2.0030446   -0.9132238 
C    -0.8516052    1.5470886    5.8782775 
H    -1.7044882   -4.1452142   -0.6547979 
H    -3.5893991   -1.7864990   -1.2132450 
H     0.4528030    0.2333625   -3.3811513 
H    -1.0175141   -1.6189836    3.6192075 
H    -4.3848231   -1.0404320   -4.3362159 
H    -4.8800955    0.1349704   -3.0720715 
H    -2.4645799   -6.1731810    1.7813203 
H    -0.7889479   -6.3378271    1.1571622 
H    -0.2644535   -4.3652647    4.4845741 
H    -2.0437359   -4.5890808    4.4398140 
H    -1.9106271    0.2598705   -5.6147358 
H    -1.7127257    1.7884485   -4.6976534 
H     1.1315957    0.1180288    3.4852217 
H     4.1568574   -0.7000372   -0.6751536 
H     1.8940981   -1.5487324    1.9269732 
H    -1.0697022    2.1239694   -0.9027436 
H    -2.8514830    1.7912372    3.1132911 
H     1.4366023   -1.7576029   -3.8855861 
H     1.3997865   -3.8058117   -1.7362598 
H    -3.7383486   -0.0466518    1.7242357 
H     6.0936394   -1.1683452   -2.1680959 
H     2.3058808   -3.6745904    3.1777196 
H    -3.0410057    2.9889419   -2.1872093 
H     1.1413313    0.6835443    5.9118928 
H     3.3702864   -2.1604707   -5.3829734 
H     1.7984980   -5.9215642   -0.4865398 
H    -5.6983999    0.8576707    0.4810348 
H    -2.8197428    2.3851226    5.5222991 
H     5.7056786   -1.8845239   -4.5356871 
H     2.2222913   -5.8639079    1.9809784 
H    -5.3518252    2.3782359   -1.4757794 
H    -0.8448785    1.8073039    6.9417470 
