105
Energy =
C     2.9899271    1.9044262   -0.6588147 
C     2.1515330    2.8266359    0.0411560 
C     1.9278254    2.7152275    1.4312926 
H     1.5583777    3.5487748   -0.5341652 
Pd    1.3113674    0.8121670    0.3177009 
P     1.1805943   -1.1393656   -0.9567920 
P    -0.7439689    0.4057056    1.4120978 
H     3.8447416    1.4766729   -0.1149700 
H     2.6766325    2.1601037    2.0181128 
C     3.3272423    1.8419010   -4.9549131 
C     4.3791714    1.3825557   -4.1496767 
C     4.2661981    1.4181026   -2.7546868 
C     3.0963146    1.9043991   -2.1316752 
C     2.0443370    2.3678369   -2.9581720 
C     2.1608466    2.3414054   -4.3517037 
H     3.4146363    1.8144501   -6.0457903 
H     5.2926353    0.9921439   -4.6089899 
H     5.0956857    1.0650841   -2.1341262 
H     1.1148419    2.7321244   -2.5068410 
H     1.3356877    2.7065775   -4.9729033 
C    -0.5936993    5.2377982    3.8297273 
C    -0.8305376    5.1371805    2.4485040 
C    -0.0230257    4.3195495    1.6531093 
C     1.0375562    3.5777981    2.2237656 
C     1.2552868    3.6794908    3.6164453 
C     0.4527140    4.5062683    4.4101532 
H    -1.2254793    5.8819668    4.4499427 
H    -1.6494950    5.7000549    1.9889026 
H    -0.2286291    4.2510824    0.5814205 
H     2.0671352    3.1060329    4.0759125 
H     0.6411478    4.5739676    5.4861447 
O    -3.4076012    1.6014524   -4.3916682 
O    -1.7859830   -5.7026173    2.9699971 
C    -1.6686833   -1.2405707   -1.1292425 
C    -1.7175703   -1.9639899    0.1826689 
C    -0.4499216   -0.8774982   -1.7662843 
C    -1.4026394   -1.3232994    1.4164036 
C    -2.0842516   -4.0436439    1.3741090 
C    -2.9035383   -0.0709565   -2.8629325 
C    -1.7753518   -3.4116929    2.5857422 
C    -1.6972295    0.3488778   -3.4449688 
C    -2.0973917   -3.3208869    0.1817078 
C    -2.8972092   -0.8697120   -1.7213582 
C    -1.4671957   -2.0521050    2.6240593 
C    -0.4729885   -0.0613954   -2.9239653 
C    -2.3108121   -5.5095020    1.6527553 
C    -4.0359352    0.5534918   -3.6436813 
C    -1.8033558   -4.4580268    3.6769294 
C    -2.0317507    1.2670353   -4.5988337 
C    -0.7130319    0.8824161    3.1845720 
C    -2.0810229    1.3571068    0.5854843 
C     1.1860622   -2.7580273   -0.0788149 
C     2.4354788   -1.4989686   -2.2522870 
C     3.7670644   -1.5715394   -1.7907163 
C    -3.4298317    1.1736583    0.9579558 
C    -1.6966036    1.6786112    3.7986402 
C     1.4693791   -2.8179447    1.2963679 
C     0.3715865    0.4056150    3.9538366 
C     2.1497152   -1.8337857   -3.5893944 
C     0.9808272   -3.9521556   -0.8013400 
C    -1.7698545    2.2024272   -0.4959857 
C     1.5137072   -4.0563341    1.9538739 
C    -1.6137624    1.9593386    5.1706518 
C    -4.4432186    1.8610403    0.2772900 
C     4.7950751   -1.9729824   -2.6506623 
C    -2.7872457    2.8741812   -1.1876208 
C     1.0234544   -5.1850051   -0.1401518 
C     0.4401439    0.6740043    5.3262693 
C     3.1880547   -2.2131568   -4.4537281 
C     4.5081671   -2.2863100   -3.9882498 
C     1.2814221   -5.2395579    1.2402376 
C    -4.1232171    2.7128364   -0.7929732 
C    -0.5589800    1.4471468    5.9386307 
H    -2.3336683   -3.8042148   -0.7719215 
H    -3.8300206   -1.1621895   -1.2289565 
H     0.4635081    0.2802285   -3.3744563 
H    -1.2353763   -1.5647598    3.5753882 
H    -4.5184253   -0.1910965   -4.3160751 
H    -4.8182848    1.0000418   -3.0062044 
H    -3.3924514   -5.7684960    1.6025706 
H    -1.7662026   -6.1742289    0.9583874 
H    -0.9228309   -4.4232975    4.3433099 
H    -2.7152259   -4.3608624    4.3082670 
H    -1.8795032    0.7576133   -5.5769793 
H    -1.4417820    2.2013982   -4.6074479 
H    -2.5176458    2.0967190    3.2099460 
H     3.9935783   -1.3218102   -0.7469611 
H     1.6384616   -1.8890364    1.8527215 
H    -3.6874753    0.4777996    1.7639616 
H     1.1641638   -0.1794165    3.4713979 
H     1.1209706   -1.8185205   -3.9605732 
H     0.7835982   -3.9151017   -1.8783079 
H    -0.7256996    2.2954491   -0.8160177 
H     5.8231892   -2.0329670   -2.2788481 
H     1.7208795   -4.0947502    3.0282609 
H    -5.4879533    1.7217343    0.5744496 
H    -2.3783833    2.5882139    5.6378330 
H     2.9574787   -2.4655824   -5.4939156 
H     0.8552785   -6.1087359   -0.7037661 
H    -2.5439822    3.5044868   -2.0482436 
H     1.2783168    0.2885224    5.9160412 
H     5.3123280   -2.5926304   -4.6651307 
H     1.2941048   -6.2023642    1.7599699 
H    -4.9179249    3.2382301   -1.3326179 
H    -0.5045820    1.6639301    7.0104274 
