105
Energy =
C     3.2598969    1.5694118    0.1587668 
C     2.5471214    2.2605435    1.1843674 
C     2.0554258    1.5659910    2.3142084 
H     2.2709754    3.3106090    1.0267438 
Pd    1.1921932    0.7526838    0.3487557 
P     0.9037041   -0.6072228   -1.5419778 
P    -0.9531547    0.2399105    1.2044230 
H     3.8268281    0.6749843    0.4573221 
H     2.5323337    0.6002618    2.5404373 
C     4.7116715    3.5084661   -3.3981439 
C     3.4758703    3.8931795   -2.8478188 
C     2.9971637    3.2708472   -1.6909461 
C     3.7406471    2.2435374   -1.0627949 
C     4.9733026    1.8590433   -1.6330223 
C     5.4586126    2.4926097   -2.7846353 
H     5.0859262    3.9984742   -4.3028208 
H     2.8828479    4.6776590   -3.3293308 
H     2.0179398    3.5545787   -1.2879934 
H     5.5552112    1.0571380   -1.1661064 
H     6.4199749    2.1848792   -3.2086499 
C    -0.0906275    3.1906237    5.6629266 
C     0.1451908    3.9952601    4.5354600 
C     0.8228811    3.4791711    3.4281931 
C     1.2932840    2.1448588    3.4290426 
C     1.0429173    1.3456186    4.5692502 
C     0.3562511    1.8613503    5.6737910 
H    -0.6211317    3.6007347    6.5284049 
H    -0.2056598    5.0317520    4.5194145 
H     0.9912712    4.1222922    2.5595113 
H     1.3989988    0.3107585    4.5892313 
H     0.1778473    1.2264382    6.5476418 
O     1.1894930   -5.6393560    2.3665016 
O    -5.4902749    0.1725335   -3.3078590 
C    -0.9192165   -2.4757687   -0.3315196 
C    -2.0567590   -1.5691003   -0.6816491 
C     0.4266694   -2.1586605   -0.6573295 
C    -2.2301486   -0.3233818   -0.0125359 
C    -3.9825852   -1.0817838   -2.0658419 
C    -0.1520181   -4.3987134    0.9349314 
C    -4.1504071    0.1449370   -1.4098403 
C     1.1810885   -4.0310686    0.6906988 
C    -2.9669664   -1.9579418   -1.6826968 
C    -1.1998368   -3.6337568    0.4283203 
C    -3.3065714    0.5194911   -0.3637031 
C     1.4818263   -2.9330787   -0.1117434 
C    -5.0053442   -1.1669392   -3.1723937 
C    -0.1413366   -5.6096638    1.8378671 
C    -5.2913752    0.8780847   -2.0783707 
C     2.0730195   -4.9911678    1.4459231 
C    -0.9813146   -1.0725843    2.4852383 
C    -1.6885773    1.7596542    1.9280499 
C     2.2578295   -1.0795506   -2.6982684 
C    -0.3880763   -0.1290832   -2.7622730 
C    -1.0050147    1.1306385   -2.6679235 
C    -2.3537302    1.7931505    3.1667656 
C    -2.2081426   -1.5783411    2.9668205 
C     2.8969797   -0.0218912   -3.3790296 
C     0.2254939   -1.6456972    2.9266351 
C    -0.7018460   -0.9792457   -3.8436417 
C     2.5684092   -2.4117595   -3.0453060 
C    -1.5844188    2.9448349    1.1656352 
C     3.8483127   -0.2934823   -4.3705192 
C    -2.2165677   -2.6188241    3.9043636 
C    -2.9364514    2.9874115    3.6159631 
C    -1.9536929    1.5251726   -3.6229353 
C    -2.1829963    4.1298262    1.6102974 
C     3.5262764   -2.6751117   -4.0349793 
C     0.2137992   -2.6978875    3.8533592 
C    -1.6519982   -0.5825248   -4.7916554 
C    -2.2864049    0.6665401   -4.6790564 
C     4.1714975   -1.6190449   -4.6952367 
C    -2.8672982    4.1500398    2.8356717 
C    -1.0068057   -3.1775481    4.3495158 
H    -2.8205429   -2.9159910   -2.1919857 
H    -2.2419685   -3.8703122    0.6655221 
H     2.5239636   -2.6529276   -0.3008107 
H    -3.4517946    1.4742092    0.1493917 
H    -0.8503137   -5.5379016    2.6805602 
H    -0.3715593   -6.5372304    1.2670337 
H    -4.5751042   -1.4825575   -4.1398143 
H    -5.8255667   -1.8732401   -2.9118728 
H    -6.2083864    0.8629251   -1.4472044 
H    -5.0584102    1.9318728   -2.3149398 
H     2.8752070   -4.4954317    2.0212539 
H     2.5491731   -5.7237106    0.7557328 
H    -3.1538222   -1.1713157    2.5923063 
H    -0.7447786    1.7955316   -1.8367390 
H     2.6371933    1.0160892   -3.1507200 
H    -2.4078198    0.8962845    3.7898782 
H     1.1737025   -1.2894375    2.5110252 
H    -0.2042315   -1.9502087   -3.9405067 
H     2.0539623   -3.2478609   -2.5629107 
H    -1.0328541    2.9324324    0.2174445 
H    -2.4389720    2.5027584   -3.5363072 
H     4.3354972    0.5390106   -4.8873678 
H    -3.4446102    3.0063246    4.5854068 
H    -3.1703528   -3.0035077    4.2804881 
H    -1.8984402   -1.2497275   -5.6242985 
H     3.7594356   -3.7125336   -4.2968120 
H    -2.1078137    5.0392553    1.0051249 
H     1.1526487   -3.1625096    4.1688467 
H    -3.0428245    0.9673460   -5.4102449 
H     4.9172256   -1.8296943   -5.4687861 
H    -3.3321192    5.0761876    3.1890236 
H    -1.0159564   -3.9999300    5.0723803 
