105
Energy =
C     3.0775020    1.8881817   -0.2896575 
C     2.7284295    2.0009353    1.0743623 
C     2.8755628    0.9020103    1.9765677 
H     2.2041432    2.9031401    1.4144827 
Pd    1.5010460    0.3419284    0.3134524 
P     0.2607114   -1.3967559    1.2554859 
P     0.0680849    0.5441593   -1.5538728 
H     3.7908759    1.0939918   -0.5609029 
H     3.7019218    0.1995395    1.7944047 
C     2.6941921    4.9343748   -3.2975000 
C     3.6075967    3.8813673   -3.4520858 
C     3.7088491    2.8906416   -2.4693432 
C     2.9100131    2.9401188   -1.3045393 
C     1.9914015    4.0065317   -1.1639012 
C     1.8833990    4.9897285   -2.1513519 
H     2.6103589    5.7080799   -4.0676514 
H     4.2393493    3.8268957   -4.3441588 
H     4.4189914    2.0671767   -2.5981491 
H     1.3463104    4.0652344   -0.2829979 
H     1.1627379    5.8045043   -2.0268560 
C     1.3817799    0.9726320    6.0181416 
C     2.4770852    0.1669006    5.6761044 
C     2.9633471    0.1589661    4.3633067 
C     2.3611761    0.9485198    3.3597405 
C     1.2579412    1.7588875    3.7212347 
C     0.7779942    1.7741724    5.0348189 
H     1.0012731    0.9797589    7.0445496 
H     2.9553521   -0.4609743    6.4343713 
H     3.8239023   -0.4669817    4.1074175 
H     0.7545317    2.3667828    2.9612938 
H    -0.0758488    2.4097490    5.2938898 
O    -4.2330263    2.8368847    2.7493283 
O    -2.0665167   -5.0096505   -3.8823315 
C    -2.2830689   -0.5791386    0.2445275 
C    -2.0087295   -1.3222096   -1.0279727 
C    -1.3894424   -0.5901453    1.3511231 
C    -1.0285139   -0.8873658   -1.9671727 
C    -2.4725490   -3.2477219   -2.4265388 
C    -3.6912398    1.0131913    1.4189800 
C    -1.5084653   -2.8186921   -3.3482086 
C    -2.7685349    1.0561936    2.4759145 
C    -2.7553508   -2.4876243   -1.2921926 
C    -3.4635755    0.1947295    0.3146208 
C    -0.8081489   -1.6292991   -3.1481793 
C    -1.6335235    0.2496790    2.4655046 
C    -3.0037448   -4.5826892   -2.8886683 
C    -4.7878635    2.0071138    1.7215172 
C    -1.4009500   -3.8675650   -4.4318793 
C    -3.2462696    2.0913045    3.4692592 
C    -1.1257631    1.9126759   -1.2760511 
C     0.9772278    0.8835155   -3.1121224 
C     0.6907881   -2.0634416    2.9143989 
C     0.1300480   -2.9793191    0.3229059 
C     0.9325391   -3.2016946   -0.8091813 
C     2.0765557    0.0454339   -3.4035110 
C    -2.1810722    2.1407052   -2.1849213 
C     2.0043567   -2.5641103    3.0362143 
C    -1.0505404    2.6764015   -0.0962466 
C    -0.7178683   -4.0058893    0.7890747 
C    -0.2142204   -2.2338451    3.9792086 
C     0.6377572    1.9122844   -4.0092594 
C     2.4062325   -3.2250642    4.2020372 
C    -3.1202458    3.1479177   -1.9279840 
C     2.7880910    0.1984440   -4.5996510 
C     0.8658349   -4.4254812   -1.4918058 
C     1.3653267    2.0727602   -5.1979911 
C     0.2010914   -2.8772450    5.1550259 
C    -2.0024649    3.6707921    0.1676666 
C    -0.7838203   -5.2235695    0.1021765 
C     0.0011484   -5.4331987   -1.0445630 
C     1.5065087   -3.3752062    5.2685170 
C     2.4273777    1.2103870   -5.5034608 
C    -3.0303946    3.9148220   -0.7544732 
H    -3.5029067   -2.8147094   -0.5621673 
H    -4.1498344    0.1890938   -0.5381141 
H    -0.9128084    0.2961031    3.2871591 
H    -0.0639014   -1.2970136   -3.8775233 
H    -5.0538294    2.6465467    0.8623310 
H    -5.7109108    1.4921052    2.0707251 
H    -3.0321805   -5.3414934   -2.0861243 
H    -4.0296521   -4.4865417   -3.3102385 
H    -1.8860837   -3.5281378   -5.3746445 
H    -0.3594984   -4.1511350   -4.6676839 
H    -2.4543368    2.7872737    3.8000976 
H    -3.6798978    1.6109243    4.3751709 
H    -2.2796994    1.5167431   -3.0800202 
H     1.5979913   -2.4058896   -1.1627102 
H     2.7101023   -2.4429916    2.2052653 
H     2.3731408   -0.7303502   -2.6870867 
H    -0.2632491    2.4542848    0.6334152 
H    -1.3283423   -3.8492944    1.6851594 
H    -1.2473249   -1.8845242    3.8944539 
H    -0.1791874    2.6012257   -3.7782306 
H     1.4843720   -4.5869361   -2.3806102 
H     3.4259915   -3.6156285    4.2819523 
H     3.6302882   -0.4651277   -4.8216793 
H    -3.9330875    3.3266587   -2.6396958 
H    -1.4503222   -6.0141587    0.4626374 
H    -0.5076635   -3.0004733    5.9805082 
H     1.1005525    2.8826772   -5.8852355 
H    -1.9597353    4.2391034    1.1016962 
H    -0.0669002   -6.3778254   -1.5925284 
H     1.8214728   -3.8846585    6.1849733 
H     2.9860559    1.3366910   -6.4365333 
H    -3.7736065    4.6921913   -0.5490101 
