105
Energy =
C     3.1041874    1.6705576   -0.0012438 
C     2.4823237    2.3527627    1.0946341 
C     2.1701440    1.6475236    2.2793469 
H     2.0920129    3.3685082    0.9540764 
Pd    1.1719680    0.7039436    0.4630586 
P     1.0389639   -0.8209574   -1.3052206 
P    -0.9953106    0.3483135    1.2559394 
H     3.8120880    0.8665441    0.2429448 
H     2.7032682    0.6967681    2.4412285 
C     3.4884454    3.2119438   -4.0026199 
C     4.3209461    2.1783754   -3.5499200 
C     4.2003868    1.6977022   -2.2403580 
C     3.2414972    2.2394817   -1.3553518 
C     2.4090970    3.2838462   -1.8258486 
C     2.5333912    3.7648765   -3.1322033 
H     3.5811863    3.5872534   -5.0268368 
H     5.0690054    1.7410798   -4.2193808 
H     4.8506134    0.8867076   -1.8952035 
H     1.6428129    3.7105848   -1.1683748 
H     1.8791914    4.5718269   -3.4789311 
C     0.1795981    3.0421511    5.8183862 
C     0.4412498    3.9434733    4.7737100 
C     1.0804758    3.5099069    3.6085996 
C     1.4801297    2.1612339    3.4688505 
C     1.2103921    1.2646742    4.5303423 
C     0.5632498    1.6983647    5.6913842 
H    -0.3195348    3.3882813    6.7292747 
H     0.1448375    4.9927056    4.8687977 
H     1.2836178    4.2297919    2.8103994 
H     1.5119824    0.2157511    4.4363482 
H     0.3642453    0.9892767    6.5014013 
O    -0.1556040   -6.2009655    1.9418724 
O    -4.7115150    1.1948770   -3.8900824 
C    -1.2069122   -2.3214545   -0.4277754 
C    -2.0857362   -1.1853932   -0.8589174 
C     0.1992602   -2.3389254   -0.6567846 
C    -2.1494746    0.0526873   -0.1597422 
C    -3.6582022   -0.3304983   -2.4960127 
C    -1.0467990   -4.4834672    0.6620337 
C    -3.7004057    0.8967601   -1.8202112 
C     0.3393944   -4.4911115    0.4513942 
C    -2.8843752   -1.3804070   -2.0052181 
C    -1.8252761   -3.4248152    0.1979314 
C    -2.9853887    1.0869849   -0.6381458 
C     0.9648703   -3.4484719   -0.2318637 
C    -4.5199088   -0.2139912   -3.7302466 
C    -1.4077458   -5.7317954    1.4317809 
C    -4.5835838    1.8331278   -2.6151583 
C     0.8968034   -5.7473047    1.0844341 
C    -1.2959250   -1.0324511    2.4175079 
C    -1.5991395    1.9002807    2.0301609 
C     2.7177683   -1.3510691   -1.8375722 
C     0.1374941   -0.3393841   -2.8210582 
C    -0.1752426   -1.2884488   -3.8179092 
C    -2.2704504    1.9473224    3.2651927 
C    -2.6039457   -1.3985148    2.7991954 
C     3.1152992   -1.3736555   -3.1878957 
C    -0.2000413   -1.8024648    2.8522635 
C    -0.2843852    0.9948245   -2.9668713 
C     3.6690423   -1.6539068   -0.8363219 
C    -1.3503019    3.1047165    1.3317548 
C     4.4323907   -1.7183739   -3.5293329 
C    -2.8033241   -2.5104339    3.6276154 
C    -2.7240744    3.1754331    3.7693820 
C    -0.8962242   -0.8949853   -4.9521913 
C    -1.8236153    4.3244419    1.8296503 
C     4.9789861   -2.0069044   -1.1817506 
C    -0.4060653   -2.9273851    3.6629704 
C    -1.0222958    1.3778705   -4.0958126 
C    -1.3240572    0.4363938   -5.0895923 
C     5.3634982   -2.0403849   -2.5327643 
C    -2.5196592    4.3597447    3.0480234 
C    -1.7062976   -3.2750889    4.0581571 
H    -2.8363318   -2.3419657   -2.5260077 
H    -2.9083466   -3.4043438    0.3550433 
H     2.0409356   -3.4836686   -0.4235709 
H    -3.0538138    2.0361310   -0.0996598 
H    -2.0850527   -5.5449297    2.2830491 
H    -1.8863152   -6.4866404    0.7675394 
H    -4.0382916   -0.6081932   -4.6420682 
H    -5.4891673   -0.7448448   -3.5934692 
H    -5.5743663    1.9659262   -2.1247745 
H    -4.1430267    2.8343077   -2.7691295 
H     1.7981658   -5.5758886    1.6991752 
H     1.1486120   -6.5076866    0.3108859 
H    -3.4634758   -0.8270114    2.4317222 
H     0.1293538   -2.3340159   -3.6959981 
H     2.4073968   -1.1035625   -3.9762488 
H    -2.4326713    1.0317073    3.8408631 
H     0.8094253   -1.5363125    2.5182726 
H    -0.0452467    1.7231680   -2.1848571 
H     3.3825491   -1.6015201    0.2214529 
H    -0.7890475    3.0784221    0.3887699 
H    -1.1365807   -1.6315025   -5.7261731 
H     4.7301327   -1.7265436   -4.5828924 
H    -3.2400496    3.2028119    4.7345033 
H    -3.8186481   -2.7896268    3.9282096 
H    -1.3679490    2.4112399   -4.1975772 
H     5.7037477   -2.2461729   -0.3966708 
H    -1.6404451    5.2488951    1.2720456 
H     0.4427913   -3.5446552    3.9727456 
H    -1.9073924    0.7383000   -5.9652445 
H     6.3898281   -2.3077969   -2.8040728 
H    -2.8863880    5.3128073    3.4427325 
H    -1.8656292   -4.1535006    4.6920849 
