105
Energy =
C     3.2782158    1.5020890    0.3203413 
C     2.4301693    2.6192466    0.4882031 
C     1.5231481    2.7045557    1.5857410 
H     2.3549923    3.3497012   -0.3277192 
Pd    1.0806955    0.8618572    0.4094491 
P     0.9185174   -0.8860978   -1.1499218 
P    -0.9586295    0.3596358    1.4513105 
H     3.4408580    0.8500488    1.1938276 
H     1.8282909    2.2328407    2.5301538 
C     6.1270472    0.9590770   -2.8471202 
C     5.6264363    2.2416572   -2.5754917 
C     4.6903533    2.4298688   -1.5529745 
C     4.2466313    1.3366714   -0.7737298 
C     4.7740387    0.0533847   -1.0469194 
C     5.6970408   -0.1349683   -2.0790190 
H     6.8564213    0.8129061   -3.6503565 
H     5.9728117    3.1007497   -3.1592776 
H     4.3271040    3.4399463   -1.3372224 
H     4.4324254   -0.8038647   -0.4552974 
H     6.0812526   -1.1380106   -2.2890604 
C    -1.4987013    5.7383792    2.0340227 
C    -0.9803827    5.0728025    3.1538216 
C     0.0055066    4.0909265    2.9961228 
C     0.4953394    3.7558673    1.7145261 
C    -0.0349104    4.4385737    0.5939203 
C    -1.0195063    5.4175519    0.7522900 
H    -2.2719272    6.5038586    2.1556496 
H    -1.3458391    5.3156867    4.1569550 
H     0.4034373    3.5716015    3.8746169 
H     0.3136866    4.1872276   -0.4142335 
H    -1.4222489    5.9307728   -0.1271682 
O    -4.4544180    0.8508043   -4.1404531 
O    -0.6923068   -5.8607933    2.9530900 
C    -1.8812594   -1.4305064   -0.9898146 
C    -1.6440192   -2.1414060    0.3076249 
C    -0.8252312   -0.8887334   -1.7762667 
C    -1.2665786   -1.4633428    1.5006859 
C    -1.4968784   -4.2595359    1.4804995 
C    -3.4943110   -0.5895981   -2.5960045 
C    -1.0897744   -3.5927856    2.6441221 
C    -2.4549294   -0.0268409   -3.3508884 
C    -1.8074574   -3.5421453    0.3270064 
C    -3.2143566   -1.3147343   -1.4398347 
C    -1.0119915   -2.2009482    2.6787546 
C    -1.1240589   -0.1992786   -2.9739244 
C    -1.4687184   -5.7433245    1.7571791 
C    -4.8016885   -0.2179075   -3.2542128 
C    -0.7787085   -4.6378267    3.6926608 
C    -3.0767481    0.7239812   -4.5076340 
C    -0.9326231    0.8758785    3.2168414 
C    -2.4660834    1.0740134    0.6996254 
C     1.2641218   -2.5895417   -0.5685535 
C     1.9477904   -0.6302815   -2.6514415 
C     2.5733625   -1.6798553   -3.3523638 
C    -2.3374288    1.9635005   -0.3825729 
C    -1.9766416    1.5998220    3.8219347 
C     0.9065660   -3.7216836   -1.3322980 
C     0.2215756    0.5698049    3.9735022 
C     2.1174248    0.6965487   -3.1034616 
C     1.8751695   -2.7660041    0.6875898 
C    -3.7497573    0.6903479    1.1441991 
C     1.1768095   -5.0076459   -0.8476454 
C    -1.8780172    1.9857090    5.1678696 
C    -3.4809164    2.4696786   -1.0163222 
C     3.3267897   -1.4062733   -4.5023210 
C    -4.8886177    1.2157800    0.5212492 
C     2.1252789   -4.0562977    1.1771231 
C     0.3134183    0.9513545    5.3176265 
C     2.8631631    0.9638562   -4.2570653 
C     3.4676625   -0.0888174   -4.9604668 
C     1.7811183   -5.1771539    0.4090314 
C    -4.7548713    2.1045673   -0.5587530 
C    -0.7406496    1.6596894    5.9188217 
H    -2.1148503   -4.0512882   -0.5920975 
H    -4.0159477   -1.7483870   -0.8335645 
H    -0.3179737    0.2127144   -3.5882542 
H    -0.7359525   -1.6879510    3.6041144 
H    -5.2314731   -1.0833119   -3.8076952 
H    -5.5635306    0.1487419   -2.5446262 
H    -2.4978021   -6.1450902    1.8969497 
H    -0.9770261   -6.3302324    0.9613055 
H     0.1843808   -4.4741656    4.2082937 
H    -1.5785526   -4.6851662    4.4657022 
H    -2.9593351    0.1609239   -5.4610518 
H    -2.6608734    1.7362876   -4.6566495 
H    -2.8589227    1.8853708    3.2429304 
H     2.4888500   -2.7109356   -2.9991247 
H     0.3919466   -3.5954164   -2.2913344 
H    -1.3385034    2.2328372   -0.7401820 
H     1.0550155    0.0336204    3.5020985 
H     1.6704355    1.5226360   -2.5364606 
H     2.1286308   -1.8860969    1.2910752 
H    -3.8555583   -0.0326214    1.9607555 
H     3.8100504   -2.2292714   -5.0389485 
H     0.8984001   -5.8822652   -1.4450090 
H    -3.3796053    3.1404519   -1.8749232 
H    -2.6942932    2.5539785    5.6255085 
H     2.9910523    1.9969779   -4.5943088 
H     2.5803578   -4.1872540    2.1639980 
H    -5.8839462    0.9215803    0.8704485 
H     1.2099446    0.7026544    5.8948636 
H     4.0607518    0.1206677   -5.8564704 
H     1.9648973   -6.1826150    0.8000850 
H    -5.6458268    2.5021258   -1.0555915 
H    -0.6682254    1.9638818    6.9679841 
