105
Energy =
C     1.2676903   -0.0546238    3.3916615 
C    -0.0733738    0.3431612    3.5898388 
C    -1.1605100   -0.5144774    3.2485978 
H    -0.2778598    1.3883376    3.8558670 
Pd    0.0850609   -0.1451927    1.4334708 
P    -1.4205172   -1.0594710   -0.1148280 
P     1.6067473    0.5751089   -0.2032856 
H     1.4647797   -1.1301873    3.2536334 
H    -0.9984010   -1.5969761    3.3456011 
C     4.7487462    2.2728949    4.3455686 
C     3.5124407    2.6043303    4.9210112 
C     2.3693731    1.8600342    4.6101249 
C     2.4457124    0.7601754    3.7247889 
C     3.7017804    0.4269792    3.1672343 
C     4.8393976    1.1810311    3.4671601 
H     5.6414667    2.8589882    4.5864293 
H     3.4404034    3.4426739    5.6216070 
H     1.4168698    2.1154359    5.0858054 
H     3.7730770   -0.4182177    2.4729046 
H     5.8004288    0.9202808    3.0129702 
C    -5.3046089    0.6525571    3.2820200 
C    -4.3072778    1.6311595    3.1295750 
C    -2.9584397    1.2658730    3.1219908 
C    -2.5733054   -0.0881710    3.2680252 
C    -3.5867297   -1.0595859    3.4232084 
C    -4.9381088   -0.6925039    3.4308124 
H    -6.3608974    0.9403371    3.2845914 
H    -4.5860562    2.6832709    3.0097908 
H    -2.1945245    2.0392132    2.9823743 
H    -3.3072101   -2.1126014    3.5358709 
H    -5.7069239   -1.4628059    3.5511080 
O    -2.1349855    4.6227456   -3.4371471 
O     2.0143129   -4.9741435   -3.8434941 
C    -0.0894080    0.5358919   -2.5023305 
C     0.0383776   -0.9564935   -2.5423641 
C     0.6098358    1.3451100   -1.5621534 
C    -0.5427454   -1.8073907   -1.5605574 
C     1.0062448   -2.8959071   -3.6312471 
C    -1.1496630    2.5225550   -3.4070350 
C     0.4645015   -3.7280839   -2.6421704 
C    -0.4857111    3.3136571   -2.4583225 
C     0.7695462   -1.5229207   -3.6070566 
C    -0.9333982    1.1471109   -3.4548458 
C    -0.3416613   -3.2042699   -1.6320569 
C     0.4168610    2.7457082   -1.5606824 
C     1.8300196   -3.7514234   -4.5631155 
C    -2.0537418    3.4236460   -4.2139800 
C     0.9402717   -5.1386457   -2.9111255 
C    -0.9558007    4.7406616   -2.6344139 
C    -2.3578952   -2.4545675    0.6329027 
C    -2.6445334    0.0864118   -0.8475051 
C     2.6760983   -0.6855950   -0.9944792 
C     2.7238920    1.9185623    0.3680507 
C     4.0613855    2.0479940   -0.0544288 
C    -2.7038993    1.4140554   -0.3861058 
C    -3.7539645   -2.5909759    0.5205961 
C     2.7571090   -1.9661994   -0.4149536 
C    -1.6333452   -3.3970448    1.3977060 
C     2.1990484    2.8523835    1.2880681 
C     3.3920085   -0.4131234   -2.1802795 
C    -3.4737391   -0.3239438   -1.9136448 
C     3.5413357   -2.9640489   -1.0119528 
C    -4.4084295   -3.6667175    1.1407971 
C    -3.5858917    2.3265342   -0.9819019 
C     4.8460417    3.1118767    0.4117891 
C    -4.3683847    0.5859267   -2.4905925 
C     4.1890519   -1.4073127   -2.7616511 
C    -2.2892752   -4.4720037    2.0099457 
C     2.9834396    3.9181145    1.7435068 
C     4.3089689    4.0509390    1.3034464 
C     4.2606416   -2.6849212   -2.1821966 
C    -4.4243075    1.9107317   -2.0258623 
C    -3.6815308   -4.6097419    1.8797887 
H     1.1975533   -0.8600548   -4.3659355 
H    -1.4541380    0.5155205   -4.1814911 
H     0.9570358    3.3755523   -0.8476565 
H    -0.7959120   -3.8675469   -0.8908135 
H    -1.6260909    3.6197403   -5.2232239 
H    -3.0732150    3.0212315   -4.3452793 
H     1.2991995   -3.9208343   -5.5271593 
H     2.8232583   -3.3248495   -4.7893953 
H     1.3328969   -5.6512304   -2.0147812 
H     0.1248712   -5.7663800   -3.3361295 
H    -0.1796638    5.3594932   -3.1389117 
H    -1.2267693    5.2404263   -1.6874404 
H    -4.3392619   -1.8492405   -0.0293941 
H     4.5014758    1.3150186   -0.7356850 
H     2.1802186   -2.1839448    0.4919992 
H    -2.0362303    1.7324730    0.4209360 
H    -0.5484740   -3.2825494    1.5170484 
H     1.1724252    2.7318056    1.6558156 
H     3.3018690    0.5670202   -2.6616540 
H    -3.4032221   -1.3456163   -2.3033674 
H     5.8851216    3.2020292    0.0786676 
H     3.5832080   -3.9639699   -0.5685859 
H    -3.6119947    3.3658233   -0.6404122 
H    -5.4958038   -3.7580916    1.0516855 
H     2.5665217    4.6325195    2.4598915 
H     4.7430180   -1.1901200   -3.6810192 
H    -5.0152011    0.2648415   -3.3138087 
H    -1.7159675   -5.1988041    2.5946838 
H     4.9266979    4.8779414    1.6680559 
H     4.8599993   -3.4699984   -2.6534524 
H    -5.1123750    2.6256808   -2.4885938 
H    -4.1969617   -5.4460563    2.3629327 
