105
Energy =
C     1.1339255    1.0362527    3.2629120 
C    -0.2784027    0.8902214    3.4267450 
C    -0.8868853   -0.3828430    3.4921598 
H    -0.9174306    1.7798946    3.3591175 
Pd    0.2826089   -0.1002640    1.5446374 
P    -1.2953900   -1.0194337    0.0441370 
P     1.8751742    0.2547196   -0.1256595 
H     1.7815096    0.2655818    3.7059037 
H    -0.2475438   -1.2305426    3.7853682 
C     3.0305950    4.8382032    2.5434482 
C     3.7332841    3.7965108    3.1654113 
C     3.1056538    2.5685594    3.4064146 
C     1.7645252    2.3497660    3.0236611 
C     1.0672539    3.4122451    2.3996936 
C     1.6912257    4.6420935    2.1672406 
H     3.5207366    5.7986401    2.3546114 
H     4.7768881    3.9387085    3.4630003 
H     3.6595242    1.7635791    3.8994312 
H     0.0319834    3.2678862    2.0711733 
H     1.1331434    5.4517636    1.6844169 
C    -5.0885395   -1.1970488    3.8877080 
C    -4.1321535   -2.1463259    4.2764933 
C    -2.7686272   -1.8700699    4.1277821 
C    -2.3325869   -0.6332070    3.6012256 
C    -3.3086771    0.3133737    3.2117469 
C    -4.6705682    0.0320492    3.3504896 
H    -6.1560659   -1.4132549    3.9989853 
H    -4.4484009   -3.1085933    4.6910465 
H    -2.0263608   -2.6173992    4.4270716 
H    -3.0051445    1.2736028    2.7861564 
H    -5.4110642    0.7756700    3.0383312 
O    -1.7121597    5.0239509   -2.3030454 
O     1.1982954   -4.8355321   -4.4323209 
C     0.0295979    0.6988860   -2.2605483 
C    -0.0448641   -0.7796071   -2.4956858 
C     0.8871552    1.2829074   -1.2875586 
C    -0.6804617   -1.6647932   -1.5768689 
C     0.5501331   -2.6746015   -3.8860850 
C    -0.9004580    2.8920287   -2.7326390 
C    -0.0749501   -3.5429395   -2.9815572 
C    -0.1070065    3.4515223   -1.7189124 
C     0.5334360   -1.2969002   -3.6718430 
C    -0.8288338    1.5296881   -3.0156305 
C    -0.7195015   -3.0500961   -1.8472436 
C     0.7998679    2.6691362   -1.0090602 
C     1.1999580   -3.5070327   -4.9643780 
C    -1.7798153    3.9869259   -3.2892636 
C     0.1533767   -4.9584583   -3.4616058 
C    -0.4747710    4.9127414   -1.5928898 
C    -2.2271797   -2.4255470    0.7685298 
C    -2.5029573    0.2721844   -0.4551198 
C     2.5532332   -1.2099000   -1.0125524 
C     3.4491279    1.1292854    0.2480945 
C     4.2419822    0.5311471    1.2504394 
C    -3.4614451    0.0107133   -1.4574244 
C    -3.6286629   -2.5389547    0.7305668 
C     2.2794036   -2.5082517   -0.5496009 
C    -1.4670821   -3.4390255    1.3935952 
C     3.9598363    2.2247770   -0.4734551 
C     3.4157308   -1.0299267   -2.1142901 
C    -2.4095167    1.5649377    0.0934423 
C     2.8335958   -3.6205875   -1.2004212 
C    -4.2545175   -3.6692875    1.2770616 
C    -4.3365456    1.0239419   -1.8699617 
C     5.5245697    1.0179551    1.5250077 
C    -3.2735937    2.5821151   -0.3347964 
C     3.9634811   -2.1430210   -2.7621715 
C    -2.0953465   -4.5733540    1.9217134 
C     5.2375475    2.7237713   -0.1776891 
C     6.0219426    2.1223661    0.8162013 
C     3.6671277   -3.4409968   -2.3122392 
C    -4.2455548    2.3081134   -1.3078535 
C    -3.4926908   -4.6928080    1.8573565 
H     1.0225737   -0.6085238   -4.3687925 
H    -1.4778415    1.0722915   -3.7691776 
H     1.4068878    3.1086931   -0.2122166 
H    -1.2131111   -3.7341945   -1.1510885 
H    -1.4042373    4.3407085   -4.2756416 
H    -2.8351985    3.6876739   -3.4092603 
H     0.6300359   -3.4492329   -5.9189983 
H     2.2451962   -3.2143479   -5.1703237 
H     0.4962009   -5.6435392   -2.6655234 
H    -0.7704594   -5.3884196   -3.9099704 
H     0.3096976    5.5659603   -2.0373024 
H    -0.6387333    5.2405436   -0.5504095 
H    -4.2371855   -1.7424493    0.2938855 
H     3.8523244   -0.3287370    1.8088869 
H     1.6172877   -2.6443402    0.3131214 
H    -3.5077758   -0.9770652   -1.9288439 
H    -0.3774179   -3.3352648    1.4647115 
H     3.3775295    2.6829954   -1.2779527 
H     3.6533004   -0.0200101   -2.4661128 
H    -1.6249895    1.7765719    0.8291788 
H     6.1336837    0.5400780    2.2992602 
H     2.6052758   -4.6298098   -0.8427277 
H    -5.0841514    0.8145111   -2.6422436 
H    -5.3464139   -3.7438369    1.2523253 
H     5.6245749    3.5799037   -0.7399568 
H     4.6254473   -1.9985088   -3.6224674 
H    -3.1756701    3.5938517    0.0701194 
H    -1.4956442   -5.3591432    2.3927363 
H     7.0221546    2.5100854    1.0350282 
H     4.0796080   -4.3109682   -2.8321352 
H    -4.9213392    3.1022563   -1.6417622 
H    -3.9872851   -5.5755457    2.2754959 
