105
Energy =
C     1.2522134    0.0881437    3.3952232 
C    -0.0504663   -0.4679429    3.5725312 
C    -0.3888313   -1.7126047    2.9921730 
H    -0.8280909    0.1386584    4.0532355 
Pd    0.2426155   -0.1621992    1.4214057 
P    -1.2599881   -0.8732083   -0.2623835 
P     1.5803143    1.0285072   -0.0959756 
H     2.0845411   -0.6177193    3.2557474 
H     0.4505380   -2.3716404    2.7232510 
C     2.3976865    3.9219879    4.9790581 
C     1.0955768    3.7321272    4.4824474 
C     0.7134728    2.4893257    3.9684364 
C     1.6282086    1.4101525    3.9324171 
C     2.9352977    1.6184310    4.4229549 
C     3.3132090    2.8603256    4.9502876 
H     2.6945652    4.8954629    5.3825768 
H     0.3799403    4.5608252    4.4919433 
H    -0.2930450    2.3601282    3.5537633 
H     3.6591083    0.7969682    4.3913204 
H     4.3297504    3.0007487    5.3318866 
C    -4.1300930   -3.8060907    3.2759723 
C    -4.0367948   -2.4872527    3.7515458 
C    -2.8347677   -1.7826112    3.6497592 
C    -1.6906702   -2.3882807    3.0789005 
C    -1.8019811   -3.7148415    2.6000264 
C    -3.0088792   -4.4162031    2.6950766 
H    -5.0744104   -4.3538502    3.3589533 
H    -4.9096120   -2.0044786    4.2019040 
H    -2.7863139   -0.7555370    4.0229645 
H    -0.9277376   -4.2012478    2.1560208 
H    -3.0708293   -5.4440421    2.3232717 
O     3.3910727   -4.6025178   -2.4796957 
O    -2.6810490    3.7604282   -4.4406245 
C     1.0004807   -0.6011807   -2.3956525 
C    -0.2151188    0.2307521   -2.6579033 
C     1.8665204   -0.3455721   -1.2989291 
C    -1.3483173    0.1587965   -1.7975229 
C    -1.3329421    1.9296085   -3.9715205 
C     2.2358884   -2.6312212   -2.8889534 
C    -2.4456162    1.8612436   -3.1226566 
C     3.0314356   -2.4270457   -1.7497710 
C    -0.2349075    1.0931307   -3.7703212 
C     1.2280790   -1.7278293   -3.2178703 
C    -2.4805597    0.9602422   -2.0578531 
C     2.8706099   -1.2889501   -0.9630219 
C    -1.5764002    3.0268730   -4.9786179 
C     2.6449376   -3.9457328   -3.5107880 
C    -3.4358030    2.9138981   -3.5672218 
C     3.9560479   -3.6159306   -1.6103614 
C    -0.9604289   -2.5644878   -0.9059269 
C    -2.9724408   -0.8100671    0.3996286 
C     3.2449486    1.7122830    0.2981142 
C     0.8401059    2.4908011   -0.9328782 
C    -0.3946184    2.9960043   -0.4894640 
C    -3.9216595   -1.8306557    0.2111199 
C    -1.6882660   -3.0486086   -2.0143899 
C     3.2964507    2.6825751    1.3211309 
C     0.0638903   -3.3536465   -0.3511467 
C     1.5422451    3.1650803   -1.9541555 
C     4.4069001    1.4408917   -0.4554550 
C    -3.3367822    0.3501596    1.1193476 
C     4.4956625    3.3497417    1.6012635 
C    -1.4126666   -4.3209347   -2.5309043 
C    -5.2252571   -1.6737081    0.7046680 
C    -0.9425101    4.1427444   -1.0831419 
C    -4.6440387    0.5093183    1.5946616 
C     5.6049011    2.1092609   -0.1649139 
C     0.3487356   -4.6203395   -0.8806347 
C     0.9891899    4.3063174   -2.5462936 
C    -0.2579882    4.7929940   -2.1184508 
C     5.6539183    3.0597122    0.8654837 
C    -5.5935481   -0.5020608    1.3806534 
C    -0.3963765   -5.1078504   -1.9637987 
H     0.6438259    1.1417826   -4.4216325 
H     0.5576199   -1.9083259   -4.0641755 
H     3.4961216   -1.1342255   -0.0768885 
H    -3.3578491    0.9066340   -1.4071399 
H     1.7911477   -4.5881289   -3.7870007 
H     3.2665360   -3.7827513   -4.4197880 
H    -0.7193811    3.7155268   -5.0879469 
H    -1.8145338    2.6091482   -5.9827414 
H    -4.3044239    2.4574641   -4.0930738 
H    -3.8255977    3.5292936   -2.7364959 
H     3.9956015   -4.0322741   -0.5879263 
H     4.9947410   -3.3541859   -1.9139942 
H    -2.4544332   -2.4215538   -2.4834961 
H    -0.9278672    2.4797623    0.3166078 
H     2.3943247    2.9343184    1.8867065 
H    -3.6460094   -2.7536059   -0.3063325 
H     0.6635459   -2.9547708    0.4733629 
H     2.5186792    2.7951938   -2.2851607 
H     4.3807263    0.7251499   -1.2822137 
H    -2.5885727    1.1311376    1.3026935 
H    -1.9101238    4.5233953   -0.7404083 
H     4.5181341    4.0979441    2.3995466 
H    -5.9548616   -2.4771702    0.5613037 
H    -1.9846935   -4.6956306   -3.3862192 
H     1.5341910    4.8211071   -3.3445285 
H     6.5005503    1.8917262   -0.7562363 
H    -4.9192966    1.4180817    2.1399343 
H     1.1681151   -5.2165310   -0.4682578 
H    -0.6975341    5.6742477   -2.5953010 
H     6.5910867    3.5807594    1.0869762 
H    -6.6153724   -0.3832178    1.7553888 
H    -0.1736499   -6.0968604   -2.3774895 
