105
Energy =
C     0.6687558    1.2756287    3.3042160 
C    -0.7522716    1.1241925    3.2824295 
C    -1.3616213   -0.1480662    3.3545027 
H    -1.3777225    1.9990962    3.0640024 
Pd    0.0648873    0.0095438    1.5709989 
P    -1.2892603   -1.0259951   -0.0643546 
P     1.8750210    0.2598280    0.1185538 
H     1.2511506    0.5468000    3.8865986 
H    -0.7674800   -0.9656418    3.7924506 
C     2.6357059    5.0406534    2.5788205 
C     1.3605875    4.8019851    2.0394660 
C     0.7140941    3.5838489    2.2722523 
C     1.3225997    2.5766878    3.0595429 
C     2.5982505    2.8388023    3.6045936 
C     3.2497236    4.0542285    3.3635134 
H     3.1446451    5.9911912    2.3896341 
H     0.8712623    5.5686904    1.4288523 
H    -0.2662520    3.4038411    1.8172295 
H     3.0815966    2.0778942    4.2251383 
H     4.2425748    4.2299669    3.7892543 
C    -5.5775327   -0.9754957    3.2334273 
C    -4.6827947   -1.8835570    3.8181288 
C    -3.3117120   -1.6050763    3.8354281 
C    -2.8083569   -0.4059688    3.2822727 
C    -3.7223858    0.4985249    2.6931624 
C    -5.0904736    0.2142897    2.6666614 
H    -6.6502924   -1.1937263    3.2151585 
H    -5.0524333   -2.8156879    4.2566869 
H    -2.6169305   -2.3204621    4.2877640 
H    -3.3637871    1.4272281    2.2409969 
H    -5.7816984    0.9247121    2.2016412 
O    -1.3601868    4.8380942   -2.8706416 
O     1.7981392   -5.1229221   -3.8728359 
C     0.3461396    0.5388359   -2.2780006 
C     0.3023642   -0.9530795   -2.4167012 
C     1.0610586    1.1965404   -1.2389464 
C    -0.4559211   -1.7776283   -1.5352094 
C     1.0823610   -2.9350317   -3.5749730 
C    -0.5032260    2.6863477   -3.0295863 
C     0.3365557   -3.7437336   -2.7073394 
C     0.1425640    3.3219095   -1.9575323 
C     1.0374691   -1.5459570   -3.4623669 
C    -0.3965485    1.3078994   -3.2022752 
C    -0.4589693   -3.1786781   -1.7108678 
C     0.9394407    2.5982275   -1.0743760 
C     1.8754657   -3.8346696   -4.4912481 
C    -1.2931087    3.7328255   -3.7799490 
C     0.6277709   -5.1871849   -3.0509312 
C    -0.2344677    4.7859049   -1.9886593 
C    -2.3158260   -2.3847666    0.6208733 
C    -2.4129835    0.2177451   -0.8167137 
C     2.6686851   -1.2564340   -0.5611055 
C     3.3820404    1.1710535    0.6482431 
C     4.0228991    0.6511650    1.7928673 
C    -3.2235931   -0.1222055   -1.9208678 
C    -1.6517683   -3.3495962    1.4106395 
C     2.3333952   -2.5219613   -0.0503154 
C    -3.7000289   -2.5065716    0.4027022 
C     3.9927256    2.2170553   -0.0691675 
C     3.6751213   -1.1451411   -1.5433346 
C    -2.3928817    1.5473219   -0.3553580 
C     2.9717100   -3.6715473   -0.5393212 
C    -2.3508457   -4.4480261    1.9255046 
C    -4.0298891    0.8522940   -2.5232107 
C     5.2540107    1.1667831    2.2124026 
C    -3.1859816    2.5247516   -0.9721621 
C     4.3067155   -2.2952935   -2.0302061 
C    -4.3992539   -3.5994432    0.9362483 
C     5.2160231    2.7463007    0.3696999 
C     5.8492250    2.2230814    1.5056017 
C     3.9505864   -3.5616938   -1.5357635 
C    -4.0138731    2.1743362   -2.0484712 
C    -3.7274034   -4.5776611    1.6821470 
H     1.6190046   -0.9035826   -4.1316725 
H    -0.9352934    0.7935248   -4.0043448 
H     1.4303833    3.0976617   -0.2341091 
H    -1.0457835   -3.8169126   -1.0440396 
H    -0.7827417    4.0179885   -4.7272675 
H    -2.3224578    3.4186031   -4.0238636 
H     1.4445940   -3.8484421   -5.5176892 
H     2.9395344   -3.5478493   -4.5693468 
H     0.8552482   -5.8124291   -2.1689670 
H    -0.2249237   -5.6552021   -3.5925231 
H     0.6065002    5.4112354   -2.3646292 
H    -0.5414513    5.1858527   -1.0053557 
H    -0.5811703   -3.2363749    1.6208992 
H     3.5561837   -0.1707532    2.3495110 
H     1.5590543   -2.6040772    0.7209773 
H    -3.2069494   -1.1418424   -2.3211777 
H    -4.2402353   -1.7443700   -0.1652463 
H     3.5322939    2.6124594   -0.9790973 
H     3.9595895   -0.1598702   -1.9288672 
H    -1.7170707    1.8170700    0.4643670 
H     5.7455047    0.7495699    3.0973926 
H     2.6959897   -4.6555886   -0.1465600 
H    -4.6638525    0.5822793   -3.3742789 
H    -1.8236933   -5.1972792    2.5252417 
H     5.6810907    3.5637783   -0.1909481 
H     5.0812636   -2.2045934   -2.7990211 
H    -3.1420407    3.5638398   -0.6322611 
H    -5.4783273   -3.6800187    0.7704951 
H     6.8081369    2.6342309    1.8373830 
H     4.4302725   -4.4617402   -1.9320411 
H    -4.6341483    2.9375249   -2.5297557 
H    -4.2780642   -5.4318964    2.0892803 
