105
Energy =
C     1.2722450   -0.0721514    3.3881113 
C    -0.0662598    0.3323466    3.5907055 
C    -1.1586486   -0.5184597    3.2494058 
H    -0.2644209    1.3779249    3.8599995 
Pd    0.0866102   -0.1498971    1.4329350 
P    -1.4257894   -1.0525546   -0.1161034 
P     1.6084004    0.5692322   -0.2040055 
H     1.4631219   -1.1484633    3.2469265 
H    -1.0020637   -1.6020739    3.3428598 
C     4.7676820    2.2333576    4.3430726 
C     3.5349856    2.5672534    4.9247656 
C     2.3873033    1.8301932    4.6135083 
C     2.4554257    0.7351469    3.7216066 
C     3.7079230    0.3992499    3.1577448 
C     4.8501058    1.1462419    3.4579791 
H     5.6639799    2.8139006    4.5840847 
H     3.4693482    3.4018459    5.6304548 
H     1.4376207    2.0871709    5.0939671 
H     3.7727936   -0.4422050    2.4582534 
H     5.8082774    0.8836924    2.9988101 
C    -5.2962880    0.6706983    3.2901627 
C    -4.2939176    1.6441780    3.1379166 
C    -2.9470752    1.2716826    3.1281461 
C    -2.5690503   -0.0846682    3.2714683 
C    -3.5874677   -1.0509077    3.4262468 
C    -4.9368396   -0.6765523    3.4363043 
H    -6.3510097    0.9641502    3.2946207 
H    -4.5672116    2.6979234    3.0198729 
H    -2.1791731    2.0410805    2.9885771 
H    -3.3134444   -2.1055828    3.5368751 
H    -5.7096397   -1.4428770    3.5564667 
O    -2.1213369    4.6396031   -3.4226340 
O     1.9895364   -4.9730221   -3.8569073 
C    -0.0904604    0.5425711   -2.5012839 
C     0.0311056   -0.9502472   -2.5449202 
C     0.6128726    1.3464966   -1.5596396 
C    -0.5525277   -1.8009013   -1.5643694 
C     0.9902138   -2.8911205   -3.6388918 
C    -1.1435314    2.5358450   -3.3997470 
C     0.4463215   -3.7232151   -2.6509210 
C    -0.4758780    3.3217296   -2.4492688 
C     0.7588908   -1.5172741   -3.6115959 
C    -0.9326860    1.1596925   -3.4515452 
C    -0.3569284   -3.1984057   -1.6390105 
C     0.4251760    2.7478100   -1.5539082 
C     1.8094995   -3.7479149   -4.5735417 
C    -2.0449068    3.4426542   -4.2032995 
C     0.9161280   -5.1351024   -2.9233854 
C    -0.9408887    4.7509488   -2.6207854 
C    -2.3690427   -2.4448791    0.6294775 
C    -2.6453846    0.1005654   -0.8446338 
C     2.6722320   -0.6933563   -0.9995825 
C     2.7308580    1.9072664    0.3696674 
C     4.0673201    2.0351545   -0.0565305 
C    -2.6980590    1.4274512   -0.3802262 
C    -3.7660594   -2.5734899    0.5196006 
C     2.7498506   -1.9753886   -0.4227402 
C    -1.6481625   -3.3930910    1.3906797 
C     2.2113648    2.8383520    1.2954542 
C     3.3871287   -0.4210003   -2.1860250 
C    -3.4781360   -0.3037054   -1.9103509 
C     3.5298290   -2.9746772   -1.0228898 
C    -4.4250957   -3.6473371    1.1382249 
C    -3.5769305    2.3451697   -0.9726004 
C     4.8563132    3.0947191    0.4121737 
C    -4.3696321    0.6114114   -2.4838493 
C     4.1799596   -1.4166914   -2.7705655 
C    -2.3087113   -4.4659788    2.0015661 
C     3.0001851    3.8995796    1.7537487 
C     4.3247428    4.0307647    1.3102958 
C     4.2482882   -2.6956397   -2.1936681 
C    -4.4188904    1.9354313   -2.0161068 
C    -3.7019075   -4.5960429    1.8735630 
H     1.1887460   -0.8545354   -4.3695380 
H    -1.4562848    0.5322102   -4.1796894 
H     0.9681238    3.3734901   -0.8393136 
H    -0.8131935   -3.8615273   -0.8988711 
H    -1.6172966    3.6404441   -5.2122217 
H    -3.0658858    3.0442412   -4.3350752 
H     1.2771035   -3.9129760   -5.5374620 
H     2.8042453   -3.3248325   -4.7997924 
H     1.3079576   -5.6509862   -2.0285772 
H     0.0976902   -5.7587964   -3.3484844 
H    -0.1630955    5.3684854   -3.1242954 
H    -1.2090757    5.2488625   -1.6720402 
H    -4.3484238   -1.8271163   -0.0272141 
H     4.5031811    1.3043954   -0.7428667 
H     2.1736817   -2.1930136    0.4847038 
H    -2.0277981    1.7410682    0.4265481 
H    -0.5624836   -3.2846669    1.5083672 
H     1.1854291    2.7190302    1.6655419 
H     3.2993155    0.5602858   -2.6654967 
H    -3.4127818   -1.3248019   -2.3024672 
H     5.8945010    3.1837895    0.0759939 
H     3.5691182   -3.9755585   -0.5814539 
H    -3.5979586    3.3837799   -0.6287007 
H    -5.5130898   -3.7327491    1.0507797 
H     2.5874849    4.6116264    2.4749099 
H     4.7330530   -1.1996275   -3.6904893 
H    -5.0192040    0.2950271   -3.3067133 
H    -1.7382628   -5.1970857    2.5837280 
H     4.9460587    4.8540108    1.6773063 
H     4.8444140   -3.4817207   -2.6673445 
H    -5.1045499    2.6544580   -2.4760801 
H    -4.2209038   -5.4308220    2.3555417 
