105
Energy =
C     0.6170493    1.2176506    3.2108538 
C    -0.0584249    0.0258266    3.6062832 
C     0.4975884   -1.2499451    3.3620123 
H    -1.0968436    0.0887752    3.9564187 
Pd    0.2720884   -0.0665342    1.4165707 
P    -0.3673387   -1.6694241   -0.1751571 
P     0.8462298    1.5494003   -0.1836052 
H     1.7157307    1.2007285    3.2186543 
H     1.5755176   -1.3008388    3.1377727 
C    -1.0803699    5.1704236    3.3803046 
C    -1.9279465    4.0521116    3.3004037 
C    -1.3896426    2.7635340    3.2500185 
C     0.0108148    2.5613669    3.2792387 
C     0.8494242    3.6947044    3.3629559 
C     0.3089779    4.9855058    3.4135756 
H    -1.5040254    6.1792659    3.4167773 
H    -3.0139892    4.1890232    3.2711130 
H    -2.0644465    1.9038380    3.1684739 
H     1.9358249    3.5571296    3.3858747 
H     0.9783406    5.8496961    3.4768288 
C    -1.2543419   -5.0135819    4.4623772 
C    -0.2307218   -4.9564502    3.5028262 
C     0.3357218   -3.7272118    3.1551695 
C    -0.1221688   -2.5269235    3.7461879 
C    -1.1513822   -2.5993444    4.7130243 
C    -1.7067109   -3.8325864    5.0706842 
H    -1.6928915   -5.9774124    4.7401911 
H     0.1236267   -5.8740510    3.0228994 
H     1.1276397   -3.6842312    2.3985058 
H    -1.4977061   -1.6894800    5.2139052 
H    -2.4913407   -3.8738488    5.8332468 
O     4.8567625   -1.3256880   -4.2652384 
O    -5.1415806    1.4935177   -3.0137111 
C     0.7360114    0.0955811   -2.6132940 
C    -0.7510904    0.0209161   -2.4471022 
C     1.5810343    0.7826196   -1.6971722 
C    -1.3764132   -0.7834233   -1.4522739 
C    -2.9315828    0.8043224   -3.1692557 
C     2.6889571   -0.6012628   -3.8715546 
C    -3.5431739    0.0372138   -2.1671736 
C     3.5214261    0.0437306   -2.9467200 
C    -1.5484865    0.7762470   -3.3341375 
C     1.3035638   -0.5503114   -3.7311856 
C    -2.7851352   -0.7819866   -1.3321409 
C     2.9813502    0.7700175   -1.8858999 
C    -4.0110775    1.5789797   -3.8869274 
C     3.5656867   -1.3021503   -4.8810626 
C    -5.0304265    0.3086552   -2.2185801 
C     4.9552296   -0.2405206   -3.3364051 
C     0.9571074   -2.5550334   -1.0807044 
C    -1.4937998   -2.9614247    0.4891389 
C     2.1631403    2.6618072    0.4583686 
C    -0.5086417    2.6113406   -0.8034143 
C    -0.3031418    3.4887982   -1.8898920 
C    -2.4149319   -2.5700840    1.4853043 
C     0.6869106   -3.3005330   -2.2486439 
C     2.1085335    4.0634936    0.3477723 
C     2.2802437   -2.4620542   -0.6085979 
C    -1.7888176    2.4931623   -0.2322282 
C     3.2505241    2.0665035    1.1375799 
C    -1.4706507   -4.3044351    0.0646221 
C     3.1375936    4.8526575    0.8848802 
C     1.7282361   -3.9551585   -2.9185298 
C    -3.3238181   -3.4934725    2.0140812 
C    -1.3689242    4.2550207   -2.3778821 
C    -2.3766210   -5.2279397    0.6044019 
C     4.2778740    2.8569457    1.6671529 
C     3.3221119   -3.1033709   -1.2943331 
C    -2.8570522    3.2465906   -0.7388718 
C    -2.6455159    4.1339030   -1.8035631 
C     4.2234211    4.2550973    1.5389576 
C    -3.3077344   -4.8248171    1.5717995 
C     3.0471964   -3.8531511   -2.4462791 
H    -1.0561973    1.3788069   -4.1040079 
H     0.6425841   -1.0617109   -4.4383246 
H     3.6377431    1.3061008   -1.1949359 
H    -3.2744684   -1.4046016   -0.5773259 
H     3.2562507   -2.3423434   -5.0857073 
H     3.5842776   -0.7507016   -5.8482735 
H    -3.7632041    2.6442758   -4.0362519 
H    -4.2301952    1.1315545   -4.8827756 
H    -5.5782568   -0.5441863   -2.6794268 
H    -5.4810989    0.5081371   -1.2300923 
H     5.5878248   -0.5630461   -2.4901479 
H     5.4324043    0.6513529   -3.8015029 
H    -0.3328414   -3.3440579   -2.6471290 
H     0.6822451    3.5550711   -2.3643396 
H     1.2553401    4.5467378   -0.1355715 
H    -2.4068046   -1.5368691    1.8541696 
H     2.4919018   -1.8616801    0.2843867 
H    -1.9466505    1.7884831    0.5906754 
H     3.2874110    0.9759452    1.2552449 
H    -0.7400375   -4.6396559   -0.6762324 
H    -1.2069407    4.9395445   -3.2171742 
H     3.0805987    5.9425725    0.7981536 
H    -4.0299240   -3.1786710    2.7884689 
H     1.5127378   -4.5330280   -3.8234714 
H    -3.8579275    3.1341016   -0.3111099 
H     5.1175697    2.3834081    2.1862524 
H    -2.3491492   -6.2697332    0.2686421 
H     4.3517328   -3.0094583   -0.9348090 
H    -3.4816464    4.7213106   -2.1966633 
H     5.0225900    4.8752727    1.9575649 
H    -4.0109495   -5.5502976    1.9932610 
H     3.8644983   -4.3400542   -2.9872183 
