105
Energy =
C     0.6136009    1.2254311    3.2098096 
C    -0.0641629    0.0355879    3.6072106 
C     0.4906744   -1.2415956    3.3676544 
H    -1.1031833    0.1009973    3.9550874 
Pd    0.2701159   -0.0631589    1.4182684 
P    -0.3664767   -1.6703542   -0.1703904 
P     0.8463930    1.5486861   -0.1851229 
H     1.7122568    1.2070421    3.2195596 
H     1.5689917   -1.2945422    3.1458392 
C    -1.0791047    5.1807355    3.3670279 
C    -1.9278669    4.0634227    3.2856893 
C    -1.3910790    2.7740577    3.2395149 
C     0.0089960    2.5701121    3.2739287 
C     0.8487892    3.7024514    3.3589252 
C     0.3098552    4.9940344    3.4058020 
H    -1.5015459    6.1902045    3.4001945 
H    -3.0135995    4.2017273    3.2518341 
H    -2.0666869    1.9150602    3.1573036 
H     1.9349312    3.5635143    3.3857662 
H     0.9801271    5.8574310    3.4702495 
C    -1.2697297   -4.9997690    4.4731918 
C    -0.2419282   -4.9468455    3.5178937 
C     0.3272695   -3.7193270    3.1686321 
C    -0.1317318   -2.5166384    3.7538893 
C    -1.1648515   -2.5849015    4.7168718 
C    -1.7231408   -3.8163528    5.0760186 
H    -1.7108465   -5.9621724    4.7518875 
H     0.1135544   -5.8663835    3.0425356 
H     1.1222763   -3.6796373    2.4150310 
H    -1.5121163   -1.6731274    5.2136069 
H    -2.5110409   -3.8543135    5.8353774 
O     4.8655768   -1.3325608   -4.2546557 
O    -5.1370222    1.4796203   -3.0302417 
C     0.7411346    0.0886639   -2.6113222 
C    -0.7462438    0.0136062   -2.4478265 
C     1.5842718    0.7783159   -1.6954340 
C    -1.3732821   -0.7884409   -1.4522209 
C    -2.9256855    0.7927927   -3.1777810 
C     2.6964849   -0.6095360   -3.8651481 
C    -3.5390574    0.0278739   -2.1751416 
C     3.5270878    0.0379855   -2.9404257 
C    -1.5421578    0.7654454   -3.3391543 
C     1.3108553   -0.5591570   -3.7269995 
C    -2.7823107   -0.7881628   -1.3358472 
C     2.9848740    0.7662050   -1.8820211 
C    -4.0040364    1.5645031   -3.9002960 
C     3.5751454   -1.3118931   -4.8719350 
C    -5.0265089    0.2971511   -2.2314714 
C     4.9616956   -0.2457122   -3.3275392 
C     0.9601388   -2.5576981   -1.0711459 
C    -1.4940767   -2.9609582    0.4946184 
C     2.1613810    2.6638863    0.4558619 
C    -0.5082006    2.6078370   -0.8104191 
C    -0.3010869    3.4831561   -1.8983135 
C    -2.4181884   -2.5670513    1.4870007 
C     0.6923688   -3.3062520   -2.2377032 
C     2.1052126    4.0652807    0.3424101 
C     2.2824645   -2.4624919   -0.5972425 
C    -1.7896662    2.4893237   -0.2422041 
C     3.2489329    2.0712368    1.1371276 
C    -1.4698524   -4.3049914    0.0734141 
C     3.1332226    4.8567012    0.8781928 
C     1.7353008   -3.9614041   -2.9045597 
C    -3.3293675   -3.4888351    2.0146338 
C    -1.3665605    4.2470935   -2.3905466 
C    -2.3778648   -5.2269644    0.6123821 
C     4.2751985    2.8639340    1.6654377 
C     3.3259936   -3.1041342   -1.2801453 
C    -2.8575664    3.2403065   -0.7531581 
C    -2.6444112    4.1257523   -1.8190830 
C     4.2195644    4.2617144    1.5337490 
C    -3.3123168   -4.8211956    1.5754492 
C     3.0535295   -3.8567016   -2.4308523 
H    -1.0485476    1.3657419   -4.1099480 
H     0.6512856   -1.0721507   -4.4343036 
H     3.6399211    1.3042498   -1.1913176 
H    -3.2730335   -1.4093295   -0.5807545 
H     3.2670171   -2.3529220   -5.0743533 
H     3.5942271   -0.7628573   -5.8405017 
H    -3.7569532    2.6297730   -4.0512345 
H    -4.2196979    1.1146924   -4.8958192 
H    -5.5719726   -0.5576967   -2.6913962 
H    -5.4801474    0.4987886   -1.2447643 
H     5.5932501   -0.5662475   -2.4797365 
H     5.4388900    0.6457343   -3.7934210 
H    -0.3267310   -3.3516248   -2.6376469 
H     0.6853721    3.5495665   -2.3705134 
H     1.2516569    4.5465643   -0.1422444 
H    -2.4105862   -1.5331190    1.8538561 
H     2.4921861   -1.8603283    0.2949938 
H    -1.9487106    1.7860912    0.5817077 
H     3.2869063    0.9809925    1.2572848 
H    -0.7369092   -4.6421440   -0.6642580 
H    -1.2033162    4.9299970   -3.2309146 
H     3.0749639    5.9463744    0.7892848 
H    -4.0382231   -3.1718934    2.7856327 
H     1.5216393   -4.5418228   -3.8083062 
H    -3.8594458    3.1271826   -0.3279096 
H     5.1148769    2.3924562    2.1864395 
H    -2.3494376   -6.2696084    0.2793470 
H     4.3549980   -3.0083083   -0.9193571 
H    -3.4801905    4.7115656   -2.2153003 
H     5.0182431    4.8836154    1.9507329 
H    -4.0174009   -5.5453881    1.9960106 
H     3.8721590   -4.3435661   -2.9698192 
