105
Energy =
C     0.9676810    0.2535368    3.3790398 
C    -0.4537016    0.2130427    3.5560920 
C    -1.1739180   -0.9544394    3.2143732 
H    -1.0011753    1.1349814    3.7887403 
Pd   -0.0021043   -0.1493071    1.4347860 
P    -1.5976008   -0.2669667   -0.2659384 
P     1.8574474   -0.0451746    0.0204350 
H     1.5212653   -0.6814856    3.5416177 
H    -0.5911688   -1.8866111    3.1362020 
C     3.4025285    3.8002888    3.5427489 
C     3.9708164    2.5318685    3.7283779 
C     3.1664671    1.3863109    3.6917803 
C     1.7752252    1.4850294    3.4658123 
C     1.2152574    2.7725152    3.2813383 
C     2.0191949    3.9151314    3.3217743 
H     4.0310089    4.6962742    3.5702529 
H     5.0473103    2.4311987    3.9016396 
H     3.6177965    0.3983497    3.8329591 
H     0.1420361    2.8788200    3.0848158 
H     1.5686242    4.9023903    3.1747903 
C    -5.4055878   -1.6668367    3.3492280 
C    -4.5268061   -2.6454962    2.8602898 
C    -3.1520559   -2.3930587    2.8244651 
C    -2.6270097   -1.1557306    3.2680280 
C    -3.5258166   -0.1770946    3.7504385 
C    -4.8991511   -0.4344236    3.7930779 
H    -6.4819753   -1.8633386    3.3877355 
H    -4.9129513   -3.6093025    2.5132498 
H    -2.4684851   -3.1609252    2.4460591 
H    -3.1505727    0.7854030    4.1100494 
H    -5.5807654    0.3314980    4.1758994 
O     1.1926349   -5.5620332   -3.1501105 
O    -0.2784536    4.7603940   -4.0073672 
C     0.6518057   -0.9929322   -2.3692759 
C    -0.0044030    0.3467376   -2.5240395 
C     1.5878240   -1.2790075   -1.3338381 
C    -1.0772675    0.7839495   -1.6971154 
C    -0.0484433    2.4742645   -3.6884594 
C     0.8866914   -3.2625208   -3.1951644 
C    -1.0888945    2.9119717   -2.8575064 
C     1.7948558   -3.5473248   -2.1656201 
C     0.4721436    1.1889346   -3.5504972 
C     0.3411326   -1.9863780   -3.3220970 
C    -1.6336578    2.0687580   -1.8895345 
C     2.1763525   -2.5617075   -1.2555912 
C     0.3217631    3.6104677   -4.6112723 
C     0.6752564   -4.5274874   -3.9928744 
C    -1.4023590    4.3460210   -3.2236429 
C     2.1846123   -5.0046469   -2.2819368 
C    -2.0003059   -1.8979999   -0.9893982 
C    -3.1543252    0.5010581    0.3334311 
C     3.3788617   -0.5793090    0.9055029 
C     2.2573860    1.5387062   -0.7999563 
C     1.5582985    2.6988348   -0.4194041 
C    -3.0392801    1.7262405    1.0306980 
C    -1.3855278   -3.0465475   -0.4547792 
C     4.5790068    0.1555105    0.8667653 
C    -2.8266932   -2.0119442   -2.1272667 
C     3.2182092    1.6035444   -1.8318732 
C     3.3002819   -1.7236617    1.7322197 
C    -4.4271735   -0.0680802    0.1484372 
C     5.6863588   -0.2629484    1.6209618 
C    -1.5934553   -4.2990538   -1.0490966 
C    -4.1831194    2.4000610    1.4750096 
C     1.8097837    3.9146312   -1.0709003 
C    -5.5683486    0.6015137    0.6149607 
C     4.4103008   -2.1431835    2.4750588 
C    -3.0496926   -3.2688120   -2.7042863 
C     3.4786943    2.8251869   -2.4650425 
C     2.7717253    3.9797285   -2.0885081 
C     5.6086963   -1.4117426    2.4196945 
C    -5.4522824    1.8405020    1.2600964 
C    -2.4328032   -4.4110583   -2.1673496 
H     1.2888372    0.8357831   -4.1879904 
H    -0.3691035   -1.7490658   -4.1204690 
H     2.9140038   -2.7853104   -0.4797006 
H    -2.4687872    2.4078748   -1.2706013 
H    -0.3865744   -4.7443439   -4.2024664 
H     1.2179077   -4.4830862   -4.9641963 
H     1.4100969    3.7806164   -4.6848792 
H    -0.0717504    3.4366436   -5.6383654 
H    -2.3508018    4.4158480   -3.8027735 
H    -1.4859864    5.0183727   -2.3512091 
H     2.1568109   -5.5523939   -1.3232703 
H     3.2072653   -5.1127558   -2.7090775 
H    -0.7130006   -2.9449075    0.4048282 
H     0.8075962    2.6382924    0.3755515 
H     4.6495257    1.0662119    0.2656938 
H    -2.0451971    2.1532906    1.2163527 
H    -3.2764935   -1.1169314   -2.5712017 
H     3.7457472    0.6969109   -2.1488637 
H     2.3587328   -2.2824407    1.8011003 
H    -4.5321915   -1.0359713   -0.3497919 
H     1.2500087    4.8116407   -0.7885557 
H     6.6118795    0.3209535    1.5866518 
H    -4.0834841    3.3567602    1.9983269 
H    -1.0882172   -5.1855772   -0.6536883 
H     4.2266277    2.8752503   -3.2633914 
H     4.3381296   -3.0354461    3.1055515 
H    -6.5541651    0.1475246    0.4718470 
H    -3.6963118   -3.3565964   -3.5837226 
H     2.9591217    4.9295263   -2.5994071 
H     6.4749030   -1.7336834    3.0066341 
H    -6.3482843    2.3619511    1.6120565 
H    -2.5948479   -5.3900258   -2.6301624 
