105
Energy =
C     0.6832849    1.2448087    3.3130579 
C    -0.7383999    1.0988594    3.2940528 
C    -1.3521743   -0.1717860    3.3566244 
H    -1.3611605    1.9780014    3.0851348 
Pd    0.0699090   -0.0042862    1.5707922 
P    -1.2935390   -1.0205900   -0.0694281 
P     1.8770744    0.2510883    0.1150047 
H     1.2644945    0.5089926    3.8877868 
H    -0.7598357   -0.9952662    3.7858811 
C     2.6591647    5.0109034    2.6179088 
C     1.3834887    4.7794976    2.0766987 
C     0.7344684    3.5607977    2.2992459 
C     1.3408088    2.5458569    3.0781537 
C     2.6172896    2.8004278    3.6248187 
C     3.2713934    4.0163990    3.3937670 
H     3.1698442    5.9621500    2.4371785 
H     0.8958059    5.5523409    1.4725413 
H    -0.2463032    3.3866315    1.8428746 
H     3.0992351    2.0331336    4.2385749 
H     4.2647926    4.1863533    3.8205944 
C    -5.5711588   -0.9838384    3.2379752 
C    -4.6783672   -1.8993653    3.8139584 
C    -3.3063247   -1.6256242    3.8307485 
C    -2.8000232   -0.4238894    3.2860372 
C    -3.7121828    0.4884396    2.7062062 
C    -5.0812521    0.2089212    2.6799994 
H    -6.6446227   -1.1985712    3.2196257 
H    -5.0503015   -2.8336069    4.2460370 
H    -2.6130753   -2.3468884    4.2760400 
H    -3.3513581    1.4195589    2.2608340 
H    -5.7710056    0.9253441    2.2220535 
O    -1.3475462    4.8693199   -2.8222018 
O     1.7647742   -5.0958199   -3.9243077 
C     0.3415487    0.5575288   -2.2739679 
C     0.2912899   -0.9329381   -2.4257025 
C     1.0634863    1.2029777   -1.2321106 
C    -0.4677920   -1.7623136   -1.5494885 
C     1.0598328   -2.9075734   -3.6039812 
C    -0.5010474    2.7152803   -3.0035257 
C     0.3127228   -3.7209726   -2.7418869 
C     0.1523798    3.3386997   -1.9289590 
C     1.0212832   -1.5194052   -3.4785440 
C    -0.4013526    1.3378979   -3.1885485 
C    -0.4773843   -3.1616792   -1.7378978 
C     0.9496236    2.6038422   -1.0554447 
C     1.8462844   -3.8021956   -4.5308360 
C    -1.2889634    3.7719551   -3.7416178 
C     0.5964473   -5.1624445   -3.0997301 
C    -0.2180647    4.8046069   -1.9459141 
C    -2.3225973   -2.3816838    0.6073451 
C    -2.4148027    0.2341618   -0.8070329 
C     2.6620380   -1.2628408   -0.5798311 
C     3.3890531    1.1520123    0.6478428 
C     4.0280287    0.6243998    1.7899188 
C    -3.2313325   -0.0928067   -1.9107229 
C    -1.6592271   -3.3549144    1.3873316 
C     2.3225224   -2.5311489   -0.0788057 
C    -3.7076782   -2.4977855    0.3917475 
C     4.0048004    2.1973343   -0.0663141 
C     3.6657206   -1.1478430   -1.5644455 
C    -2.3866164    1.5597921   -0.3348059 
C     2.9539980   -3.6794270   -0.5795760 
C    -2.3600866   -4.4555540    1.8949760 
C    -4.0353987    0.8904286   -2.5017746 
C     5.2624504    1.1315677    2.2100799 
C    -3.1778626    2.5459065   -0.9400087 
C     4.2903900   -2.2966921   -2.0631873 
C    -4.4086085   -3.5931015    0.9180089 
C     5.2315933    2.7179281    0.3730662 
C     5.8630207    2.1868695    1.5063543 
C     3.9301450   -3.5655907   -1.5782559 
C    -4.0116962    2.2082770   -2.0158403 
C    -3.7376180   -4.5793096    1.6540873 
H     1.6040486   -0.8734429   -4.1433153 
H    -0.9455911    0.8329267   -3.9928804 
H     1.4469947    3.0938715   -0.2134267 
H    -1.0649681   -3.8034393   -1.0751362 
H    -0.7807965    4.0632594   -4.6882506 
H    -2.3206342    3.4646298   -3.9844613 
H     1.4125064   -3.8043583   -5.5561462 
H     2.9114364   -3.5195021   -4.6092752 
H     0.8234727   -5.7970462   -2.2243692 
H    -0.2599377   -5.6213630   -3.6433057 
H     0.6240438    5.4292529   -2.3204833 
H    -0.5187205    5.1976291   -0.9578948 
H    -0.5877285   -3.2465086    1.5954998 
H     3.5570432   -0.1967662    2.3440478 
H     1.5501610   -2.6163149    0.6941521 
H    -3.2211461   -1.1091591   -2.3195006 
H    -4.2471970   -1.7293933   -0.1684459 
H     3.5452621    2.5990029   -0.9739942 
H     3.9533466   -0.1606678   -1.9426841 
H    -1.7060717    1.8195126    0.4842408 
H     5.7523860    0.7085798    3.0931886 
H     2.6750572   -4.6655091   -0.1942735 
H    -4.6735582    0.6305666   -3.3528659 
H    -1.8335828   -5.2111220    2.4873134 
H     5.7007765    3.5347616   -0.1850877 
H     5.0626837   -2.2030205   -2.8339131 
H    -3.1278264    3.5818993   -0.5916077 
H    -5.4883174   -3.6693174    0.7543537 
H     6.8248450    2.5910075    1.8383161 
H     4.4045326   -4.4644101   -1.9835940 
H    -4.6305887    2.9782159   -2.4880661 
H    -4.2896594   -5.4353145    2.0555948 
