105
Energy =
C     1.1714222    0.2782816    3.2754911 
C    -0.1563336   -0.1262330    3.6021801 
C    -0.6341690   -1.4145549    3.2728999 
H    -0.8714997    0.6232963    3.9649314 
Pd    0.0972061   -0.3098963    1.4070872 
P    -1.4178084   -0.9314325   -0.2747960 
P     1.6905107    0.5307115   -0.0942011 
H     1.9486924   -0.4986009    3.2723752 
H     0.1130630   -2.1892450    3.0357619 
C     2.6916914    4.2832268    3.7035610 
C     3.5595970    3.1822752    3.7189255 
C     3.0530643    1.8837804    3.5837082 
C     1.6669067    1.6594349    3.4322759 
C     0.8028476    2.7802850    3.4221303 
C     1.3094067    4.0756925    3.5563794 
H     3.0867737    5.2991313    3.8056967 
H     4.6380560    3.3326051    3.8339934 
H     3.7368341    1.0281698    3.5920322 
H    -0.2755827    2.6377854    3.2885416 
H     0.6258578    4.9309844    3.5400163 
C    -4.5499139   -2.9468812    4.1468303 
C    -4.0765469   -1.8183837    4.8336901 
C    -2.8068209   -1.3036220    4.5509857 
C    -1.9808554   -1.9180452    3.5816638 
C    -2.4641119   -3.0654788    2.9111614 
C    -3.7387061   -3.5689869    3.1841960 
H    -5.5455845   -3.3457273    4.3660087 
H    -4.6975902   -1.3413056    5.5989021 
H    -2.4419890   -0.4373162    5.1124454 
H    -1.8371347   -3.5464476    2.1514897 
H    -4.1041011   -4.4475274    2.6433410 
O     2.7273354   -4.1103024   -4.3854429 
O    -2.5384563    4.8029810   -2.8618502 
C     0.6914170   -0.3109375   -2.6087656 
C    -0.4347572    0.6616945   -2.4343244 
C     1.7414735   -0.4536225   -1.6588578 
C    -1.4791855    0.4698785   -1.4855483 
C    -1.4291096    2.7775552   -3.0854448 
C     1.6565084   -2.1048606   -3.9253326 
C    -2.4376513    2.6027537   -2.1267556 
C     2.6679729   -2.2693482   -2.9693080 
C    -0.4499702    1.8030123   -3.2652723 
C     0.6918440   -1.1113870   -3.7698373 
C    -2.4936658    1.4455605   -1.3518245 
C     2.7453313   -1.4274324   -1.8604128 
C    -1.6388578    4.1214189   -3.7418568 
C     1.8370679   -3.1645415   -4.9851252 
C    -3.3130999    3.8362176   -2.1449576 
C     3.5154489   -3.4500584   -3.3889160 
C    -1.0484495   -2.4422778   -1.2443995 
C    -3.1492517   -1.1069489    0.3170184 
C     3.3856398    0.3802139    0.6044427 
C     1.4774248    2.2654588   -0.6355825 
C     0.4526658    3.0413240   -0.0638222 
C    -4.0503978   -2.0617725   -0.1934334 
C    -0.0536301   -3.3215309   -0.7757797 
C     4.3228373    1.4296576    0.5840084 
C    -1.7140121   -2.7287267   -2.4559049 
C     2.2766446    2.8071932   -1.6652909 
C     3.7294251   -0.8377464    1.2341279 
C    -3.5760481   -0.2381340    1.3450911 
C     5.5904283    1.2527955    1.1602862 
C     0.2754921   -4.4715656   -1.5079942 
C    -5.3634247   -2.1201152    0.2938623 
C     0.2279562    4.3502206   -0.5129239 
C    -4.8906603   -0.2938900    1.8216611 
C     4.9969760   -1.0121222    1.8028908 
C    -1.3950677   -3.8885799   -3.1732825 
C     2.0618119    4.1225825   -2.0949857 
C     1.0380113    4.8939928   -1.5197588 
C     5.9325934    0.0354395    1.7643535 
C    -5.7882251   -1.2342341    1.2939282 
C    -0.3966068   -4.7581854   -2.7041812 
H     0.3503709    1.9314707   -4.0008405 
H    -0.1115387   -0.9812532   -4.5020839 
H     3.5637974   -1.5354235   -1.1432676 
H    -3.3048919    1.3019284   -0.6319932 
H     0.9000071   -3.6852395   -5.2506372 
H     2.2675341   -2.7318682   -5.9164186 
H    -0.7144201    4.7183499   -3.8289923 
H    -2.0739652    4.0059059   -4.7603291 
H    -4.2826332    3.6327312   -2.6533895 
H    -3.5335510    4.2406839   -1.1411206 
H     3.7125892   -4.1656258   -2.5706407 
H     4.4960254   -3.1188174   -3.7990534 
H     0.4796320   -3.0848906    0.1527892 
H    -0.1829441    2.6030456    0.7122507 
H     4.0624824    2.3945474    0.1408802 
H    -3.7310119   -2.7710485   -0.9615110 
H    -2.4602729   -2.0296144   -2.8494805 
H     3.0490405    2.1937859   -2.1424106 
H     2.9949161   -1.6517109    1.2822248 
H    -2.8658580    0.4763989    1.7796237 
H    -0.5866412    4.9433954   -0.0862901 
H     6.3087360    2.0788904    1.1436402 
H    -6.0554848   -2.8668475   -0.1089760 
H     1.0648480   -5.1398020   -1.1494297 
H     2.6862872    4.5436817   -2.8899287 
H     5.2531046   -1.9623912    2.2826562 
H    -5.2080214    0.3822916    2.6213493 
H    -1.9152796   -4.1061853   -4.1120807 
H     0.8607016    5.9168601   -1.8675605 
H     6.9220748   -0.0967931    2.2137310 
H    -6.8136044   -1.2857062    1.6739216 
H    -0.1269889   -5.6483559   -3.2808353 
