105
Energy =
C     1.2648087    0.1043124    3.3901187 
C    -0.0367197   -0.4513857    3.5746212 
C    -0.3773053   -1.6975072    2.9982893 
H    -0.8122787    0.1558743    4.0577953 
Pd    0.2446012   -0.1531035    1.4211162 
P    -1.2611610   -0.8762983   -0.2549289 
P     1.5749119    1.0336330   -0.1058513 
H     2.0962425   -0.6017810    3.2465026 
H     0.4610187   -2.3576799    2.7289224 
C     2.4234805    3.9397940    4.9598503 
C     1.1170073    3.7494023    4.4750247 
C     0.7303078    2.5060958    3.9656813 
C     1.6448097    1.4270045    3.9223927 
C     2.9562437    1.6358558    4.4010309 
C     3.3387929    2.8781803    4.9238870 
H     2.7238102    4.9136125    5.3599760 
H     0.4014070    4.5780442    4.4902720 
H    -0.2800190    2.3765193    3.5605537 
H     3.6797660    0.8143661    4.3637662 
H     4.3586881    3.0189649    5.2962718 
C    -4.1150064   -3.7931499    3.3128362 
C    -4.0216969   -2.4702398    3.7769646 
C    -2.8210877   -1.7648112    3.6644712 
C    -1.6783964   -2.3736599    3.0942343 
C    -1.7899898   -3.7039309    2.6259369 
C    -2.9954969   -4.4062000    2.7317770 
H    -5.0579467   -4.3418214    3.4049389 
H    -4.8934410   -1.9848377    4.2265755 
H    -2.7727257   -0.7344685    4.0285800 
H    -0.9170247   -4.1925181    2.1817665 
H    -3.0576612   -5.4369728    2.3682099 
O     3.3948382   -4.6061588   -2.4612119 
O    -2.7036186    3.7292591   -4.4569762 
C     0.9940310   -0.6107474   -2.3946878 
C    -0.2242528    0.2166274   -2.6589450 
C     1.8622129   -0.3463841   -1.3017258 
C    -1.3554755    0.1466025   -1.7958152 
C    -1.3492280    1.9051382   -3.9798400 
C     2.2337872   -2.6402173   -2.8793492 
C    -2.4601125    1.8384135   -3.1285141 
C     3.0317062   -2.4272360   -1.7434403 
C    -0.2486143    1.0726601   -3.7761808 
C     1.2226578   -1.7415080   -3.2109532 
C    -2.4904601    0.9434138   -2.0585275 
C     2.8699149   -1.2848998   -0.9630389 
C    -1.5977054    2.9959604   -4.9926901 
C     2.6448580   -3.9572594   -3.4944987 
C    -3.4542380    2.8855467   -3.5773292 
C     3.9596466   -3.6129828   -1.5993138 
C    -0.9586219   -2.5704912   -0.8895018 
C    -2.9722460   -0.8141153    0.4106010 
C     3.2385442    1.7245655    0.2799786 
C     0.8289440    2.4892112   -0.9496965 
C    -0.4067084    2.9930114   -0.5073240 
C    -3.9181249   -1.8395888    0.2320846 
C    -1.6883281   -3.0626272   -1.9932166 
C     3.2898832    2.7005515    1.2975578 
C     0.0693495   -3.3538687   -0.3333226 
C     1.5275962    3.1601239   -1.9755718 
C     4.3988586    1.4535285   -0.4762304 
C    -3.3389653    0.3499985    1.1227820 
C     4.4873198    3.3743128    1.5693617 
C    -1.4107630   -4.3370133   -2.5035615 
C    -5.2208989   -1.6839970    0.7282194 
C    -0.9589533    4.1348411   -1.1064133 
C    -4.6455331    0.5077444    1.6004498 
C     5.5951433    2.1284900   -0.1939666 
C     0.3559870   -4.6227412   -0.8565841 
C     0.9702786    4.2965266   -2.5729993 
C    -0.2778217    4.7816527   -2.1460947 
C     5.6439651    3.0850719    0.8307518 
C    -5.5917000   -0.5088901    1.3967793 
C    -0.3908602   -5.1181514   -1.9349539 
H     0.6285533    1.1197316   -4.4297087 
H     0.5506056   -1.9287464   -4.0545225 
H     3.4976193   -1.1229381   -0.0797525 
H    -3.3662388    0.8911471   -1.4056848 
H     1.7921513   -4.6034042   -3.7652158 
H     3.2641351   -3.7979294   -4.4057322 
H    -0.7429553    3.6865486   -5.1074566 
H    -1.8362912    2.5717612   -5.9939927 
H    -4.3223662    2.4233586   -4.0989588 
H    -3.8444891    3.5045922   -2.7495397 
H     4.0029000   -4.0230461   -0.5745002 
H     4.9969030   -3.3505339   -1.9072265 
H    -2.4577370   -2.4403379   -2.4633505 
H    -0.9372656    2.4794601    0.3022268 
H     2.3888505    2.9514519    1.8652839 
H    -3.6404624   -2.7651767   -0.2795329 
H     0.6702742   -2.9489110    0.4872558 
H     2.5046915    2.7914707   -2.3059789 
H     4.3725683    0.7329333   -1.2987689 
H    -2.5932484    1.1351237    1.2983783 
H    -1.9272928    4.5143290   -0.7644514 
H     4.5097429    4.1270720    2.3633396 
H    -5.9478841   -2.4911684    0.5926323 
H    -1.9841039   -4.7178594   -3.3552722 
H     1.5127168    4.8088039   -3.3745883 
H     6.4895022    1.9113272   -0.7873752 
H    -4.9228236    1.4195530    2.1395690 
H     1.1781307   -5.2144735   -0.4432947 
H    -0.7207720    5.6589201   -2.6271297 
H     6.5797103    3.6114131    1.0456468 
H    -6.6127779   -0.3913694    1.7739565 
H    -0.1665781   -6.1087703   -2.3439291 
