105
Energy =
C     0.8773370    0.2106508    3.4029746 
C    -0.5405851    0.0639478    3.5466520 
C    -1.1698766   -1.1386911    3.1513275 
H    -1.1561309    0.9369205    3.7971013 
Pd   -0.0212973   -0.1941562    1.4250580 
P    -1.5678658   -0.3768324   -0.3139579 
P     1.8541735    0.0950146    0.0596266 
H     1.4929025   -0.6878913    3.5474471 
H    -0.5215631   -2.0248128    3.0557741 
C     3.0454889    3.9139373    3.7486633 
C     1.6651104    3.9373122    3.4845859 
C     0.9469995    2.7424088    3.3844139 
C     1.5919277    1.4928064    3.5507399 
C     2.9788534    1.4858808    3.8197338 
C     3.6973208    2.6838654    3.9166466 
H     3.6068416    4.8509345    3.8225909 
H     1.1497166    4.8942565    3.3505670 
H    -0.1241594    2.7781341    3.1542582 
H     3.4956469    0.5284147    3.9460431 
H     4.7722973    2.6541756    4.1227094 
C    -5.3421378   -2.1497356    3.1877223 
C    -4.3885988   -3.0498601    2.6881266 
C    -3.0347971   -2.7002891    2.6831945 
C    -2.6058947   -1.4421582    3.1694792 
C    -3.5794843   -0.5426462    3.6605245 
C    -4.9314856   -0.8972957    3.6725034 
H    -6.4022955   -2.4227287    3.2023586 
H    -4.6999576   -4.0286081    2.3091406 
H    -2.2925787   -3.4070854    2.2962891 
H    -3.2792847    0.4340168    4.0510619 
H    -5.6715452   -0.1922100    4.0636264 
O     1.6827703   -5.3614146   -3.2757333 
O    -0.5507715    4.8410840   -3.8835339 
C     0.7747799   -0.8714501   -2.3825721 
C     0.0222359    0.4189838   -2.5164768 
C     1.7091505   -1.1149795   -1.3347595 
C    -1.0985816    0.7505038   -1.7041513 
C    -0.1568371    2.5700895   -3.6232729 
C     1.1993853   -3.0920326   -3.2641184 
C    -1.2458469    2.9041375   -2.8064303 
C     2.1069783   -3.3356625   -2.2236398 
C     0.4563203    1.3239250   -3.5077988 
C     0.5597970   -1.8581653   -3.3681981 
C    -1.7467745    1.9946519   -1.8754433 
C     2.3934629   -2.3503967   -1.2790382 
C     0.1473348    3.7575686   -4.5047616 
C     1.1017175   -4.3460560   -4.1001200 
C    -1.6580403    4.3209720   -3.1402807 
C     2.6112596   -4.7544741   -2.3714485 
C    -1.8326051   -2.0116942   -1.0907814 
C    -3.1896517    0.2556974    0.2708011 
C     3.3941010   -0.3452933    0.9642434 
C     2.1467248    1.7292706   -0.7057418 
C     1.3504606    2.8195153   -0.3099752 
C    -4.4117251   -0.4027168    0.0443568 
C    -1.1442721   -3.1266843   -0.5751324 
C     4.5302508    0.4858119    0.9804566 
C    -2.6256360   -2.1529309   -2.2491731 
C     3.1228346    1.8999958   -1.7108864 
C     3.3912287   -1.5202303    1.7509509 
C    -3.1814772    1.4665645    1.0016444 
C     5.6510302    0.1327417    1.7481689 
C    -1.2465916   -4.3731656   -1.2084298 
C    -5.6093041    0.1659396    0.5033405 
C     1.5204711    4.0704214   -0.9199812 
C    -4.3815756    2.0396080    1.4388637 
C     4.5150781   -1.8737992    2.5071706 
C    -2.7430030   -3.4053776   -2.8655814 
C     3.3006922    3.1567919   -2.3025008 
C     2.4971134    4.2409848   -1.9109980 
C     5.6503084   -1.0458662    2.5061168 
C    -5.6002091    1.3921510    1.1823010 
C    -2.0533412   -4.5141047   -2.3472468 
H     1.3113138    1.0516769   -4.1346667 
H    -0.1509955   -1.6529871   -4.1749141 
H     3.1315737   -2.5390262   -0.4944033 
H    -2.6188112    2.2519393   -1.2681725 
H     0.0639321   -4.6382168   -4.3370548 
H     1.6566151   -4.2319071   -5.0587640 
H     1.2211747    4.0103061   -4.5470689 
H    -0.2091809    3.5857055   -5.5456103 
H    -2.5954659    4.3371293   -3.7409655 
H    -1.8119898    4.9588962   -2.2517822 
H     2.6077694   -5.3303567   -1.4289505 
H     3.6473306   -4.7707171   -2.7791696 
H    -0.4978989   -3.0008942    0.3011495 
H     0.5888555    2.6767039    0.4638710 
H     4.5389974    1.4198777    0.4121545 
H    -4.4332602   -1.3622175   -0.4800189 
H    -3.1321574   -1.2810180   -2.6777417 
H     3.7274994    1.0473992   -2.0398801 
H     2.4972500   -2.1555069    1.7785662 
H    -2.2265688    1.9622561    1.2194333 
H     0.8856236    4.9121199   -0.6263842 
H     6.5257503    0.7911530    1.7567709 
H    -6.5547534   -0.3572131    0.3277042 
H    -0.6845140   -5.2311493   -0.8269666 
H     4.0600074    3.2889258   -3.0804891 
H     4.5021918   -2.7902997    3.1060946 
H    -4.3650644    2.9862155    1.9891228 
H    -3.3640537   -3.5149438   -3.7608552 
H     2.6210002    5.2175657   -2.3897070 
H     6.5266527   -1.3165045    3.1038242 
H    -6.5398952    1.8349730    1.5279552 
H    -2.1332489   -5.4884760   -2.8402724 
