105
Energy =
C     0.6585323    1.1696005    3.2199468 
C    -0.2148315    0.1080994    3.5984055 
C     0.1419621   -1.2444359    3.3986874 
H    -1.2446181    0.3419704    3.8979145 
Pd    0.1945725   -0.0820552    1.4283961 
P    -0.6139469   -1.5999443   -0.1696948 
P     1.0829157    1.3945603   -0.1630436 
H     1.7390600    0.9786074    3.2791430 
H     1.2072201   -1.4695410    3.2275801 
C    -0.3942421    5.3437990    3.2688447 
C    -1.4038433    4.3728497    3.1525431 
C    -1.0755685    3.0145765    3.1402312 
C     0.2715354    2.5934604    3.2443943 
C     1.2745787    3.5806782    3.3628103 
C     0.9445217    4.9415297    3.3761670 
H    -0.6531350    6.4075177    3.2754404 
H    -2.4513099    4.6796834    3.0648842 
H    -1.8733027    2.2712527    3.0300564 
H     2.3227975    3.2731243    3.4420667 
H     1.7387962    5.6895994    3.4678196 
C    -2.2293286   -4.6607275    4.4715653 
C    -1.1646334   -4.7874664    3.5647953 
C    -0.3970649   -3.6702387    3.2251291 
C    -0.6888465   -2.3990132    3.7714984 
C    -1.7620652   -2.2863060    4.6852551 
C    -2.5201807   -3.4087786    5.0350474 
H    -2.8256877   -5.5374950    4.7437660 
H    -0.9355574   -5.7607921    3.1198207 
H     0.4268677   -3.7696988    2.5090199 
H    -1.9854559   -1.3214694    5.1520679 
H    -3.3375743   -3.3083964    5.7566055 
O     4.7821712   -2.1241363   -4.0324633 
O    -4.7113455    2.2017434   -3.2682091 
C     0.8564234   -0.0723181   -2.5767061 
C    -0.6304840    0.0841370   -2.4784372 
C     1.7567109    0.4966455   -1.6326178 
C    -1.4162629   -0.5957711   -1.5047032 
C    -2.6298927    1.1779925   -3.3126078 
C     2.7322570   -1.0789607   -3.7391979 
C    -3.3967463    0.5324916   -2.3318285 
C     3.6135478   -0.5487808   -2.7870871 
C    -1.2616271    0.9354554   -3.4113187 
C     1.3657876   -0.8178151   -3.6600771 
C    -2.8120202   -0.3767159   -1.4518168 
C     3.1457286    0.2700796   -1.7597918 
C    -3.5438010    2.0959078   -4.0889404 
C     3.5340847   -1.9212915   -4.7016813 
C    -4.8206983    1.0274779   -2.4570883 
C     5.0033616   -1.0503727   -3.1115874 
C     0.5984765   -2.6942825   -1.0012697 
C    -1.9532608   -2.6920739    0.4563565 
C     2.5255499    2.3042011    0.5262425 
C    -0.0647434    2.6388513   -0.8578020 
C     0.3221163    3.4566982   -1.9413538 
C    -2.8512818   -2.1449601    1.3988361 
C     0.2691799   -3.4122800   -2.1713004 
C     2.6895671    3.6961422    0.4009511 
C     1.8988947   -2.7929896   -0.4707496 
C    -1.3737088    2.7243469   -0.3494204 
C     3.4799798    1.5614659    1.2580524 
C    -2.1125582   -4.0325249    0.0538358 
C     3.8034396    4.3282529    0.9753474 
C     1.2276711   -4.2278170   -2.7859665 
C    -3.9132072   -2.9097994    1.8945100 
C    -0.5911174    4.3666064   -2.4884029 
C    -3.1719939   -4.7976710    0.5607729 
C     4.5927103    2.1950447    1.8246312 
C     2.8606827   -3.5956963   -1.1013843 
C    -2.2906229    3.6211577   -0.9154395 
C    -1.8970333    4.4487387   -1.9765478 
C     4.7574754    3.5830611    1.6812171 
C    -4.0768294   -4.2381174    1.4736458 
C     2.5256050   -4.3161681   -2.2561094 
H    -0.6484974    1.4405838   -4.1643190 
H     0.6649948   -1.2370714   -4.3891546 
H     3.8466172    0.7147838   -1.0479721 
H    -3.4246855   -0.9022041   -0.7133806 
H     3.0812057   -2.9077919   -4.9053308 
H     3.6725388   -1.3976366   -5.6745450 
H    -3.1278837    3.1073602   -4.2389930 
H    -3.7853289    1.6689137   -5.0885428 
H    -5.4716220    0.2610698   -2.9353866 
H    -5.2801625    1.3104669   -1.4933617 
H     5.5451229   -1.4492590   -2.2353531 
H     5.6275668   -0.2475705   -3.5647947 
H    -0.7275819   -3.3097858   -2.6145570 
H     1.3272166    3.3652650   -2.3679608 
H     1.9406481    4.2959791   -0.1230398 
H    -2.7058920   -1.1164221    1.7518689 
H     2.1603600   -2.2153467    0.4241186 
H    -1.6752150    2.0647684    0.4706679 
H     3.3451994    0.4800214    1.3874910 
H    -1.4064807   -4.4897492   -0.6443578 
H    -0.2878828    5.0048974   -3.3249233 
H     3.9162251    5.4128035    0.8768978 
H    -4.6001818   -2.4755161    2.6272380 
H     0.9664683   -4.7832670   -3.6929071 
H    -3.3165492    3.6670500   -0.5376015 
H     5.3281631    1.6077821    2.3841652 
H    -3.2856926   -5.8390442    0.2423653 
H     3.8761663   -3.6510392   -0.6965329 
H    -2.6152440    5.1486903   -2.4158022 
H     5.6237973    4.0810988    2.1283808 
H    -4.9003788   -4.8406118    1.8701601 
H     3.2826350   -4.9297243   -2.7541933 
