105
Energy =
C     1.2410775    0.0782393    3.3993987 
C    -0.0597576   -0.4842256    3.5702222 
C    -0.3907839   -1.7279308    2.9837209 
H    -0.8415940    0.1169997    4.0508457 
Pd    0.2389824   -0.1677937    1.4212472 
P    -1.2555971   -0.8775036   -0.2703163 
P     1.5764585    1.0346418   -0.0865662 
H     2.0769249   -0.6233895    3.2596366 
H     0.4522746   -2.3821434    2.7145913 
C     2.3647314    3.9107705    5.0019437 
C     1.0645768    3.7167148    4.5018348 
C     0.6895735    2.4742799    3.9817530 
C     1.6095736    1.3996823    3.9431032 
C     2.9146026    1.6121690    4.4373411 
C     3.2854488    2.8536802    4.9705635 
H     2.6559776    4.8838787    5.4104231 
H     0.3449029    4.5418843    4.5133589 
H    -0.3154595    2.3419850    3.5644946 
H     3.6423845    0.7942926    4.4039437 
H     4.3005293    2.9974238    5.3548036 
C    -4.1243601   -3.8381213    3.2440823 
C    -4.0382710   -2.5211473    3.7261610 
C    -2.8387711   -1.8111277    3.6322095 
C    -1.6900363   -2.4094681    3.0628982 
C    -1.7940149   -3.7343364    2.5777349 
C    -2.9984757   -4.4409364    2.6646157 
H    -5.0666819   -4.3901795    3.3210804 
H    -4.9148403   -2.0439425    4.1751564 
H    -2.7959611   -0.7856215    4.0104022 
H    -0.9159785   -4.2152945    2.1352760 
H    -3.0549413   -5.4670949    2.2873371 
O     3.4159043   -4.5791364   -2.4888152 
O    -2.6798367    3.7719618   -4.4291369 
C     1.0102809   -0.5871109   -2.3951494 
C    -0.2076208    0.2414116   -2.6574848 
C     1.8719858   -0.3329654   -1.2946534 
C    -1.3432412    0.1610605   -1.8010645 
C    -1.3273493    1.9429078   -3.9660574 
C     2.2547465   -2.6104012   -2.8932967 
C    -2.4424196    1.8663241   -3.1210289 
C     3.0461080   -2.4080937   -1.7508670 
C    -0.2270640    1.1091933   -3.7657207 
C     1.2445712   -1.7093701   -3.2214529 
C    -2.4774627    0.9599092   -2.0608599 
C     2.8786667   -1.2739424   -0.9597849 
C    -1.5714474    3.0447450   -4.9680371 
C     2.6705182   -3.9207613   -3.5194217 
C    -3.4348030    2.9179091   -3.5632862 
C     3.9747045   -3.5941455   -1.6137092 
C    -0.9473834   -2.5647991   -0.9201890 
C    -2.9703131   -0.8240511    0.3866896 
C     3.2369492    1.7236382    0.3158318 
C     0.8333148    2.4979136   -0.9193239 
C    -0.4049501    2.9962438   -0.4780432 
C    -3.9147701   -1.8477184    0.1911668 
C    -1.6702104   -3.0469970   -2.0327649 
C     3.2806910    2.6906799    1.3423065 
C     0.0783267   -3.3523958   -0.3657715 
C     1.5366974    3.1799070   -1.9346142 
C     4.4026528    1.4598417   -0.4346066 
C    -3.3415729    0.3317502    1.1099901 
C     4.4759139    3.3623598    1.6285897 
C    -1.3882590   -4.3160534   -2.5538783 
C    -5.2203524   -1.6983072    0.6818085 
C    -0.9547543    4.1441060   -1.0677831 
C    -4.6509523    0.4837239    1.5817995 
C     5.5967291    2.1324265   -0.1376645 
C     0.3690910   -4.6160103   -0.8993850 
C     0.9817295    4.3222126   -2.5228761 
C    -0.2687711    4.8021828   -2.0971497 
C     5.6379849    3.0797690    0.8959241 
C    -5.5955059   -0.5309067    1.3613536 
C    -0.3710273   -5.1017457   -1.9867634 
H     0.6534625    1.1641369   -4.4140986 
H     0.5774030   -1.8886998   -4.0705992 
H     3.5009205   -1.1206524   -0.0711112 
H    -3.3563475    0.9002905   -1.4128411 
H     1.8199602   -4.5651177   -3.8009893 
H     3.2942896   -3.7516488   -4.4258136 
H    -0.7163319    3.7366650   -5.0713438 
H    -1.8055616    2.6316004   -5.9750012 
H    -4.2998160    2.4612782   -4.0948998 
H    -3.8298576    3.5272887   -2.7306325 
H     4.0127631   -4.0146180   -0.5929060 
H     5.0133269   -3.3273452   -1.9131527 
H    -2.4376115   -2.4209892   -2.5012589 
H    -0.9394470    2.4737535    0.3231432 
H     2.3755297    2.9364558    1.9056854 
H    -3.6338165   -2.7673538   -0.3293228 
H     0.6742642   -2.9546178    0.4619584 
H     2.5155969    2.8151602   -2.2640297 
H     4.3824521    0.7468050   -1.2638633 
H    -2.5970496    1.1148885    1.2990037 
H    -1.9249306    4.5195814   -0.7265954 
H     4.4922618    4.1083737    2.4290664 
H    -5.9461424   -2.5042728    0.5332157 
H    -1.9560530   -4.6890866   -3.4127335 
H     1.5279005    4.8431801   -3.3162904 
H     6.4953517    1.9207875   -0.7266112 
H    -4.9317511    1.3894275    2.1293358 
H     1.1892506   -5.2110370   -0.4868820 
H    -0.7097801    5.6842692   -2.5710934 
H     6.5721278    3.6040702    1.1224658 
H    -6.6188114   -0.4179523    1.7338687 
H    -0.1435470   -6.0882718   -2.4037904 
