105
Energy =
C     1.1475641    1.0178361    3.2636904 
C    -0.2648845    0.8770213    3.4308694 
C    -0.8786361   -0.3937060    3.4925976 
H    -0.9003810    1.7696377    3.3688568 
Pd    0.2864490   -0.1082073    1.5430555 
P    -1.3000703   -1.0131648    0.0433300 
P     1.8763530    0.2459294   -0.1297038 
H     1.7931838    0.2426116    3.7015858 
H    -0.2421858   -1.2454113    3.7804313 
C     3.0581906    4.8147470    2.5545525 
C     3.7583536    3.7674094    3.1698807 
C     3.1262546    2.5411099    3.4075605 
C     1.7830085    2.3296477    3.0280589 
C     1.0883300    3.3977808    2.4108920 
C     1.7168421    4.6259398    2.1816928 
H     3.5518250    5.7738991    2.3683033 
H     4.8034464    3.9039001    3.4649045 
H     3.6782458    1.7316898    3.8953769 
H     0.0513731    3.2593610    2.0851367 
H     1.1607490    5.4399681    1.7039315 
C    -5.0828122   -1.1903887    3.8974234 
C    -4.1296167   -2.1452514    4.2803177 
C    -2.7652731   -1.8746649    4.1286202 
C    -2.3251474   -0.6380145    3.6049905 
C    -3.2980609    0.3142761    3.2215228 
C    -4.6608162    0.0386354    3.3631918 
H    -6.1509880   -1.4022760    4.0107618 
H    -4.4490184   -3.1074364    4.6926391 
H    -2.0255546   -2.6263354    4.4233300 
H    -2.9914120    1.2745992    2.7983895 
H    -5.3988131    0.7866106    3.0555527 
O    -1.6925903    5.0422336   -2.2778592 
O     1.1617185   -4.8231469   -4.4559208 
C     0.0273613    0.7081297   -2.2577406 
C    -0.0551255   -0.7690091   -2.4987587 
C     0.8905629    1.2839184   -1.2848204 
C    -0.6928037   -1.6548473   -1.5819814 
C     0.5265806   -2.6611699   -3.8986004 
C    -0.8932459    2.9077877   -2.7181094 
C    -0.1008004   -3.5300840   -2.9962259 
C    -0.0939521    3.4592139   -1.7045732 
C     0.5176073   -1.2843085   -3.6784999 
C    -0.8292288    1.5462579   -3.0068105 
C    -0.7397816   -3.0387471   -1.8580942 
C     0.8110235    2.6694186   -1.0005025 
C     1.1692053   -3.4923422   -4.9821573 
C    -1.7686537    4.0093425   -3.2678009 
C     0.1187280   -4.9447044   -3.4829620 
C    -0.4536608    4.9218525   -1.5718929 
C    -2.2368174   -2.4176653    0.7645217 
C    -2.5026073    0.2864130   -0.4472147 
C     2.5449598   -1.2181118   -1.0247545 
C     3.4555111    1.1109554    0.2441556 
C     4.2476052    0.5046603    1.2421813 
C    -3.4651549    0.0335905   -1.4478491 
C    -3.6389809   -2.5237137    0.7304570 
C     2.2653147   -2.5171638   -0.5672905 
C    -1.4800398   -3.4377811    1.3827674 
C     3.9700085    2.2070425   -0.4738226 
C     3.4059911   -1.0374759   -2.1275290 
C    -2.4012216    1.5765266    0.1061149 
C     2.8120091   -3.6293322   -1.2247097 
C    -4.2689356   -3.6533387    1.2736968 
C    -4.3363914    1.0527311   -1.8539497 
C     5.5330142    0.9842489    1.5162890 
C    -3.2614787    2.5996164   -0.3156898 
C     3.9462943   -2.1503942   -2.7819561 
C    -2.1124801   -4.5712778    1.9076837 
C     5.2507019    2.6986503   -0.1785652 
C     6.0341887    2.0893376    0.8112246 
C     3.6439175   -3.4489008   -2.3375997 
C    -4.2375471    2.3341967   -1.2870082 
C    -3.5105894   -4.6833961    1.8469377 
H     1.0085095   -0.5955233   -4.3738014 
H    -1.4828593    1.0951150   -3.7601244 
H     1.4224876    3.1027661   -0.2036490 
H    -1.2350024   -3.7232450   -1.1634817 
H    -1.3943623    4.3649673   -4.2540063 
H    -2.8259356    3.7159834   -3.3856364 
H     0.5973660   -3.4273581   -5.9351537 
H     2.2154965   -3.2042812   -5.1893199 
H     0.4600176   -5.6348952   -2.6906309 
H    -0.8084886   -5.3679911   -3.9306826 
H     0.3328362    5.5727390   -2.0161343 
H    -0.6127402    5.2464277   -0.5276456 
H    -4.2447878   -1.7221101    0.2993736 
H     3.8551070   -0.3559384    1.7975306 
H     1.6047017   -2.6537999    0.2964827 
H    -3.5176853   -0.9520634   -1.9230408 
H    -0.3896415   -3.3399784    1.4510236 
H     3.3882558    2.6715045   -1.2751326 
H     3.6484147   -0.0271909   -2.4749503 
H    -1.6135052    1.7814565    0.8403483 
H     6.1413158    0.5002971    2.2874000 
H     2.5790673   -4.6389996   -0.8712799 
H    -5.0870914    0.8500658   -2.6250362 
H    -5.3612743   -3.7221466    1.2520343 
H     5.6407471    3.5552282   -0.7380615 
H     4.6071659   -2.0053080   -3.6429968 
H    -3.1574138    3.6092477    0.0929211 
H    -1.5153700   -5.3621308    2.3734946 
H     7.0366252    2.4714433    1.0297492 
H     4.0502463   -4.3185645   -2.8628289 
H    -4.9105140    3.1328897   -1.6157189 
H    -4.0084031   -5.5655737    2.2624308 
