105
Energy =
C     0.6718447    1.2674230    3.3068492 
C    -0.7503524    1.1277525    3.2817508 
C    -1.3703572   -0.1395025    3.3515249 
H    -1.3680831    2.0079156    3.0625194 
Pd    0.0611725    0.0075574    1.5713342 
P    -1.2983469   -1.0143405   -0.0683027 
P     1.8773718    0.2433793    0.1238585 
H     1.2469146    0.5333387    3.8898926 
H    -0.7839330   -0.9622160    3.7902571 
C     2.6707016    5.0171323    2.5889669 
C     1.3947598    4.7892820    2.0468863 
C     0.7381212    3.5760548    2.2769583 
C     1.3370471    2.5630999    3.0641883 
C     2.6140317    2.8141115    3.6113916 
C     3.2756446    4.0245815    3.3730090 
H     3.1872073    5.9641373    2.4025996 
H     0.9127081    5.5605844    1.4362753 
H    -0.2428536    3.4045612    1.8200176 
H     3.0903758    2.0483863    4.2314123 
H     4.2692751    4.1916628    3.8004056 
C    -5.5923673   -0.9332017    3.2182540 
C    -4.7065096   -1.8487752    3.8047682 
C    -3.3333167   -1.5811852    3.8261236 
C    -2.8189391   -0.3855803    3.2755213 
C    -3.7241248    0.5266881    2.6847355 
C    -5.0943251    0.2532361    2.6540131 
H    -6.6667207   -1.1431060    3.1964288 
H    -5.0847865   -2.7781664    4.2417673 
H    -2.6454581   -2.3025472    4.2795532 
H    -3.3569046    1.4530095    2.2345979 
H    -5.7785874    0.9694111    2.1875225 
O    -1.3089124    4.8532040   -2.8696686 
O     1.7604210   -5.1353462   -3.8740736 
C     0.3571143    0.5381779   -2.2760611 
C     0.3004206   -0.9532008   -2.4161807 
C     1.0752665    1.1886607   -1.2347012 
C    -0.4680669   -1.7717542   -1.5379390 
C     1.0653128   -2.9409564   -3.5746924 
C    -0.4714187    2.6937453   -3.0278512 
C     0.3090316   -3.7436995   -2.7106064 
C     0.1776343    3.3227217   -1.9538957 
C     1.0332718   -1.5516675   -3.4602604 
C    -0.3767013    1.3145195   -3.2013220 
C    -0.4838121   -3.1724854   -1.7155114 
C     0.9657250    2.5912391   -1.0692895 
C     1.8523839   -3.8468506   -4.4900087 
C    -1.2497972    3.7478998   -3.7794898 
C     0.5870489   -5.1893814   -3.0557232 
C    -0.1859337    4.7901073   -1.9849306 
C    -2.3385558   -2.3647987    0.6127222 
C    -2.4089412    0.2403236   -0.8220269 
C     2.6591688   -1.2791819   -0.5554400 
C     3.3909613    1.1405263    0.6589419 
C     4.0243500    0.6125770    1.8040604 
C    -3.2199563   -0.0909768   -1.9285185 
C    -1.6850193   -3.3364401    1.4029175 
C     2.3099124   -2.5423739   -0.0482539 
C    -3.7230967   -2.4745044    0.3903467 
C     4.0122660    2.1831395   -0.0542232 
C     3.6700507   -1.1757660   -1.5339787 
C    -2.3777575    1.5691968   -0.3592277 
C     2.9387952   -3.6971437   -0.5372478 
C    -2.3948373   -4.4298158    1.9138239 
C    -4.0157760    0.8915286   -2.5317899 
C     5.2586619    1.1167466    2.2280812 
C    -3.1602618    2.5545367   -0.9769620 
C     4.2922887   -2.3310398   -2.0207812 
C    -4.4330624   -3.5623979    0.9198675 
C     5.2388322    2.7009938    0.3891470 
C     5.8647108    2.1695977    1.5253107 
C     3.9222680   -3.5948658   -1.5299662 
C    -3.9887820    2.2128658   -2.0555962 
C    -3.7716547   -4.5475684    1.6659574 
H     1.6229413   -0.9139309   -4.1268817 
H    -0.9181635    0.8055768   -4.0050212 
H     1.4588936    3.0856537   -0.2273675 
H    -1.0782739   -3.8060578   -1.0510253 
H    -0.7344327    4.0288560   -4.7253627 
H    -2.2814077    3.4433944   -4.0261635 
H     1.4246415   -3.8546386   -5.5178168 
H     2.9194700   -3.5703923   -4.5642605 
H     0.8056957   -5.8183466   -2.1741754 
H    -0.2686386   -5.6479997   -3.6006353 
H     0.6617061    5.4078756   -2.3584204 
H    -0.4916640    5.1922788   -1.0021513 
H    -0.6141084   -3.2326472    1.6164031 
H     3.5492328   -0.2066753    2.3575188 
H     1.5320308   -2.6184876    0.7200711 
H    -3.2118389   -1.1103486   -2.3297633 
H    -4.2551271   -1.7068296   -0.1779423 
H     3.5575056    2.5848605   -0.9642340 
H     3.9652825   -0.1925730   -1.9167106 
H    -1.7015544    1.8318624    0.4624656 
H     5.7442359    0.6932972    3.1133738 
H     2.6521010   -4.6792246   -0.1474486 
H    -4.6499316    0.6283027   -3.3848397 
H    -1.8758240   -5.1843966    2.5139773 
H     5.7121130    3.5160443   -0.1681483 
H     5.0703943   -2.2463655   -2.7866816 
H    -3.1074437    3.5928575   -0.6359718 
H    -5.5122779   -3.6336213    0.7507968 
H     6.8264675    2.5714372    1.8602450 
H     4.3947649   -4.4987748   -1.9260937 
H    -4.6009041    2.9822104   -2.5375128 
H    -4.3306497   -5.3979745    2.0697382 
