105
Energy =
C     0.9863818    0.2502046    3.3732922 
C    -0.4343658    0.2192784    3.5572738 
C    -1.1639903   -0.9436340    3.2198759 
H    -0.9743261    1.1450581    3.7923247 
Pd    0.0048270   -0.1468029    1.4339115 
P    -1.5994787   -0.2591373   -0.2586106 
P     1.8578613   -0.0523657    0.0111062 
H     1.5343371   -0.6885228    3.5337389 
H    -0.5876083   -1.8795448    3.1393822 
C     3.4447169    3.7809527    3.5326434 
C     4.0044221    2.5091808    3.7212950 
C     3.1926973    1.3688033    3.6850562 
C     1.8024595    1.4762997    3.4572624 
C     1.2512586    2.7670293    3.2692461 
C     2.0625637    3.9044441    3.3088939 
H     4.0790022    4.6728615    3.5595965 
H     5.0799548    2.4017805    3.8964898 
H     3.6374183    0.3781077    3.8280386 
H     0.1791037    2.8797385    3.0703504 
H     1.6187581    4.8943418    3.1590958 
C    -5.3993125   -1.6287231    3.3780442 
C    -4.5293481   -2.6138988    2.8864226 
C    -3.1532389   -2.3702143    2.8427386 
C    -2.6180246   -1.1353790    3.2811027 
C    -3.5080824   -0.1500288    3.7661065 
C    -4.8827384   -0.3986666    3.8167622 
H    -6.4767386   -1.8182086    3.4223502 
H    -4.9234107   -3.5759917    2.5435455 
H    -2.4765370   -3.1431213    2.4622425 
H    -3.1248775    0.8109297    4.1214271 
H    -5.5574210    0.3721376    4.2020603 
O     1.1493357   -5.5745393   -3.1400383 
O    -0.2811789    4.7512971   -4.0229963 
C     0.6364795   -1.0004127   -2.3705359 
C    -0.0145425    0.3417103   -2.5258635 
C     1.5764669   -1.2882021   -1.3391303 
C    -1.0820552    0.7854354   -1.6954958 
C    -0.0564511    2.4656036   -3.6969803 
C     0.8554293   -3.2736212   -3.1909767 
C    -1.0922764    2.9092895   -2.8634330 
C     1.7677924   -3.5599147   -2.1655960 
C     0.4606052    1.1790598   -3.5569107 
C     0.3157607   -1.9950655   -3.3187761 
C    -1.6353730    2.0712135   -1.8900567 
C     2.1592565   -2.5734997   -1.2606438 
C     0.3138081    3.5976092   -4.6249028 
C     0.6326985   -4.5400328   -3.9833043 
C    -1.4032842    4.3428144   -3.2336304 
C     2.1492336   -5.0196269   -2.2794017 
C    -2.0137566   -1.8902834   -0.9752726 
C    -3.1492105    0.5182494    0.3467897 
C     3.3819240   -0.5895984    0.8897013 
C     2.2591891    1.5281975   -0.8150985 
C     1.5643639    2.6913382   -0.4359751 
C    -3.0241044    1.7444038    1.0405850 
C    -1.4017371   -3.0402792   -0.4406194 
C     4.5830769    0.1433181    0.8462857 
C    -2.8469487   -2.0034878   -2.1082417 
C     3.2169287    1.5873102   -1.8502265 
C     3.3049978   -1.7340806    1.7164323 
C    -4.4260550   -0.0441192    0.1688177 
C     5.6932424   -0.2777675    1.5948573 
C    -1.6195827   -4.2935838   -1.0296892 
C    -4.1621306    2.4258860    1.4881475 
C     1.8169803    3.9044518   -1.0920289 
C    -5.5613888    0.6333712    0.6382051 
C     4.4178659   -2.1563621    2.4534306 
C    -3.0798338   -3.2610242   -2.6798958 
C     3.4786650    2.8063025   -2.4879795 
C     2.7761332    3.9639292   -2.1126173 
C     5.6174498   -1.4273069    2.3926624 
C    -5.4354311    1.8733748    1.2795421 
C    -2.4660050   -4.4047916   -2.1426795 
H     1.2735236    0.8211813   -4.1965996 
H    -0.3977425   -1.7565330   -4.1138768 
H     2.9003949   -2.7984668   -0.4885074 
H    -2.4669037    2.4150051   -1.2688441 
H    -0.4315164   -4.7517445   -4.1860114 
H     1.1698965   -4.5018814   -4.9579086 
H     1.4024057    3.7643334   -4.7025894 
H    -0.0834408    3.4214735   -5.6501572 
H    -2.3536672    4.4131737   -3.8095009 
H    -1.4819496    5.0184915   -2.3632840 
H     2.1240476   -5.5640082   -1.3187389 
H     3.1688279   -5.1346550   -2.7120096 
H    -0.7236934   -2.9394381    0.4147473 
H     0.8158052    2.6351551    0.3613145 
H     4.6523377    1.0545806    0.2459194 
H    -2.0267853    2.1662314    1.2207598 
H    -3.2945107   -1.1075530   -2.5525693 
H     3.7414085    0.6784072   -2.1657892 
H     2.3626557   -2.2908977    1.7899214 
H    -4.5387146   -1.0128685   -0.3260653 
H     1.2601649    4.8037253   -0.8110220 
H     6.6195817    0.3045955    1.5566892 
H    -4.0547262    3.3830200    2.0091243 
H    -1.1167113   -5.1814541   -0.6342843 
H     4.2239798    2.8518527   -3.2890459 
H     4.3469802   -3.0488792    3.0837148 
H    -6.5504356    0.1848567    0.5001905 
H    -3.7318817   -3.3482273   -3.5553766 
H     2.9648416    4.9117891   -2.6266328 
H     6.4859737   -1.7515409    2.9749016 
H    -6.3269580    2.4011795    1.6334056 
H    -2.6357899   -5.3843784   -2.6013999 
