105
Energy =
C     0.6125083    1.2262795    3.2064711 
C    -0.0655293    0.0370327    3.6055485 
C     0.4881438   -1.2407736    3.3674118 
H    -1.1042817    0.1035416    3.9539820 
Pd    0.2686383   -0.0619223    1.4157040 
P    -0.3679682   -1.6701048   -0.1721377 
P     0.8479828    1.5481283   -0.1876833 
H     1.7111742    1.2077762    3.2161231 
H     1.5661096   -1.2950502    3.1444107 
C    -1.0790953    5.1821944    3.3628611 
C    -1.9282290    4.0649749    3.2841996 
C    -1.3917989    2.7754447    3.2383692 
C     0.0083114    2.5711941    3.2704275 
C     0.8484670    3.7034731    3.3526751 
C     0.3099055    4.9952361    3.3989509 
H    -1.5012693    6.1917648    3.3963404 
H    -3.0139974    4.2034632    3.2522285 
H    -2.0678086    1.9165507    3.1583231 
H     1.9346093    3.5642760    3.3780589 
H     0.9804830    5.8585652    3.4611137 
C    -1.2702348   -4.9970754    4.4822813 
C    -0.2405755   -4.9461041    3.5288867 
C     0.3273653   -3.7189830    3.1761828 
C    -0.1347531   -2.5147580    3.7559091 
C    -1.1706112   -2.5809925    4.7161278 
C    -1.7273756   -3.8119937    5.0790324 
H    -1.7097531   -5.9592039    4.7644426 
H     0.1176651   -5.8669012    3.0580467 
H     1.1240142   -3.6808645    2.4242459 
H    -1.5212635   -1.6679408    5.2080949 
H    -2.5169630   -3.8483095    5.8367157 
O     4.8616772   -1.3422368   -4.2551476 
O    -5.1360119    1.4900279   -3.0238071 
C     0.7396869    0.0870972   -2.6131668 
C    -0.7477751    0.0142804   -2.4487266 
C     1.5839503    0.7767628   -1.6983765 
C    -1.3750271   -0.7870544   -1.4527379 
C    -2.9266154    0.7980571   -3.1753844 
C     2.6937535   -0.6155505   -3.8664742 
C    -3.5401533    0.0337870   -2.1723178 
C     3.5254716    0.0325772   -2.9430898 
C    -1.5433312    0.7681983   -3.3385919 
C     1.3082256   -0.5630423   -3.7281070 
C    -2.7839087   -0.7841510   -1.3344209 
C     2.9845123    0.7628948   -1.8855312 
C    -4.0044965    1.5721327   -3.8960815 
C     3.5713160   -1.3201031   -4.8726810 
C    -5.0270170    0.3068722   -2.2257963 
C     4.9595928   -0.2536899   -3.3301145 
C     0.9574273   -2.5585040   -1.0735444 
C    -1.4945542   -2.9607351    0.4946282 
C     2.1651249    2.6608428    0.4531526 
C    -0.5049518    2.6098958   -0.8124659 
C    -0.2969978    3.4839205   -1.9012343 
C    -2.4201038   -2.5660106    1.4854049 
C     0.6877832   -3.3091420   -2.2383435 
C     2.1116878    4.0623404    0.3392927 
C     2.2803556   -2.4629906   -0.6014471 
C    -1.7860600    2.4945725   -0.2428402 
C     3.2511572    2.0663247    1.1352026 
C    -1.4666907   -4.3061863    0.0780570 
C     3.1406420    4.8519671    0.8759096 
C     1.7294657   -3.9665185   -2.9049314 
C    -3.3290059   -3.4884043    2.0158431 
C    -1.3612122    4.2501163   -2.3926779 
C    -2.3722512   -5.2287653    0.6200483 
C     4.2782167    2.8572386    1.6646165 
C     3.3225877   -3.1072621   -1.2839061 
C    -2.8528618    3.2474650   -0.7533116 
C    -2.6387802    4.1318750   -1.8199043 
C     4.2249627    4.2551426    1.5331587 
C    -3.3080846   -4.8222770    1.5814531 
C     3.0482087   -3.8623838   -2.4324731 
H    -1.0495620    1.3682323   -4.1094798 
H     0.6477845   -1.0760040   -4.4346178 
H     3.6403646    1.3011090   -1.1957002 
H    -3.2747134   -1.4045030   -0.5786996 
H     3.2618813   -2.3608505   -5.0743693 
H     3.5913547   -0.7715339   -5.8414891 
H    -3.7554832    2.6368050   -4.0478717 
H    -4.2230066    1.1222143   -4.8909442 
H    -5.5751772   -0.5464638   -2.6853426 
H    -5.4786010    0.5092340   -1.2383184 
H     5.5912650   -0.5735594   -2.4821899 
H     5.4374292    0.6363337   -3.7980492 
H    -0.3318696   -3.3548223   -2.6368419 
H     0.6889748    3.5472614   -2.3748740 
H     1.2594262    4.5450841   -0.1461894 
H    -2.4154433   -1.5308333    1.8488309 
H     2.4915237   -1.8584981    0.2888608 
H    -1.9458108    1.7923080    0.5817472 
H     3.2871410    0.9760062    1.2553385 
H    -0.7327834   -4.6438763   -0.6584024 
H    -1.1972928    4.9322291   -3.2335574 
H     3.0847551    5.9417105    0.7863195 
H    -4.0388425   -3.1707756    2.7856567 
H     1.5144341   -4.5484244   -3.8073984 
H    -3.8545747    3.1367630   -0.3270386 
H     5.1168032    2.3842770    2.1860308 
H    -2.3407801   -6.2724878    0.2906817 
H     4.3520660   -3.0115987   -0.9244377 
H    -3.4736040    4.7194624   -2.2155105 
H     5.0239284    4.8757025    1.9515867 
H    -4.0111609   -5.5469725    2.0044874 
H     3.8657878   -4.3518280   -2.9706964 
