105
Energy =
C     1.1390090    0.3028511    3.3212276 
C    -0.1184196   -0.3367097    3.5721217 
C    -0.3401865   -1.6579107    3.1207573 
H    -0.9625239    0.2504643    3.9550430 
Pd    0.2130647   -0.2740079    1.3991249 
P    -1.3731260   -0.8729183   -0.2061488 
P     1.7098375    0.7238683   -0.0950443 
H     2.0360354   -0.3315475    3.3276883 
H     0.5562246   -2.2549923    2.8871371 
C     1.9402806    4.5048358    3.8067686 
C     2.9878494    3.5728041    3.7908877 
C     2.7145088    2.2066796    3.6510319 
C     1.3860328    1.7433265    3.5216859 
C     0.3384712    2.6958980    3.5408395 
C     0.6130359    4.0588527    3.6839177 
H     2.1532049    5.5732560    3.9147570 
H     4.0254436    3.9092495    3.8867497 
H     3.5379849    1.4846564    3.6343228 
H    -0.7009213    2.3681016    3.4226604 
H    -0.2101031    4.7811512    3.6944511 
C    -3.8889630   -4.0583590    3.3977120 
C    -3.8750805   -2.7786610    3.9760329 
C    -2.7337637   -1.9759958    3.8907522 
C    -1.5753734   -2.4437412    3.2292405 
C    -1.6040759   -3.7357520    2.6519014 
C    -2.7494702   -4.5336754    2.7308064 
H    -4.7849989   -4.6833419    3.4701133 
H    -4.7611136   -2.4042364    4.4980734 
H    -2.7399919   -0.9861141    4.3563706 
H    -0.7148620   -4.1119317    2.1343291 
H    -2.7513037   -5.5304234    2.2780306 
O     2.9801366   -4.2617378   -3.8949253 
O    -2.5859050    4.5825728   -3.3328565 
C     0.7408565   -0.4082596   -2.5127604 
C    -0.4103643    0.5512885   -2.4552396 
C     1.8169590   -0.3786628   -1.5792099 
C    -1.4737522    0.4289307   -1.5169453 
C    -1.4273777    2.5728948   -3.3287321 
C     1.7770122   -2.2954873   -3.6323348 
C    -2.4606407    2.4643578   -2.3877862 
C     2.8266610   -2.2754785   -2.7028273 
C    -0.4239422    1.6076657   -3.3900097 
C     0.7556292   -1.3496967   -3.5639502 
C    -2.5153640    1.3841732   -1.5074124 
C     2.8754147   -1.3077117   -1.6996749 
C    -1.6440554    3.8429625   -4.1159090 
C     2.0068194   -3.4577999   -4.5691106 
C    -3.3588732    3.6715096   -2.5444605 
C     3.7529536   -3.4274858   -3.0259071 
C    -1.1631997   -2.4496235   -1.1094799 
C    -3.0332789   -0.8712930    0.5791194 
C     3.4027657    0.7859983    0.6216835 
C     1.3468216    2.4016437   -0.7236948 
C     2.0820694    2.9549737   -1.7939802 
C    -3.9855958   -1.8897368    0.3941824 
C    -1.9913378   -2.7858067   -2.2013179 
C     4.1928937    1.9510467    0.6062516 
C    -0.0867131   -3.2895270   -0.7646599 
C     0.2873578    3.1291056   -0.1512703 
C     3.8818112   -0.3599770    1.2973348 
C    -3.3423725    0.2193476    1.4249341 
C     5.4491275    1.9590714    1.2322880 
C    -1.7537642   -3.9646302   -2.9200600 
C    -5.2419845   -1.7942028    1.0110604 
C     1.7598995    4.2304393   -2.2740723 
C    -4.6050319    0.3193896    2.0211133 
C     5.1397820   -0.3508797    1.9116277 
C     0.1609819   -4.4566770   -1.5007506 
C    -0.0422936    4.3976104   -0.6493953 
C     0.6954580    4.9502767   -1.7054677 
C     5.9279034    0.8118554    1.8791479 
C    -5.5609402   -0.6859968    1.8077965 
C    -0.6783178   -4.7986900   -2.5714732 
H     0.3926351    1.6829545   -4.1149747 
H    -0.0706520   -1.3529465   -4.2818622 
H     3.7187155   -1.2780882   -1.0041051 
H    -3.3450318    1.2903753   -0.8014100 
H     1.1050431   -4.0704993   -4.7415354 
H     2.3813814   -3.1068483   -5.5572659 
H    -0.7296506    4.4508236   -4.2309911 
H    -2.0426547    3.6213231   -5.1317586 
H    -4.3123176    3.4011327   -3.0520222 
H    -3.6100071    4.1642209   -1.5882583 
H     4.0504323   -4.0227770   -2.1444383 
H     4.6806998   -3.0672841   -3.5254465 
H    -2.8056089   -2.1161352   -2.4996564 
H     2.8909399    2.3807163   -2.2595131 
H     3.8249270    2.8610820    0.1247068 
H    -3.7485781   -2.7624828   -0.2208062 
H     0.5772399   -3.0009703    0.0582453 
H    -0.2844603    2.6889828    0.6725363 
H     3.2586726   -1.2613803    1.3504942 
H    -2.5873076    0.9950559    1.6069820 
H     2.3325988    4.6601867   -3.1026981 
H     6.0512557    2.8733908    1.2180527 
H    -5.9743633   -2.5948795    0.8660829 
H    -2.4014311   -4.2276718   -3.7629777 
H    -0.8798977    4.9536021   -0.2169104 
H     5.5019018   -1.2476802    2.4248615 
H    -4.8395494    1.1766670    2.6607848 
H     1.0176730   -5.0910428   -1.2535662 
H     0.4298392    5.9378592   -2.0958037 
H     6.9081172    0.8234709    2.3665356 
H    -6.5472331   -0.6135877    2.2774827 
H    -0.4842441   -5.7110006   -3.1449715 
