105
Energy =
C     0.6579209    1.2792160    3.3052418 
C    -0.7636184    1.1337179    3.2763360 
C    -1.3784685   -0.1359513    3.3476666 
H    -1.3842206    2.0108821    3.0531769 
Pd    0.0576152    0.0126457    1.5711252 
P    -1.2927216   -1.0215996   -0.0686166 
P     1.8756399    0.2535053    0.1266440 
H     1.2340886    0.5490525    3.8921306 
H    -0.7898398   -0.9550505    3.7901914 
C     2.6430193    5.0357966    2.5856091 
C     1.3718933    4.7994214    2.0358967 
C     0.7195444    3.5840785    2.2669281 
C     1.3183323    2.5772475    3.0620305 
C     2.5903688    2.8367122    3.6166608 
C     3.2474148    4.0496367    3.3780619 
H     3.1562337    5.9844566    2.3985812 
H     0.8904259    5.5656628    1.4184947 
H    -0.2576092    3.4057795    1.8044053 
H     3.0665111    2.0756493    4.2426080 
H     4.2371384    4.2236046    3.8117537 
C    -5.5970260   -0.9466926    3.2077232 
C    -4.7088449   -1.8569692    3.7989442 
C    -3.3367606   -1.5839284    3.8224119 
C    -2.8258702   -0.3881349    3.2689869 
C    -3.7333539    0.5187571    2.6734880 
C    -5.1024225    0.2399234    2.6408398 
H    -6.6705108   -1.1608263    3.1843340 
H    -5.0844120   -2.7864988    4.2379856 
H    -2.6471047   -2.3010079    4.2798857 
H    -3.3687994    1.4451326    2.2213212 
H    -5.7885062    0.9520473    2.1708393 
O    -1.3280057    4.8364331   -2.8892734 
O     1.7966212   -5.1385662   -3.8541553 
C     0.3591515    0.5322620   -2.2777954 
C     0.3106674   -0.9598210   -2.4131553 
C     1.0717585    1.1898885   -1.2371357 
C    -0.4551411   -1.7795894   -1.5337562 
C     1.0886154   -2.9471605   -3.5635327 
C    -0.4787727    2.6809728   -3.0386628 
C     0.3352027   -3.7511706   -2.6981059 
C     0.1648333    3.3169130   -1.9655215 
C     1.0487839   -1.5577018   -3.4538324 
C    -0.3765257    1.3016990   -3.2073333 
C    -0.4629165   -3.1809760   -1.7066364 
C     0.9550726    2.5925163   -1.0770083 
C     1.8822289   -3.8517509   -4.4744700 
C    -1.2612073    3.7284982   -3.7953360 
C     0.6222225   -5.1964510   -3.0375412 
C    -0.2062795    4.7823001   -2.0023343 
C    -2.3275586   -2.3749782    0.6148597 
C    -2.4082093    0.2247461   -0.8289597 
C     2.6668531   -1.2673528   -0.5456079 
C     3.3830818    1.1609607    0.6613981 
C     4.0150921    0.6438948    1.8121733 
C    -3.2151800   -0.1145058   -1.9359790 
C    -1.6708963   -3.3401593    1.4103708 
C     2.3233386   -2.5304680   -0.0342877 
C    -3.7111291   -2.4922411    0.3903111 
C     4.0022826    2.2010063   -0.0574317 
C     3.6789120   -1.1623053   -1.5227341 
C    -2.3850806    1.5552574   -0.3704176 
C     2.9592819   -3.6837153   -0.5176943 
C    -2.3765116   -4.4346359    1.9247210 
C    -4.0150181    0.8617617   -2.5440529 
C     5.2460327    1.1562134    2.2362361 
C    -3.1716058    2.5343726   -0.9929119 
C     4.3082224   -2.3160860   -2.0039609 
C    -4.4169233   -3.5812335    0.9231448 
C     5.2252619    2.7271871    0.3859469 
C     5.8497807    2.2065784    1.5278547 
C     3.9440661   -3.5799780   -1.5089695 
C    -3.9960846    2.1847540   -2.0720984 
C    -3.7523033   -4.5599446    1.6748484 
H     1.6364115   -0.9189715   -4.1213029 
H    -0.9136221    0.7872978   -4.0104843 
H     1.4448026    3.0923056   -0.2362464 
H    -1.0555527   -3.8155079   -1.0414218 
H    -0.7454940    4.0091214   -4.7411176 
H    -2.2906788    3.4176500   -4.0430150 
H     1.4560250   -3.8655230   -5.5028641 
H     2.9478424   -3.5695558   -4.5481613 
H     0.8430778   -5.8209682   -2.1533931 
H    -0.2299059   -5.6619741   -3.5821834 
H     0.6387755    5.4032029   -2.3764852 
H    -0.5158896    5.1863025   -1.0215195 
H    -0.6009207   -3.2302907    1.6255018 
H     3.5415185   -0.1732120    2.3700923 
H     1.5443988   -2.6077554    0.7328461 
H    -3.2008030   -1.1351193   -2.3338804 
H    -4.2458152   -1.7293530   -0.1819171 
H     3.5486080    2.5940803   -0.9717740 
H     3.9694834   -0.1790404   -1.9088293 
H    -1.7120709    1.8241274    0.4518980 
H     5.7307392    0.7411111    3.1259469 
H     2.6771037   -4.6658386   -0.1247186 
H    -4.6460631    0.5923514   -3.3974774 
H    -1.8551342   -5.1840673    2.5292610 
H     5.6969019    3.5401779   -0.1757336 
H     5.0872504   -2.2301854   -2.7687843 
H    -3.1250511    3.5740655   -0.6552112 
H    -5.4954534   -3.6583403    0.7523015 
H     6.8086758    2.6150265    1.8629980 
H     4.4221450   -4.4828411   -1.9007542 
H    -4.6113379    2.9492337   -2.5577545 
H    -4.3080385   -5.4112007    2.0813248 
