105
Energy =
C     0.6840103    1.2591757    3.3076652 
C    -0.7378637    1.1153136    3.2886567 
C    -1.3536114   -0.1540726    3.3571524 
H    -1.3592351    1.9943913    3.0753351 
Pd    0.0694159    0.0034673    1.5706752 
P    -1.2943656   -1.0194230   -0.0646407 
P     1.8764340    0.2503393    0.1138509 
H     1.2637812    0.5249903    3.8859379 
H    -0.7624960   -0.9763887    3.7903005 
C     2.6681476    5.0174624    2.5943112 
C     1.3923779    4.7859035    2.0533689 
C     0.7403606    3.5700016    2.2823567 
C     1.3440361    2.5578674    3.0669670 
C     2.6206533    2.8126030    3.6132096 
C     3.2774797    4.0259739    3.3762606 
H     3.1811737    5.9664800    2.4085750 
H     0.9069386    5.5564296    1.4444610 
H    -0.2405393    3.3955154    1.8263560 
H     3.1005635    2.0475115    4.2313113 
H     4.2709140    4.1960714    3.8029444 
C    -5.5738789   -0.9599335    3.2423258 
C    -4.6825890   -1.8740023    3.8229290 
C    -3.3100910   -1.6024390    3.8383455 
C    -2.8018283   -0.4042800    3.2876253 
C    -3.7124846    0.5065819    2.7031369 
C    -5.0820052    0.2291611    2.6782749 
H    -6.6476894   -1.1730181    3.2250075 
H    -5.0560624   -2.8054171    4.2597608 
H    -2.6180112   -2.3226292    4.2871865 
H    -3.3501373    1.4349397    2.2532625 
H    -5.7705637    0.9443518    2.2166190 
O    -1.3439956    4.8555436   -2.8492518 
O     1.7637094   -5.1169216   -3.8962813 
C     0.3419780    0.5455174   -2.2774001 
C     0.2906540   -0.9456593   -2.4212860 
C     1.0634346    1.1958344   -1.2382147 
C    -0.4685721   -1.7698503   -1.5402849 
C     1.0582515   -2.9270255   -3.5887670 
C    -0.4987051    2.7000186   -3.0187215 
C     0.3118480   -3.7354041   -2.7213646 
C     0.1540975    3.3285156   -1.9467429 
C     1.0198512   -1.5381508   -3.4712899 
C    -0.3997285    1.3216424   -3.1965459 
C    -0.4781680   -3.1702773   -1.7205632 
C     0.9499591    2.5976049   -1.0686571 
C     1.8441769   -3.8270288   -4.5108547 
C    -1.2856520    3.7532252   -3.7627481 
C     0.5961666   -5.1789556   -3.0702071 
C    -0.2153955    4.7945580   -1.9715539 
C    -2.3256515   -2.3756221    0.6186436 
C    -2.4141236    0.2324258   -0.8093731 
C     2.6605903   -1.2675705   -0.5731373 
C     3.3891414    1.1528234    0.6421504 
C     4.0294001    0.6285433    1.7850666 
C    -3.2299584   -0.0996842   -1.9120629 
C    -1.6641025   -3.3466758    1.4028818 
C     2.3210695   -2.5330068   -0.0648825 
C    -3.7110577   -2.4897917    0.4040364 
C     4.0039165    2.1963511   -0.0754380 
C     3.6642457   -1.1582032   -1.5584212 
C    -2.3859169    1.5603021   -0.3435506 
C     2.9526274   -3.6841243   -0.5590129 
C    -2.3670688   -4.4436948    1.9154572 
C    -4.0333329    0.8808798   -2.5084480 
C     5.2639424    1.1374161    2.2027969 
C    -3.1762545    2.5437450   -0.9543003 
C     4.2888614   -2.3098908   -2.0506415 
C    -4.4140513   -3.5814354    0.9351410 
C     5.2307579    2.7188181    0.3615972 
C     5.8633362    2.1912273    1.4958414 
C     3.9286842   -3.5760035   -1.5584101 
C    -4.0093889    2.2011359   -2.0290869 
C    -3.7448461   -4.5658978    1.6751736 
H     1.6023729   -0.8960677   -4.1400234 
H    -0.9437464    0.8128569   -3.9986218 
H     1.4465760    3.0916154   -0.2285237 
H    -1.0655756   -3.8081971   -1.0539635 
H    -0.7770621    4.0391964   -4.7107715 
H    -2.3174137    3.4451198   -4.0042661 
H     1.4094441   -3.8357069   -5.5357234 
H     2.9091485   -3.5444279   -4.5920171 
H     0.8245031   -5.8075527   -2.1908448 
H    -0.2603460   -5.6421519   -3.6099110 
H     0.6274364    5.4168088   -2.3484618 
H    -0.5167497    5.1927532   -0.9858037 
H    -0.5923703   -3.2395166    1.6105126 
H     3.5594006   -0.1914208    2.3418193 
H     1.5487886   -2.6137429    0.7086352 
H    -3.2199541   -1.1180897   -2.3157098 
H    -4.2491997   -1.7226455   -0.1591834 
H     3.5436226    2.5951927   -0.9839576 
H     3.9520051   -0.1731911   -1.9421673 
H    -1.7059783    1.8238661    0.4747687 
H     5.7548435    0.7169503    3.0865743 
H     2.6737999   -4.6679665   -0.1679408 
H    -4.6711951    0.6169964   -3.3585255 
H    -1.8419442   -5.1976741    2.5110370 
H     5.6989212    3.5345529   -0.1990163 
H     5.0611569   -2.2206222   -2.8218859 
H    -3.1261026    3.5814138   -0.6109383 
H    -5.4939665   -3.6561140    0.7721323 
H     6.8250660    2.5969754    1.8261148 
H     4.4029716   -4.4771229   -1.9587247 
H    -4.6275892    2.9689989   -2.5055818 
H    -4.2984278   -5.4192688    2.0801542 
