105
Energy =
C     0.9749807    0.2359210    3.3788148 
C    -0.4464853    0.2066572    3.5574496 
C    -1.1768689   -0.9537124    3.2129142 
H    -0.9858613    1.1325010    3.7935572 
Pd   -0.0003721   -0.1526669    1.4345224 
P    -1.5991156   -0.2542471   -0.2642854 
P     1.8579498   -0.0578259    0.0179086 
H     1.5207865   -0.7042806    3.5378875 
H    -0.6019579   -1.8904394    3.1313513 
C     3.4385923    3.7621722    3.5547190 
C     3.9962838    2.4886996    3.7378269 
C     3.1827800    1.3497775    3.6966174 
C     1.7927383    1.4604214    3.4689764 
C     1.2435899    2.7528439    3.2865591 
C     2.0566503    3.8888038    3.3314871 
H     4.0742595    4.6529599    3.5857291 
H     5.0716197    2.3788703    3.9127154 
H     3.6259425    0.3577634    3.8351648 
H     0.1716653    2.8681699    3.0879933 
H     1.6143591    4.8800637    3.1862924 
C    -5.4143053   -1.6306165    3.3491231 
C    -4.5442457   -2.6151485    2.8563834 
C    -3.1674297   -2.3742787    2.8202927 
C    -2.6315430   -1.1428884    3.2674115 
C    -3.5216338   -0.1581979    3.7536740 
C    -4.8970480   -0.4040924    3.7968059 
H    -6.4923378   -1.8179309    3.3874675 
H    -4.9388279   -3.5745602    2.5066667 
H    -2.4907162   -3.1465592    2.4385758 
H    -3.1379407    0.8000087    4.1158290 
H    -5.5718101    0.3661858    4.1830118 
O     1.1462689   -5.5648705   -3.1587453 
O    -0.2537913    4.7682016   -4.0036635 
C     0.6420439   -0.9927774   -2.3717463 
C    -0.0047929    0.3517491   -2.5236439 
C     1.5777586   -1.2872094   -1.3383388 
C    -1.0735287    0.7951603   -1.6946841 
C    -0.0369874    2.4805181   -3.6861598 
C     0.8581958   -3.2630265   -3.2009411 
C    -1.0735374    2.9240754   -2.8534421 
C     1.7661822   -3.5559493   -2.1735414 
C     0.4757961    1.1918671   -3.5499012 
C     0.3221818   -1.9825869   -3.3252950 
C    -1.6220518    2.0836111   -1.8851799 
C     2.1568962   -2.5743551   -1.2630415 
C     0.3390983    3.6150448   -4.6086399 
C     0.6350865   -4.5255302   -3.9993731 
C    -1.3789377    4.3601483   -3.2184087 
C     2.1445873   -5.0160549   -2.2923896 
C    -2.0152487   -1.8810551   -0.9896004 
C    -3.1488249    0.5250032    0.3387754 
C     3.3772937   -0.6035816    0.8994232 
C     2.2666884    1.5250123   -0.8001897 
C     1.5746689    2.6886746   -0.4175149 
C    -4.4267418   -0.0323454    0.1528634 
C    -1.4082240   -3.0349656   -0.4576638 
C     4.5818596    0.1239747    0.8609792 
C    -2.8445100   -1.9872038   -2.1261300 
C     3.2269699    1.5856637   -1.8328697 
C     3.2929420   -1.7496816    1.7231570 
C    -3.0226059    1.7473580    1.0390404 
C     5.6877692   -0.3033912    1.6122845 
C    -1.6270706   -4.2851258   -1.0529966 
C    -5.5617703    0.6464261    0.6211203 
C     1.8323968    3.9037936   -1.0678354 
C    -4.1602268    2.4302317    1.4854927 
C     4.4016194   -2.1783374    2.4627804 
C    -3.0786401   -3.2416649   -2.7039949 
C     3.4937113    2.8065446   -2.4649193 
C     2.7937043    3.9646421   -2.0863115 
C     5.6044233   -1.4541674    2.4075710 
C    -5.4344254    1.8828078    1.2691430 
C    -2.4698110   -4.3893482   -2.1694522 
H     1.2894768    0.8341875   -4.1887284 
H    -0.3877564   -1.7389136   -4.1220183 
H     2.8945297   -2.8044501   -0.4890456 
H    -2.4541135    2.4275053   -1.2647313 
H    -0.4289353   -4.7337399   -4.2066609 
H     1.1757445   -4.4845796   -4.9719474 
H     1.4283925    3.7787017   -4.6829981 
H    -0.0561717    3.4441874   -5.6355507 
H    -2.3278300    4.4360422   -3.7960235 
H    -1.4572433    5.0324874   -2.3454484 
H     2.1149554   -5.5645384   -1.3341896 
H     3.1653514   -5.1315801   -2.7221027 
H    -0.7330269   -2.9395597    0.4005676 
H     0.8243392    2.6314507    0.3780397 
H     4.6570930    1.0359159    0.2623636 
H    -4.5405021   -0.9981836   -0.3474263 
H    -3.2879679   -1.0881810   -2.5683339 
H     3.7492690    0.6765044   -2.1512888 
H     2.3480150   -2.3026924    1.7922141 
H    -2.0246578    2.1651203    1.2251664 
H     1.2778927    4.8035967   -0.7839736 
H     6.6167230    0.2750550    1.5783566 
H    -6.5516769    0.2017298    0.4770631 
H    -1.1276960   -5.1759349   -0.6597825 
H     4.2409704    2.8532572   -3.2641020 
H     4.3249473   -3.0719866    3.0907744 
H    -4.0518423    3.3844045    2.0116688 
H    -3.7276138   -3.3233864   -3.5822809 
H     2.9860296    4.9139892   -2.5962186 
H     6.4696403   -1.7832656    2.9919966 
H    -6.3256795    2.4117366    1.6220063 
H    -2.6407706   -5.3665341   -2.6328249 
