125
Energy =
C    -1.5242993   -2.2140980    1.3416673 
C    -0.4315832   -2.8415999    2.0191989 
C     0.1757372   -2.1645017    3.1094713 
H     0.0505210   -3.7259474    1.5831044 
Pd    0.2780454   -0.9091026    1.2607214 
P     2.3794566    0.0565279    1.2992102 
P    -0.1172598    0.5096143   -0.4607910 
H    -2.1755991   -1.5664363    1.9452950 
H    -0.4538490   -1.4179896    3.6203253 
C    -3.3150862   -3.5644861   -2.3265509 
C    -4.0706972   -2.8618936   -1.3769041 
C    -3.4768568   -2.4167083   -0.1901266 
C    -2.1195511   -2.6936028    0.0802859 
C    -1.3673005   -3.4000842   -0.8856455 
C    -1.9573150   -3.8277585   -2.0777447 
H    -3.7787699   -3.9021742   -3.2590206 
H    -5.1304554   -2.6597321   -1.5604267 
H    -4.0675517   -1.8486888    0.5364281 
H    -0.3028227   -3.5854859   -0.7115832 
H    -1.3572481   -4.3641029   -2.8203423 
C     3.6755629   -3.1547599    5.3971922 
C     2.7663680   -2.1881033    5.8530764 
C     1.6258655   -1.8923761    5.0964623 
C     1.3735441   -2.5531527    3.8698347 
C     2.2993573   -3.5218352    3.4214568 
C     3.4341654   -3.8193125    4.1824780 
H     4.5668314   -3.3929698    5.9867141 
H     2.9429401   -1.6674304    6.7997501 
H     0.9130820   -1.1415407    5.4573249 
H     2.1467950   -4.0314166    2.4652521 
H     4.1398593   -4.5726960    3.8197316 
O     1.2666837    1.3513893   -0.8024334 
O    -1.1245080    1.8051506   -0.2546649 
O    -0.5620392   -0.1397185   -1.8760493 
C     3.3640964    0.4767627    2.8483642 
C     3.7948502   -0.7669273    0.3631747 
C     5.0237529   -0.0889904    1.0167331 
C     4.8065157   -0.0140527    2.5431838 
C     3.7331721   -2.2902726    0.3878077 
C     3.1301768    1.9369327    3.1891193 
C     2.1510763    1.6447008    0.2968960 
C     4.0030992    2.9636292    2.7808118 
C     4.7457523   -3.0856627    0.9537726 
C     1.9348721    2.2893794    3.8519213 
C     2.6480358   -2.9412802   -0.2396898 
C    -2.8211132    2.2409261    2.1470982 
C     1.2352911   -0.0102329   -4.3396685 
C    -3.0032605    1.2001372   -1.6222339 
C    -2.1309824    1.4073833   -2.8273440 
C    -0.0927992    0.7512630   -4.1021922 
C    -3.3204349    1.6416792    0.8095160 
C    -2.5109743    1.5303818   -0.3392155 
C    -0.9203469    0.6910755   -2.9704982 
C     4.6780947   -4.4872172    0.8971090 
C     3.6864745    4.3084782    3.0277209 
C     2.5761434   -4.3385801   -0.2942586 
C     1.6138420    3.6319844    4.0893910 
C    -2.4959045    2.3381020   -3.8311003 
C    -4.3472836    0.7681005   -1.7463616 
C    -0.5323518    1.6509782   -5.0976252 
C    -4.6604487    1.2465009    0.6262705 
C     3.5927786   -5.1207409    0.2786251 
C     2.4893970    4.6478908    3.6747006 
C    -5.1724693    0.7771401   -0.5950917 
C    -1.6778685    2.4475595   -4.9846768 
C    -3.9927423    2.4785410    3.1280143 
C    -1.8225595    1.2915138    2.8501412 
C    -2.1455378    3.6143810    1.8882251 
C     2.3933905    1.0209045   -4.2756940 
C     1.5455783   -1.1366023   -3.3263219 
C     1.1973640   -0.6704223   -5.7439179 
C    -3.7014664    3.2405170   -3.6951846 
C    -4.9118786    0.3036628   -3.0688736 
C    -2.0322505    3.4191314   -6.0883302 
C    -6.6125376    0.3229921   -0.6798830 
H     3.6805600   -0.4424216   -0.6878021 
H     2.9190060   -0.1468321    3.6424167 
H     5.1221683    0.9317549    0.6044316 
H     5.9570967   -0.6173045    0.7559340 
H     4.9198256   -1.0184310    2.9849693 
H     5.5530359    0.6373773    3.0279173 
H     1.7377340    2.4401571    0.9412168 
H     3.0971035    1.9904790   -0.1474993 
H     5.6089644   -2.6222109    1.4398167 
H     4.9388728    2.7211715    2.2658766 
H     1.8582049   -2.3428942   -0.7086284 
H     1.2494402    1.4978229    4.1778773 
H     5.4835081   -5.0836372    1.3383103 
H     4.3798620    5.0943156    2.7104687 
H     1.7334411   -4.8222210   -0.8000273 
H     0.6810746    3.8857769    4.6040830 
H     0.0698108    1.7573627   -6.0056166 
H    -5.3485463    1.2987099    1.4736094 
H     3.5429094   -6.2132596    0.2316741 
H     2.2433281    5.6980389    3.8613791 
H    -4.4927500    1.5374558    3.4166547 
H    -4.7485405    3.1603424    2.7019288 
H    -3.6044469    2.9424853    4.0511108 
H    -0.9501117    1.0563328    2.2110340 
H    -2.3154622    0.3416925    3.1230660 
H    -2.8507373    4.3031312    1.3919512 
H    -1.2501270    3.5210148    1.2557416 
H    -1.8442738    4.0673020    2.8499489 
H     2.4198279    1.5039987   -3.2833836 
H     2.2770276    1.8102719   -5.0378668 
H     3.3619134    0.5177583   -4.4507797 
H     0.7152172   -1.8553114   -3.2312241 
H     1.7688716   -0.7304888   -2.3287819 
H     2.4402621   -1.6845119   -3.6710877 
H     1.0727913    0.0654603   -6.5550533 
H     0.3698773   -1.3981403   -5.8117517 
H     2.1450826   -1.2063018   -5.9278742 
H    -1.4416991    1.7555094    3.7774707 
H    -4.1674431    3.1684413   -2.7017463 
H    -4.4696430    3.0041284   -4.4544270 
H    -3.4103819    4.2932809   -3.8591061 
H    -4.1333905    0.2179089   -3.8409457 
H    -5.6904359    0.9960771   -3.4383261 
H    -5.3928713   -0.6834716   -2.9594136 
H    -1.3206454    3.3473372   -6.9263253 
H    -2.0230001    4.4633484   -5.7242335 
H    -3.0466753    3.2299747   -6.4844534 
H    -7.1245860    0.4309738    0.2896275 
H    -6.6838383   -0.7381701   -0.9839791 
H    -7.1777782    0.9037905   -1.4313149 
