125
Energy =
C    -1.5650637   -2.0334855    1.4110347 
C    -0.4774978   -2.6998942    2.0541634 
C     0.1736352   -2.0683504    3.1472647 
H    -0.0322760   -3.5890830    1.5890021 
Pd    0.2840571   -0.7748183    1.3345261 
P     2.3929497    0.1678669    1.4249577 
P    -0.0410925    0.6590503   -0.3918562 
H    -2.1838044   -1.3728114    2.0347796 
H    -0.4240732   -1.3268306    3.7020369 
C    -3.4946613   -3.4391915   -2.1642262 
C    -4.2246452   -2.7596899   -1.1783620 
C    -3.5852689   -2.2808491   -0.0286439 
C    -2.2062523   -2.5067470    0.1697862 
C    -1.4799758   -3.1878939   -0.8330371 
C    -2.1158425   -3.6453023   -1.9900605 
H    -3.9953099   -3.8029251   -3.0673536 
H    -5.3005784   -2.6031581   -1.3042737 
H    -4.1584684   -1.7357254    0.7285253 
H    -0.4016113   -3.3308710   -0.7120496 
H    -1.5353912   -4.1581991   -2.7638053 
C     3.6799523   -3.2954659    5.3078436 
C     2.7958796   -2.3504275    5.8496568 
C     1.6538072   -1.9723149    5.1326678 
C     1.3747033   -2.5296799    3.8620213 
C     2.2777203   -3.4744940    3.3247080 
C     3.4138182   -3.8543942    4.0459749 
H     4.5720249   -3.5975918    5.8660104 
H     2.9927540   -1.9109209    6.8327803 
H     0.9606533   -1.2385474    5.5605821 
H     2.1071035   -3.8982753    2.3298029 
H     4.1020046   -4.5879278    3.6151065 
O     1.3379557    1.5401081   -0.6394316 
O    -1.0705087    1.9427663   -0.2910214 
O    -0.3687219   -0.0557782   -1.8127690 
C     3.3810941    0.4891022    2.9934661 
C     3.7953056   -0.6080571    0.4301334 
C     5.0403999   -0.0313300    1.1473551 
C     4.8039995   -0.0457867    2.6726830 
C     3.6779871   -2.1214148    0.3053412 
C     3.2008686    1.9440360    3.3866878 
C     2.1732441    1.8027776    0.5050250 
C     4.1148654    2.9510380    3.0215403 
C     4.6243556   -3.0113995    0.8430883 
C     2.0172988    2.3168237    4.0600551 
C     2.5987129   -2.6582660   -0.4316547 
C    -2.8176680    2.4617336    2.0491645 
C     1.1688724   -0.4317270   -4.2935843 
C    -2.8989787    1.2540201   -1.6745671 
C    -1.9968264    1.3836171   -2.8696871 
C    -0.0314390    0.5329563   -4.1457558 
C    -3.2873969    1.8108208    0.7251456 
C    -2.4495392    1.6491901   -0.3965746 
C    -0.7941949    0.6517256   -2.9678994 
C     4.4945865   -4.3977054    0.6583140 
C     3.8499496    4.2965974    3.3202341 
C     2.4648456   -4.0400148   -0.6131038 
C     1.7486844    3.6605886    4.3502099 
C    -2.3643397    2.2215444   -3.9564711 
C    -4.2411221    0.8162036   -1.8159526 
C    -0.4793250    1.3274441   -5.2179468 
C    -4.6238982    1.4167341    0.5203998 
C     3.4122173   -4.9191221   -0.0618683 
C     2.6649375    4.6568925    3.9777849 
C    -5.1019288    0.8952903   -0.6937371 
C    -1.5835734    2.1904151   -5.1368119 
C    -1.8185192    1.5514194    2.8035152 
C    -2.1549921    3.8338213    1.7517188 
C    -4.0082416    2.7183426    3.0018039 
C     0.7219629   -1.8746614   -3.9350023 
C     1.6957253   -0.4579535   -5.7463187 
C     2.3435938    0.0034444   -3.3827345 
C    -3.5432250    3.1657194   -3.8779167 
C    -4.7695126    0.2716736   -3.1226969 
C    -1.9426021    3.0634922   -6.3184637 
C    -6.5465467    0.4612705   -0.8034596 
H     3.6995581   -0.1829042   -0.5854640 
H     2.9108398   -0.1459791    3.7632337 
H     5.1897845    1.0083720    0.8039343 
H     5.9533702   -0.5836505    0.8650643 
H     4.8650737   -1.0809923    3.0492653 
H     5.5711437    0.5384487    3.2085021 
H     1.7201512    2.5591291    1.1696511 
H     3.1282946    2.1864410    0.1141817 
H     5.4807590   -2.6344071    1.4094773 
H     5.0440440    2.6923704    2.5026993 
H     1.8668191   -1.9826357   -0.8896546 
H     1.2999415    1.5407858    4.3538759 
H     5.2483775   -5.0708195    1.0800593 
H     4.5748413    5.0664335    3.0358791 
H     1.6316835   -4.4329562   -1.2054016 
H     0.8254061    3.9303549    4.8739111 
H     0.0671168    1.2951862   -6.1633569 
H    -5.3370688    1.5126963    1.3427807 
H     3.3136037   -5.9996797   -0.2068364 
H     2.4596341    5.7076833    4.2055975 
H    -0.9324814    1.3028712    2.1900151 
H    -2.3024769    0.6057708    3.1048046 
H    -1.4588490    2.0559136    3.7181847 
H    -2.8628975    4.4975354    1.2260277 
H    -1.2527555    3.7300367    1.1303983 
H    -4.5051342    1.7815453    3.3094029 
H    -4.7622231    3.3804305    2.5426450 
H    -3.6405179    3.2135751    3.9170109 
H    -0.0831061   -2.2091697   -4.6124263 
H     0.3470212   -1.9435848   -2.9031777 
H     1.5748903   -2.5687426   -4.0435992 
H     2.0890766    0.5238516   -6.0623102 
H     0.9153496   -0.7705505   -6.4616067 
H     2.5237254   -1.1843398   -5.8161520 
H     2.0615709   -0.0064535   -2.3217397 
H     2.6733928    1.0268556   -3.6318107 
H     3.1988517   -0.6824086   -3.5211476 
H    -1.8684006    4.3218547    2.7007600 
H    -4.3286161    2.8951212   -4.6072843 
H    -3.2228611    4.1931079   -4.1275179 
H    -3.9967983    3.1864649   -2.8762754 
H    -3.9704669    0.1323951   -3.8652086 
H    -5.5336683    0.9413563   -3.5581038 
H    -5.2573083   -0.7048201   -2.9614854 
H    -2.9765411    2.8773582   -6.6624807 
H    -1.2637659    2.8844149   -7.1675133 
H    -1.8836344    4.1365933   -6.0578009 
H    -7.0862673    0.6228038    0.1433316 
H    -6.6293318   -0.6105666   -1.0622896 
H    -7.0767631    1.0174593   -1.5978499 
