125
Energy =
C    -1.4725017   -2.3317163    1.3892972 
C    -0.3649146   -3.0105851    1.9625203 
C     0.3891942   -2.4295205    3.0177253 
H     0.0223091   -3.9083172    1.4662393 
Pd    0.3974165   -1.0708098    1.2233986 
P     2.2264522    0.3062902    1.5176465 
P    -0.2661140    0.5398591   -0.2419956 
H    -1.9758236   -1.5729862    2.0073717 
H    -0.1293491   -1.6891217    3.6459361 
C    -3.8577698   -3.6948995   -1.9196600 
C    -4.1452878   -2.4814728   -1.2765571 
C    -3.3552191   -2.0464159   -0.2090784 
C    -2.2598533   -2.8189077    0.2408867 
C    -1.9817027   -4.0399605   -0.4156610 
C    -2.7725493   -4.4711190   -1.4859981 
H    -4.4763692   -4.0348174   -2.7562585 
H    -4.9886101   -1.8691711   -1.6098778 
H    -3.5726646   -1.0908554    0.2780815 
H    -1.1518237   -4.6716276   -0.0835833 
H    -2.5454967   -5.4220882   -1.9787885 
C     3.9374621   -4.0251446    4.8614260 
C     3.2264979   -2.9747245    5.4604393 
C     2.0685450   -2.4751866    4.8511083 
C     1.6004635   -3.0067674    3.6257782 
C     2.3230727   -4.0732887    3.0413125 
C     3.4751214   -4.5760720    3.6541920 
H     4.8410242   -4.4207215    5.3359906 
H     3.5684400   -2.5487884    6.4092074 
H     1.5059412   -1.6701144    5.3371644 
H     1.9891101   -4.5074661    2.0936885 
H     4.0190879   -5.4046140    3.1887023 
O     0.6295821    1.9064671    0.0157774 
O    -1.8366895    0.9471698   -0.0112749 
O    -0.0924932    0.5542369   -1.8745879 
C     3.2653853    0.4828969    3.0842147 
C     3.6523144    0.2787405    0.3001697 
C     4.7922822    0.9605728    1.1163489 
C     4.7313056    0.4513056    2.5697006 
C     3.9924635   -1.0970957   -0.2399928 
C     2.7824645    1.7008576    3.8536911 
C     1.4892601    2.0017451    1.1629827 
C     3.4106041    2.9577256    3.7609310 
C     3.8876619   -2.2635007    0.5420502 
C     1.5960927    1.5967656    4.6127315 
C     4.4628706   -1.2123518   -1.5626124 
C    -2.4693585    3.4426220    1.6384407 
C     0.5281799   -1.8883273   -3.4169968 
C    -2.4735216    2.0302365   -2.0558697 
C    -2.3365260    0.6987300   -2.7352703 
C    -0.8528318   -1.1927609   -3.3953023 
C    -2.5658916    3.2768094    0.1001321 
C    -2.3109246    2.1209137   -0.6537411 
C    -1.1166792   -0.0113396   -2.6745400 
C     4.2488557   -3.5121820    0.0158337 
C     2.8640020    4.0792293    4.4041533 
C     4.8229523   -2.4595595   -2.0906093 
C     1.0466852    2.7163677    5.2499592 
C    -3.4129696    0.1410127   -3.4718346 
C    -2.7902276    3.2030273   -2.7826245 
C    -1.9341118   -1.6721826   -4.1582601 
C    -2.9411025    4.4018393   -0.6666017 
C     4.7177052   -3.6148726   -1.3018500 
C     1.6786885    3.9653867    5.1441755 
C    -3.0282684    4.4033342   -2.0641615 
C    -3.1937955   -1.0552093   -4.1951099 
C    -2.1746569    2.1519305    2.4410938 
C    -1.3504755    4.4716468    1.9501958 
C    -3.8284880    3.9833983    2.1609008 
C     1.5900905   -0.9034419   -3.9724970 
C     0.9413516   -2.3699883   -2.0037852 
C     0.5143850   -3.1355831   -4.3299733 
C    -4.7877322    0.7704445   -3.4818101 
C    -2.8490925    3.2196056   -4.2929591 
C    -4.3090495   -1.6769647   -5.0046899 
C    -3.3797087    5.6788351   -2.7967530 
H     3.3488249    0.9204421   -0.5459815 
H     3.0558601   -0.4211366    3.6819645 
H     4.6464858    2.0563300    1.0883609 
H     5.7705891    0.7511057    0.6510827 
H     5.0879802   -0.5924129    2.6029475 
H     5.3907705    1.0340709    3.2351255 
H     0.9361444    2.3567140    2.0480155 
H     2.2707231    2.7358458    0.9106062 
H     3.5117061   -2.2096226    1.5711294 
H     4.3348857    3.0724535    3.1854844 
H     4.5384748   -0.3162027   -2.1886892 
H     1.0922481    0.6262885    4.6918162 
H     4.1662828   -4.4067780    0.6409788 
H     3.3696561    5.0471297    4.3242615 
H     5.1815926   -2.5288585   -3.1228449 
H     0.1251075    2.6131688    5.8322999 
H    -1.8042176   -2.5842893   -4.7445588 
H    -3.1516005    5.3417983   -0.1455936 
H     4.9982763   -4.5901416   -1.7125073 
H     1.2533298    4.8426749    5.6418571 
H    -1.1703792    1.7445642    2.2434508 
H    -2.9094536    1.3577491    2.2320659 
H    -2.2240094    2.3943947    3.5174461 
H    -1.5811238    5.4641295    1.5277084 
H    -0.3886051    4.1431793    1.5222846 
H    -4.6400406    3.2637442    1.9559981 
H    -4.1014939    4.9456178    1.6974114 
H    -3.7742436    4.1426525    3.2525185 
H     1.6856256   -0.0100091   -3.3353878 
H     1.3204384   -0.5771543   -4.9919529 
H     2.5737327   -1.4031853   -4.0179454 
H     0.1500587   -2.9977826   -1.5609061 
H     1.1415663   -1.5286361   -1.3206685 
H     1.8712954   -2.9617058   -2.0585788 
H     0.2661240   -2.8817728   -5.3749394 
H    -0.2019005   -3.8965495   -3.9728639 
H     1.5184133   -3.5937519   -4.3282217 
H    -1.2265612    4.5865271    3.0420624 
H    -5.5558061    0.0224983   -3.2137265 
H    -5.0545748    1.1443317   -4.4872536 
H    -4.8672439    1.6079369   -2.7734411 
H    -2.5238997    2.2648107   -4.7312096 
H    -2.1976484    4.0178172   -4.6914372 
H    -3.8709252    3.4359865   -4.6552533 
H    -5.1665028   -1.9561071   -4.3636472 
H    -3.9663347   -2.5858313   -5.5247224 
H    -4.7003026   -0.9756363   -5.7641010 
H    -3.5701508    6.5045036   -2.0925649 
H    -4.2804559    5.5502276   -3.4242994 
H    -2.5633957    5.9915092   -3.4740101 
