125
Energy =
C    -1.3457832   -2.1898273    1.4334340 
C    -0.2104031   -2.8201345    2.0205624 
C     0.4589598   -2.1843660    3.1019157 
H     0.2608529   -3.6733003    1.5171766 
Pd    0.4342728   -0.8341774    1.3337866 
P     2.5012350    0.2056195    1.4106688 
P    -0.0115609    0.5544901   -0.4099077 
H    -1.9498099   -1.5458279    2.0874817 
H    -0.1435841   -1.4890972    3.7086693 
C    -3.3666221   -3.3756915   -2.1676529 
C    -2.0681221   -3.8487905   -1.9146174 
C    -1.4005607   -3.4781678   -0.7443307 
C    -2.0171912   -2.6219603    0.1960391 
C    -3.3168118   -2.1415064   -0.0756084 
C    -3.9873717   -2.5248051   -1.2416364 
H    -3.8898687   -3.6686376   -3.0836022 
H    -1.5735491   -4.5056906   -2.6375241 
H    -0.3829359   -3.8402445   -0.5678757 
H    -3.7993428   -1.4556183    0.6293291 
H    -5.0003548   -2.1565137   -1.4272711 
C     4.1238703   -3.3433367    5.0317125 
C     3.2891880   -2.3690422    5.6003795 
C     2.0942827   -2.0146525    4.9620519 
C     1.7138859   -2.6191899    3.7399522 
C     2.5661569   -3.5952671    3.1770572 
C     3.7535130   -3.9556041    3.8224233 
H     5.0552739   -3.6296187    5.5307914 
H     3.5637842   -1.8918895    6.5467223 
H     1.4361149   -1.2657406    5.4178566 
H     2.3148686   -4.0652551    2.2212066 
H     4.3992887   -4.7161590    3.3724246 
O     1.3619636    1.3897865   -0.7870322 
O    -1.0146243    1.8523744   -0.2295317 
O    -0.4502452   -0.1447607   -1.8114629 
C     3.3140954    0.8728462    2.9669493 
C     4.0439037   -0.7275361    0.8077394 
C     5.0373449   -0.5924183    1.9912281 
C     4.8225946    0.7738658    2.6588907 
C     3.8049308   -2.1379318    0.2870417 
C     2.7217631    2.1861002    3.4282485 
C     2.3101612    1.6837448    0.2492951 
C     1.5420215    2.1716963    4.2007059 
C     2.7292248   -2.4169804   -0.5806686 
C     3.2787121    3.4312699    3.0735970 
C     4.6812696   -3.1909598    0.6144202 
C    -2.7418251    2.3306101    2.1509112 
C     1.0246786   -0.5675988   -4.3527120 
C    -2.8830127    1.3150836   -1.6284940 
C    -1.9791933    1.4291982   -2.8214828 
C    -0.1055311    0.4679097   -4.1489029 
C    -3.2394118    1.7924059    0.7887511 
C    -2.4076273    1.6321782   -0.3383263 
C    -0.8372795    0.6108710   -2.9534942 
C     2.5173254   -3.7086786   -1.0807999 
C     0.9348609    3.3661935    4.6083707 
C     4.4720780   -4.4856856    0.1159044 
C     2.6697932    4.6280477    3.4800510 
C    -2.2958378    2.3276609   -3.8742958 
C    -4.2470015    0.9580089   -1.7872865 
C    -0.5068691    1.3275295   -5.1896107 
C    -4.5952508    1.4786254    0.5702211 
C     3.3835740   -4.7538200   -0.7253879 
C     1.4955010    4.6001225    4.2459741 
C    -5.1029007    1.0338444   -0.6617526 
C    -1.5353986    2.2741635   -5.0664644 
C    -1.8616583    1.2755363    2.8606691 
C    -1.9419281    3.6455214    1.9526119 
C    -3.9242399    2.6497827    3.0957117 
C     0.5347539   -1.9772505   -3.9278403 
C     1.4433162   -0.6601274   -5.8384285 
C     2.2794405   -0.1634141   -3.5406572 
C    -3.3981956    3.3551487   -3.7465964 
C    -4.8038488    0.5062581   -3.1181814 
C    -1.8390911    3.2096865   -6.2151719 
C    -6.5677187    0.6764506   -0.7831266 
H     4.4105462   -0.1074593   -0.0341615 
H     3.0721733    0.0909118    3.7129175 
H     6.0758200   -0.7157491    1.6396740 
H     4.8359932   -1.3925664    2.7275182 
H     5.4128084    0.8761571    3.5858339 
H     5.1399472    1.5837093    1.9763018 
H     1.9765429    2.5517285    0.8465866 
H     3.2578229    1.9293873   -0.2556163 
H     2.0515403   -1.6134314   -0.8877247 
H     1.1003048    1.2097846    4.4857329 
H     5.5375198   -3.0121374    1.2701345 
H     4.1986363    3.4754775    2.4812415 
H     1.6835795   -3.8897432   -1.7656235 
H     0.0244638    3.3346935    5.2160312 
H     5.1668901   -5.2872221    0.3880319 
H     3.1199239    5.5861344    3.2003625 
H     0.0217074    1.2795060   -6.1444774 
H    -5.3006937    1.5761844    1.3988664 
H     3.2207417   -5.7640125   -1.1146199 
H     1.0235394    5.5349559    4.5647111 
H    -0.9722182    1.0035773    2.2596396 
H    -2.4410094    0.3556562    3.0555239 
H    -1.5020209    1.6644673    3.8286019 
H    -2.5630008    4.3992876    1.4384631 
H    -1.0275762    3.4895312    1.3619273 
H    -4.5076169    1.7492988    3.3554304 
H    -4.6081270    3.3951753    2.6546702 
H    -3.5308602    3.0702725    4.0372828 
H    -0.3528705   -2.2716997   -4.5147865 
H     0.2627673   -2.0192160   -2.8631680 
H     1.3319986   -2.7184316   -4.1172707 
H     1.8803143    0.2833738   -6.2083217 
H     0.5935783   -0.9323832   -6.4884365 
H     2.2139348   -1.4429027   -5.9460330 
H     2.0619432   -0.0814958   -2.4677107 
H     2.6591501    0.8164036   -3.8786350 
H     3.0779827   -0.9144124   -3.6787371 
H    -1.6490201    4.0541278    2.9356692 
H    -3.8437650    3.3679248   -2.7411945 
H    -4.2053623    3.1780712   -4.4808618 
H    -3.0001111    4.3645453   -3.9549546 
H    -4.0099334    0.3156405   -3.8548925 
H    -5.4924444    1.2607337   -3.5413256 
H    -5.3901550   -0.4210740   -3.0002019 
H    -1.1853302    3.0069867   -7.0784648 
H    -1.6955275    4.2661365   -5.9214971 
H    -2.8879902    3.1140555   -6.5509674 
H    -7.0993511    0.8404631    0.1677825 
H    -6.7048748   -0.3839313   -1.0673660 
H    -7.0686043    1.2781529   -1.5630850 
