125
Energy =
C    -1.4462664   -2.1986561    1.5101141 
C    -0.3353262   -2.8803271    2.0753853 
C     0.4530726   -2.2879420    3.0975902 
H     0.0276974   -3.7942322    1.5905147 
Pd    0.4363679   -0.9728219    1.2659559 
P     2.3185736    0.3575350    1.4353678 
P    -0.2429273    0.6103970   -0.2191425 
H    -1.9309230   -1.4239385    2.1231001 
H    -0.0342201   -1.5181119    3.7154393 
C    -3.8897757   -3.5981373   -1.7427732 
C    -4.1568099   -2.3701229   -1.1189388 
C    -3.3516607   -1.9259476   -0.0664038 
C    -2.2586718   -2.7009585    0.3850494 
C    -2.0033357   -3.9379586   -0.2506516 
C    -2.8107847   -4.3800578   -1.3038911 
H    -4.5199683   -3.9457316   -2.5674494 
H    -4.9963312   -1.7538464   -1.4547375 
H    -3.5574198   -0.9617896    0.4078637 
H    -1.1774202   -4.5732840    0.0841867 
H    -2.6008257   -5.3433823   -1.7799627 
C     4.0212406   -3.8905926    4.8960997 
C     3.3563528   -2.7963411    5.4691302 
C     2.1902994   -2.2961969    4.8762304 
C     1.6682089   -2.8702914    3.6925620 
C     2.3437433   -3.9815681    3.1357080 
C     3.5040344   -4.4848077    3.7325090 
H     4.9310386   -4.2867813    5.3580439 
H     3.7409644   -2.3360056    6.3849088 
H     1.6643608   -1.4554888    5.3424392 
H     1.9656608   -4.4521740    2.2227056 
H     4.0110473   -5.3480088    3.2888669 
O     0.6749591    1.9692688   -0.0230099 
O    -1.8119980    1.0300493    0.0237173 
O    -0.0801028    0.5618915   -1.8514680 
C     3.4281278    0.5500590    2.9529082 
C     3.6973030    0.2327545    0.1692810 
C     4.8816691    0.9215776    0.9122486 
C     4.8694365    0.4548063    2.3802480 
C     4.0002573   -1.1741052   -0.3103298 
C     3.0275863    1.8039075    3.7114428 
C     1.6280292    2.0663516    1.0480222 
C     3.7018617    3.0310264    3.5610312 
C     3.8542666   -2.3053537    0.5148600 
C     1.8801654    1.7640431    4.5333073 
C     4.4892814   -1.3532163   -1.6191383 
C    -2.8311502    3.2964440    1.6141443 
C     0.5307970   -1.9261874   -3.3342993 
C    -2.4533755    2.0411481   -2.0695183 
C    -2.3120555    0.6992185   -2.7260380 
C    -0.8446757   -1.2210180   -3.3312275 
C    -2.7283026    3.2861098    0.0704698 
C    -2.3370712    2.1544959   -0.6689363 
C    -1.1017055   -0.0204753   -2.6400486 
C     4.1888744   -3.5830205    0.0428363 
C     3.2403102    4.1851306    4.2129796 
C     4.8226003   -2.6290340   -2.0932319 
C     1.4158899    2.9161529    5.1802915 
C    -3.3924850    0.1333064   -3.4516330 
C    -2.7886179    3.2004049   -2.8152336 
C    -1.9279162   -1.7106698   -4.0845230 
C    -3.1152221    4.3917446   -0.7112283 
C     4.6730722   -3.7497691   -1.2625263 
C     2.0946791    4.1342288    5.0193397 
C    -3.1058011    4.3902683   -2.1160075 
C    -3.1821559   -1.0840947   -4.1412276 
C    -1.4541811    3.0819147    2.2898009 
C    -3.3927600    4.6407605    2.1296800 
C    -3.8053325    2.1723398    2.0579441 
C     1.6036560   -0.9556176   -3.8937976 
C     0.9259256   -2.3944998   -1.9124089 
C     0.5170386   -3.1838072   -4.2329610 
C    -4.7621863    0.7732610   -3.4836774 
C    -2.7918692    3.2004850   -4.3270049 
C    -4.3010183   -1.7187250   -4.9358090 
C    -3.4654651    5.6501878   -2.8712166 
H     3.3792169    0.8383678   -0.6980321 
H     3.2141507   -0.3295613    3.5846959 
H     4.7537735    2.0185666    0.8568535 
H     5.8355388    0.6793420    0.4132899 
H     5.1935880   -0.5989469    2.4269928 
H     5.5746940    1.0332954    3.0007353 
H     1.1629154    2.4866257    1.9534822 
H     2.4217697    2.7474098    0.7017720 
H     3.4670261   -2.2008642    1.5359187 
H     4.5977677    3.0968018    2.9351893 
H     4.6007214   -0.4839760   -2.2768637 
H     1.3406598    0.8177825    4.6570260 
H     4.0737085   -4.4499463    0.7007600 
H     3.7819926    5.1285382    4.0885546 
H     5.1949734   -2.7479813   -3.1160213 
H     0.5249207    2.8624205    5.8146364 
H    -1.8038573   -2.6383819   -4.6471685 
H    -3.4241937    5.3124434   -0.2107389 
H     4.9323640   -4.7475425   -1.6309075 
H     1.7360538    5.0363547    5.5250418 
H    -0.7150539    3.8115593    1.9169159 
H    -1.0699169    2.0643724    2.1147973 
H    -1.5464276    3.2166118    3.3821974 
H    -4.3947161    4.8527161    1.7188027 
H    -2.7267910    5.4864930    1.8842621 
H    -3.4363940    1.1788454    1.7553211 
H    -4.8035311    2.3231085    1.6119352 
H    -3.9157063    2.1796956    3.1573773 
H     1.7136316   -0.0629139   -3.2580942 
H     1.3341728   -0.6262877   -4.9123297 
H     2.5798981   -1.4686795   -3.9430592 
H     0.1419134   -3.0425859   -1.4866229 
H     1.0837831   -1.5468636   -1.2250835 
H     1.8729441   -2.9598914   -1.9445142 
H     0.2802386   -2.9401741   -5.2830450 
H    -0.2074400   -3.9360943   -3.8742001 
H     1.5178836   -3.6486204   -4.2159041 
H    -3.4863461    4.5970408    3.2284145 
H    -5.5386064    0.0339343   -3.2165527 
H    -5.0143778    1.1382077   -4.4962738 
H    -4.8438390    1.6193883   -2.7859788 
H    -2.4326265    2.2472621   -4.7418683 
H    -2.1403006    4.0067201   -4.7092603 
H    -3.8028116    3.3940681   -4.7302710 
H    -5.1603922   -1.9758510   -4.2880659 
H    -3.9639977   -2.6429208   -5.4320046 
H    -4.6873954   -1.0345997   -5.7131388 
H    -3.7224865    6.4700883   -2.1816264 
H    -4.3267727    5.4877277   -3.5449127 
H    -2.6266550    5.9907219   -3.5063071 
