125
Energy =
C    -1.4872372   -2.0503311    1.4989551 
C    -0.3948065   -2.7206884    2.1220284 
C     0.2957327   -2.0836207    3.1894420 
H     0.0339694   -3.6161204    1.6554012 
Pd    0.3674390   -0.7999235    1.3748692 
P     2.4876039    0.1274271    1.4470281 
P     0.0254423    0.5413641   -0.4289259 
H    -2.0616498   -1.3520136    2.1232306 
H    -0.2756277   -1.3359333    3.7630886 
C    -3.5357298   -3.2529325   -2.0807075 
C    -4.1247717   -2.3493457   -1.1844238 
C    -3.4451819   -1.9609403   -0.0253104 
C    -2.1693064   -2.4888717    0.2697215 
C    -1.5845311   -3.3980431   -0.6407925 
C    -2.2603865   -3.7737816   -1.8046358 
H    -4.0654388   -3.5495283   -2.9917584 
H    -5.1198480   -1.9434946   -1.3880759 
H    -3.9018560   -1.2347172    0.6559839 
H    -0.5840470   -3.7969661   -0.4465891 
H    -1.7901113   -4.4717983   -2.5048508 
C     3.8639455   -3.3741022    5.2144146 
C     3.0742089   -2.3395199    5.7390118 
C     1.9100659   -1.9420864    5.0699790 
C     1.5165258   -2.5634398    3.8605798 
C     2.3240533   -3.6000185    3.3415377 
C     3.4802206   -4.0027281    4.0177645 
H     4.7706975   -3.6940667    5.7378452 
H     3.3594218   -1.8484373    6.6750301 
H     1.2859765   -1.1455500    5.4917758 
H     2.0629344   -4.0847569    2.3958076 
H     4.0912780   -4.8099146    3.6018519 
O     1.4486278    1.2859266   -0.8123487 
O    -0.9084525    1.8974805   -0.3206119 
O    -0.4261248   -0.1909153   -1.8091519 
C     3.3120673    0.8076961    2.9916013 
C     3.9871957   -0.9067976    0.9031342 
C     4.9701666   -0.7792212    2.0962889 
C     4.8174179    0.6196511    2.7113865 
C     3.6828699   -2.3217396    0.4310248 
C     2.7828304    2.1661539    3.3950548 
C     2.3928007    1.5700017    0.2304642 
C     3.4097984    3.3666549    3.0049831 
C     2.6023290   -2.5797710   -0.4371085 
C     1.5923461    2.2418496    4.1471142 
C     4.5036189   -3.4035051    0.8055651 
C    -2.6419788    2.5660396    2.0073737 
C     1.0637140   -0.7973724   -4.3039089 
C    -2.7812931    1.4015862   -1.7292224 
C    -1.8546947    1.4161792   -2.9103592 
C    -0.0140970    0.3026840   -4.1636271 
C    -3.1481835    2.0006711    0.6594429 
C    -2.3093874    1.7479095   -0.4452399 
C    -0.7553773    0.5348251   -2.9881169 
C     2.3316169   -3.8772804   -0.8918538 
C     2.8581031    4.6077810    3.3563156 
C     4.2356901   -4.7039599    0.3522033 
C     1.0424119    3.4806524    4.5000897 
C    -2.1080237    2.2831836   -4.0060191 
C    -4.1602579    1.1121081   -1.8965691 
C    -0.3549893    1.1351838   -5.2469607 
C    -4.5158128    1.7529363    0.4301230 
C     3.1425352   -4.9495750   -0.4899152 
C     1.6722239    4.6694582    4.1021390 
C    -5.0281273    1.2840810   -0.7909294 
C    -1.3344801    2.1379468   -5.1819993 
C    -1.8314535    1.4941262    2.7729341 
C    -1.7684566    3.8268119    1.7711799 
C    -3.8189835    2.9862558    2.9187459 
C     2.3243570   -0.4253558   -3.4855380 
C     0.4929354   -2.1606160   -3.8315167 
C     1.5017810   -0.9732177   -5.7764731 
C    -3.1560333    3.3716424   -3.9412701 
C    -4.7205617    0.6316067   -3.2158426 
C    -1.5723296    3.0359454   -6.3753632 
C    -6.5087563    1.0041868   -0.9236082 
H     4.3971727   -0.3385506    0.0448625 
H     3.0187253    0.0673937    3.7610917 
H     6.0055545   -0.9680883    1.7653929 
H     4.7178092   -1.5407416    2.8573310 
H     5.3991486    0.7250104    3.6433543 
H     5.1861797    1.3867030    2.0056156 
H     2.0940202    2.4750756    0.7900054 
H     3.3601225    1.7491112   -0.2651036 
H     1.9671110   -1.7560998   -0.7795870 
H     4.3400328    3.3409209    2.4278174 
H     5.3616935   -3.2427419    1.4635825 
H     1.0964513    1.3154561    4.4596141 
H     1.4958688   -4.0430463   -1.5780758 
H     3.3619553    5.5300631    3.0492522 
H     4.8880422   -5.5277630    0.6604910 
H     0.1224447    3.5192994    5.0927349 
H     0.1840240    1.0179904   -6.1899366 
H    -5.2274744    1.9244155    1.2412532 
H     2.9335681   -5.9642855   -0.8437487 
H     1.2447639    5.6387708    4.3777589 
H    -0.9483165    1.1516103    2.1993744 
H    -2.4627902    0.6148774    2.9920261 
H    -1.4672854    1.9011333    3.7316307 
H    -2.3399714    4.5921486    1.2181849 
H    -0.8558555    3.5982819    1.2017327 
H    -4.4544529    2.1297135    3.2036087 
H    -4.4546445    3.7492078    2.4373307 
H    -3.4172598    3.4224234    3.8495864 
H     2.0938887   -0.2871735   -2.4211265 
H     2.7610012    0.5181935   -3.8564347 
H     3.0842300   -1.2220945   -3.5775639 
H    -0.3986819   -2.4324765   -4.4232295 
H     0.2007496   -2.1433720   -2.7716038 
H     1.2530138   -2.9496059   -3.9747472 
H     1.9929687   -0.0694777   -6.1764349 
H     0.6501973   -1.2290260   -6.4307843 
H     2.2326037   -1.7980238   -5.8373092 
H    -1.4673505    4.2574483    2.7422703 
H    -3.6143029    3.4524176   -2.9448410 
H    -3.9612162    3.2045693   -4.6800471 
H    -2.7019284    4.3483964   -4.1871829 
H    -3.9272094    0.3698476   -3.9309181 
H    -5.3645219    1.4001204   -3.6818305 
H    -5.3541767   -0.2595521   -3.0673225 
H    -0.9184913    2.7606838   -7.2182928 
H    -1.3766674    4.0955216   -6.1263074 
H    -2.6201255    2.9805960   -6.7234196 
H    -7.0448700    1.2368966    0.0103369 
H    -6.7015590   -0.0575346   -1.1673827 
H    -6.9627574    1.6003468   -1.7358955 
