125
Energy =
C    -1.3915583   -2.0910367    1.5309564 
C    -0.2674114   -2.7329789    2.1272693 
C     0.4336077   -2.0786985    3.1770290 
H     0.1723093   -3.6172691    1.6497251 
Pd    0.4253196   -0.7932273    1.3614418 
P     2.5225862    0.1874887    1.3778259 
P    -0.0007636    0.5426930   -0.4280840 
H    -1.9689599   -1.4074988    2.1687055 
H    -0.1409508   -1.3448270    3.7650666 
C    -3.4946062   -3.3535563   -1.9962709 
C    -4.0821332   -2.4581464   -1.0907792 
C    -3.3846796   -2.0495374    0.0506608 
C    -2.0913806   -2.5487085    0.3186967 
C    -1.5080129   -3.4492206   -0.6012775 
C    -2.2021761   -3.8452336   -1.7475286 
H    -4.0388870   -3.6666032   -2.8931192 
H    -5.0901440   -2.0748000   -1.2732192 
H    -3.8411032   -1.3297776    0.7389702 
H    -0.4951460   -3.8260263   -0.4283663 
H    -1.7331716   -4.5365530   -2.4552274 
C     4.0874522   -3.2748494    5.1050805 
C     3.2879638   -2.2574998    5.6482904 
C     2.0958669   -1.8913099    5.0113878 
C     1.6834720   -2.5269604    3.8157392 
C     2.5007133   -3.5462318    3.2779469 
C     3.6850806   -3.9179686    3.9223332 
H     5.0163363   -3.5703801    5.6034674 
H     3.5877349   -1.7555270    6.5739286 
H     1.4648691   -1.1083048    5.4479585 
H     2.2246128   -4.0415423    2.3419903 
H     4.3034747   -4.7119894    3.4921390 
O     1.3909583    1.3253947   -0.8487616 
O    -0.9666984    1.8733003   -0.2890653 
O    -0.4721544   -0.1975464   -1.7976256 
C     3.3712689    0.8877625    2.9002778 
C     4.0314172   -0.8112579    0.7946158 
C     5.0407490   -0.6623568    1.9629522 
C     4.8728036    0.7330293    2.5818718 
C     3.7476543   -2.2322719    0.3280002 
C     2.8225610    2.2344193    3.3170881 
C     2.3599745    1.6278054    0.1656315 
C     1.6478531    2.2842832    4.0957070 
C     4.6008792   -3.2958860    0.6813180 
C     3.4153502    3.4481965    2.9149581 
C     2.6529746   -2.5133360   -0.5148828 
C    -2.6536901    2.4914830    2.0866862 
C     0.9638840   -0.7581297   -4.3344203 
C    -2.8637588    1.3329414   -1.6481635 
C    -1.9703480    1.3758538   -2.8537199 
C    -0.1367519    0.3140652   -4.1605308 
C    -3.1810578    1.9151046    0.7516117 
C    -2.3661944    1.6875367   -0.3762112 
C    -0.8514746    0.5232049   -2.9644943 
C     4.3514241   -4.6014419    0.2320266 
C     1.0802513    3.5108623    4.4630445 
C     2.4008170   -3.8159158   -0.9657759 
C     2.8461901    4.6770956    3.2812085 
C    -2.2753706    2.2398411   -3.9384667 
C    -4.2386374    1.0075774   -1.7791614 
C    -0.5274948    1.1417184   -5.2306825 
C    -4.5473049    1.6310514    0.5588680 
C     3.2447349   -4.8703096   -0.5849355 
C     1.6763737    4.7130740    4.0535820 
C    -5.0800864    1.1520602   -0.6494318 
C    -1.5300712    2.1188942   -5.1352487 
C    -3.8162585    2.8784783    3.0307302 
C    -1.7940887    1.4404627    2.8271389 
C    -1.8211657    3.7756480    1.8294725 
C     2.2365792   -0.3577824   -3.5487429 
C     0.4402280   -2.1369702   -3.8525442 
C     1.3661867   -0.9176044   -5.8189586 
C    -3.3492690    3.3002872   -3.8411134 
C    -4.8221068    0.5179308   -3.0849887 
C    -1.8226095    3.0150279   -6.3177751 
C    -6.5555134    0.8316674   -0.7425769 
H     4.4069282   -0.2329864   -0.0727441 
H     3.1144523    0.1417764    3.6773883 
H     6.0714076   -0.8287577    1.6062441 
H     4.8240954   -1.4290197    2.7298704 
H     5.4755375    0.8516785    3.4987588 
H     5.2062912    1.5076132    1.8668873 
H     2.0590436    2.5258910    0.7351761 
H     3.3079683    1.8277091   -0.3585306 
H     5.4704840   -3.1167390    1.3191248 
H     1.1786002    1.3473382    4.4177197 
H     1.9917039   -1.7036232   -0.8409440 
H     4.3324508    3.4426600    2.3166350 
H     5.0289205   -5.4109049    0.5236441 
H     0.1730474    3.5295121    5.0759902 
H     1.5532150   -3.9992455   -1.6327188 
H     3.3239874    5.6100860    2.9649731 
H    -0.0111580    1.0418337   -6.1882372 
H    -5.2408577    1.7809372    1.3897252 
H     3.0505058   -5.8889054   -0.9360023 
H     1.2353811    5.6729113    4.3407948 
H    -4.4205037    2.0047087    3.3308499 
H    -4.4850201    3.6248232    2.5685503 
H    -3.4010670    3.3237190    3.9512909 
H    -0.9185827    1.1225183    2.2283759 
H    -2.3954868    0.5443896    3.0618418 
H    -2.4277706    4.5258474    1.2933299 
H    -0.9183114    3.5724641    1.2354650 
H    -1.5059688    4.2133369    2.7929040 
H     2.0316624   -0.2296827   -2.4778428 
H     2.6391398    0.5979295   -3.9268947 
H     3.0134291   -1.1347841   -3.6649310 
H    -0.4602875   -2.4289898   -4.4207689 
H     0.1768481   -2.1311085   -2.7849056 
H     1.2154411   -2.9062507   -4.0200464 
H     1.8238522   -0.0004294   -6.2279666 
H     0.5037709   -1.1919833   -6.4511649 
H     2.1152760   -1.7237773   -5.9031412 
H    -1.4143617    1.8555310    3.7763386 
H    -4.1697288    3.1143260   -4.5582661 
H    -2.9278735    4.2894218   -4.0956194 
H    -3.7820703    3.3659661   -2.8322366 
H    -4.0420909    0.2804469   -3.8228469 
H    -5.4988146    1.2710719   -3.5291535 
H    -5.4275939   -0.3903698   -2.9237292 
H    -2.8776542    2.9343136   -6.6378097 
H    -1.1849180    2.7597752   -7.1791612 
H    -1.6473286    4.0782776   -6.0692390 
H    -7.0720538    1.0467777    0.2064870 
H    -6.7253235   -0.2343889   -0.9846379 
H    -7.0479358    1.4171872   -1.5400749 
