125
Energy =
C    -1.3903400   -2.0784844    1.6234508 
C    -0.2885824   -2.8022837    2.1440694 
C     0.5782457   -2.2276035    3.1148884 
H    -0.0029399   -3.7467663    1.6661071 
Pd    0.5578481   -0.9577991    1.2574777 
P     2.4476993    0.3646100    1.4286998 
P    -0.0752147    0.4989470   -0.3829530 
H    -1.7676349   -1.2342447    2.2207022 
H     0.1493925   -1.4362669    3.7476045 
C    -4.1953910   -3.4606510   -1.3261000 
C    -4.2867810   -2.1630136   -0.7997992 
C    -3.3603980   -1.7221935    0.1488085 
C    -2.3222372   -2.5731552    0.5940479 
C    -2.2437947   -3.8794994    0.0580582 
C    -3.1706025   -4.3161715   -0.8945075 
H    -4.9201770   -3.8045062   -2.0708590 
H    -5.0826681   -1.4898845   -1.1322492 
H    -3.4237476   -0.7031677    0.5425733 
H    -1.4671162   -4.5719644    0.3973594 
H    -3.0988531   -5.3329840   -1.2939748 
C     4.1480346   -3.9914175    4.7586693 
C     3.5950603   -2.8308121    5.3209489 
C     2.4253267   -2.2792440    4.7835211 
C     1.7887215   -2.8657944    3.6637191 
C     2.3484418   -4.0470790    3.1223460 
C     3.5127660   -4.6015120    3.6641474 
H     5.0604112   -4.4269472    5.1781933 
H     4.0689312   -2.3599406    6.1884281 
H     1.9860458   -1.3888142    5.2470395 
H     1.8781358   -4.5338288    2.2621916 
H     3.9298059   -5.5156200    3.2291031 
O     0.9618064    1.7840480   -0.4007686 
O    -1.5756331    1.0893577   -0.0756691 
O    -0.0660984    0.2889699   -2.0109252 
C     3.2821402    0.8660555    3.0418018 
C     4.0564052   -0.0693158    0.5256187 
C     5.1286326   -0.0139534    1.6521412 
C     4.7492803    1.1100311    2.6258406 
C     4.0361543   -1.3602688   -0.2620963 
C     2.5301027    1.9572951    3.7773178 
C     1.8815666    1.9955175    0.6764050 
C     2.9524198    3.3013879    3.7683299 
C     4.3288239   -1.3663356   -1.6378684 
C     1.3406854    1.6344339    4.4643641 
C     3.7895780   -2.5876688    0.3844722 
C    -1.9357145    3.7625977    1.3604029 
C     0.1201860   -2.3483569   -3.3101935 
C    -2.2736500    2.0297317   -2.1724806 
C    -2.3454123    0.6324164   -2.7129662 
C    -1.1619089   -1.4886406   -3.2626012 
C    -2.1072532    3.4736699   -0.1515829 
C    -1.9991045    2.2340324   -0.8005139 
C    -1.2186281   -0.2169410   -2.6598423 
C     4.4021528   -2.5755742   -2.3463562 
C     2.2076578    4.2905984    4.4288103 
C     3.8582285   -3.7942200   -0.3217841 
C     0.5991593    2.6193823    5.1279784 
C    -3.5401268    0.1450062   -3.3036720 
C    -2.5219100    3.1548477   -2.9946406 
C    -2.3524188   -1.9010089   -3.8894239 
C    -2.4189971    4.5551254   -1.0046078 
C     4.1741176   -3.7928805   -1.6900297 
C     1.0300312    3.9545006    5.1109113 
C    -2.5890037    4.4363144   -2.3894073 
C    -3.5279654   -1.1355005   -3.9047510 
C    -0.7358968    4.7266202    1.5514704 
C    -3.2315354    4.4486402    1.8742494 
C    -1.7099535    2.5241650    2.2597429 
C    -0.1386275   -3.7017439   -4.0107490 
C     1.2056613   -1.5876158   -4.1158221 
C     0.6469780   -2.6689627   -1.8886602 
C    -4.8278670    0.9375869   -3.2806876 
C    -2.6867495    3.0318199   -4.4920889 
C    -4.7748815   -1.6905925   -4.5551322 
C    -2.8577706    5.6669816   -3.2261106 
H     4.2229040    0.7747258   -0.1678217 
H     3.2461862   -0.0641883    3.6408242 
H     6.1277552    0.1326949    1.2083433 
H     5.1487853   -0.9814991    2.1860175 
H     5.4038551    1.1289082    3.5147639 
H     4.8536644    2.0884661    2.1218567 
H     1.4142548    2.5921368    1.4789487 
H     2.7310384    2.5591981    0.2582044 
H     4.5164213   -0.4198726   -2.1578784 
H     3.8736889    3.5873493    3.2514534 
H     3.5575163   -2.6028915    1.4550714 
H     0.9933464    0.5960321    4.4771246 
H     4.6442211   -2.5637639   -3.4139377 
H     2.5559018    5.3285039    4.4132923 
H     3.6746623   -4.7396722    0.2000213 
H    -0.3167506    2.3434045    5.6606322 
H    -2.3820229   -2.8772695   -4.3779831 
H    -2.5085281    5.5551583   -0.5671938 
H     4.2384114   -4.7362168   -2.2420763 
H     0.4538698    4.7269078    5.6303259 
H    -0.9069198    5.6956203    1.0530154 
H     0.1850241    4.2929599    1.1266872 
H    -0.5641803    4.9183689    2.6254769 
H    -4.1007971    3.7781545    1.7580761 
H    -3.4497953    5.3854071    1.3355705 
H    -0.7410403    2.0315941    2.0783710 
H    -2.5044486    1.7714622    2.1330952 
H    -1.7108310    2.8562456    3.3118597 
H    -0.4703695   -3.5730028   -5.0553455 
H    -0.8945586   -4.3013956   -3.4728834 
H     0.7997626   -4.2822578   -4.0309511 
H     1.4641410   -0.6299577   -3.6359998 
H     0.8546274   -1.3821317   -5.1420174 
H     2.1223618   -2.1996728   -4.1790429 
H    -0.1646610   -3.0564799   -1.2507103 
H     1.0939455   -1.7892340   -1.3995811 
H     1.4397259   -3.4325614   -1.9448743 
H    -3.1255817    4.6956653    2.9456697 
H    -5.6524816    0.3208911   -2.8788622 
H    -5.1342870    1.2426804   -4.2980707 
H    -4.7490777    1.8433160   -2.6618778 
H    -2.4978141    2.0082055   -4.8472831 
H    -1.9836417    3.7084660   -5.0100630 
H    -3.7027361    3.3268613   -4.8127600 
H    -5.5969874   -1.8024132   -3.8227793 
H    -4.5852760   -2.6793135   -5.0028663 
H    -5.1524281   -1.0220875   -5.3500992 
H    -2.9168286    6.5712640   -2.5994421 
H    -3.8064058    5.5768542   -3.7862448 
H    -2.0606716    5.8249186   -3.9761936 
