125
Energy =
C    -1.4740985   -2.2854960    1.4648447 
C    -0.3637528   -2.9626287    2.0347118 
C     0.4121840   -2.3667172    3.0655114 
H     0.0074493   -3.8740342    1.5512724 
Pd    0.4044385   -1.0464441    1.2429879 
P     2.2509012    0.3185513    1.4789650 
P    -0.2652484    0.5378685   -0.2481657 
H    -1.9601722   -1.5089000    2.0744848 
H    -0.0896160   -1.6086999    3.6862363 
C    -3.9289775   -3.6982680   -1.7715408 
C    -4.1914820   -2.4662481   -1.1535636 
C    -3.3785681   -2.0150027   -0.1102268 
C    -2.2850039   -2.7896646    0.3404003 
C    -2.0320233   -4.0293856   -0.2908049 
C    -2.8456779   -4.4767561   -1.3371308 
H    -4.5653235   -4.0507382   -2.5894297 
H    -5.0334164   -1.8523106   -1.4873781 
H    -3.5765993   -1.0453973    0.3570338 
H    -1.2044366   -4.6629778    0.0432728 
H    -2.6381987   -5.4421629   -1.8100685 
C     3.9786620   -3.9518229    4.8830220 
C     3.2865135   -2.8827319    5.4709694 
C     2.1219683   -2.3872400    4.8709745 
C     1.6283848   -2.9416450    3.6659348 
C     2.3318940   -4.0270688    3.0930687 
C     3.4906705   -4.5255998    3.6967139 
H     4.8873864   -4.3441752    5.3503443 
H     3.6485182   -2.4387169    6.4038740 
H     1.5744940   -1.5668070    5.3485508 
H     1.9779814   -4.4792619    2.1612471 
H     4.0198873   -5.3685916    3.2402692 
O     0.6478391    1.9006336   -0.0348226 
O    -1.8280454    0.9666436   -0.0045113 
O    -0.1150727    0.5123621   -1.8829428 
C     3.3161226    0.5192452    3.0247884 
C     3.6566972    0.2514309    0.2400405 
C     4.8159749    0.9391325    1.0234905 
C     4.7731236    0.4609439    2.4880199 
C     3.9762153   -1.1383902   -0.2764653 
C     2.8575452    1.7590813    3.7739694 
C     1.5242771    2.0129217    1.0982042 
C     3.4981793    3.0064185    3.6450807 
C     3.8695942   -2.2878628    0.5299830 
C     1.6809751    1.6849731    4.5516239 
C     4.4299705   -1.2845399   -1.6018561 
C    -2.4132744    3.5063191    1.5940272 
C     0.4592829   -1.9723349   -3.3761441 
C    -2.4842382    2.0070732   -2.0650691 
C    -2.3700556    0.6584780   -2.7142556 
C    -0.9146196   -1.2630016   -3.3500812 
C    -2.5340485    3.3051647    0.0616772 
C    -2.3004129    2.1294012   -0.6679852 
C    -1.1562964   -0.0620019   -2.6543061 
C     4.2126513   -3.5502775    0.0247391 
C     2.9732341    4.1477605    4.2712440 
C     4.7719788   -2.5454599   -2.1088806 
C     1.1530727    2.8243338    5.1717569 
C    -3.4627673    0.0939370   -3.4210913 
C    -2.8009187    3.1651651   -2.8150106 
C    -2.0119977   -1.7501741   -4.0846158 
C    -2.9101420    4.4151743   -0.7262292 
C     4.6650036   -3.6837588   -1.2959473 
C     1.7971690    4.0635517    5.0297202 
C    -3.0176642    4.3843181   -2.1220443 
C    -3.2660988   -1.1217563   -4.1178848 
C    -2.1211082    2.2317118    2.4229899 
C    -1.2785988    4.5296416    1.8648195 
C    -3.7584874    4.0748192    2.1229474 
C     1.5231578   -1.0095741   -3.9656223 
C     0.8866948   -2.4302274   -1.9594896 
C     0.4214465   -3.2373131   -4.2637629 
C    -4.8314244    0.7366100   -3.4261997 
C    -2.8818563    3.1462416   -4.3242899 
C    -4.3991677   -1.7515934   -4.8958561 
C    -3.3684006    5.6452592   -2.8797669 
H     3.3457324    0.8781532   -0.6146119 
H     3.1071954   -0.3690523    3.6458944 
H     4.6802120    2.0354279    0.9746383 
H     5.7847001    0.7102145    0.5474780 
H     5.1190785   -0.5857538    2.5374035 
H     5.4493670    1.0501716    3.1305217 
H     0.9869007    2.3922766    1.9827923 
H     2.3087130    2.7340002    0.8190740 
H     3.5066983   -2.2096718    1.5622000 
H     4.4154308    3.0982192    3.0544301 
H     4.5069355   -0.4017699   -2.2464753 
H     1.1674902    0.7222683    4.6588279 
H     4.1289620   -4.4314172    0.6685461 
H     3.4887568    5.1077437    4.1636898 
H     5.1178298   -2.6387791   -3.1435788 
H     0.2389270    2.7442308    5.7692651 
H    -1.8997469   -2.6774617   -4.6503685 
H    -3.1042614    5.3692423   -0.2249304 
H     4.9312719   -4.6697289   -1.6902466 
H     1.3882528    4.9563371    5.5134102 
H    -1.1237436    1.8093825    2.2219776 
H    -2.8666478    1.4405979    2.2423474 
H    -2.1538718    2.4999267    3.4938295 
H    -1.5052680    5.5147822    1.4233796 
H    -0.3272247    4.1808706    1.4295455 
H    -4.5810805    3.3602939    1.9460183 
H    -4.0270798    5.0294309    1.6414733 
H    -3.6868497    4.2582364    3.2097554 
H     1.6405768   -0.1072580   -3.3450501 
H     1.2397142   -0.6964633   -4.9854763 
H     2.4997117   -1.5221178   -4.0198647 
H     0.1025941   -3.0556187   -1.5006910 
H     1.0869204   -1.5776404   -1.2903357 
H     1.8196809   -3.0172229   -2.0130587 
H     0.1619398   -3.0016924   -5.3102620 
H    -0.2972935   -3.9840112   -3.8823659 
H     1.4209432   -3.7053191   -4.2657588 
H    -1.1361872    4.6678437    2.9517214 
H    -5.6025332    0.0029777   -3.1289394 
H    -5.1095294    1.0888688   -4.4363831 
H    -4.8924432    1.5916505   -2.7371944 
H    -2.5727414    2.1779040   -4.7440419 
H    -2.2283624    3.9278839   -4.7512623 
H    -3.9066801    3.3645096   -4.6768656 
H    -5.2509991   -2.0037506   -4.2364749 
H    -4.0737738   -2.6776864   -5.3962545 
H    -4.7926721   -1.0658484   -5.6682512 
H    -3.5414643    6.4890814   -2.1928299 
H    -4.2791425    5.5099885   -3.4912610 
H    -2.5591869    5.9343424   -3.5757590 
