125
Energy =
C    -1.3081814   -2.1513558    1.4668996 
C    -0.1823792   -2.8696303    1.9448601 
C     0.6476026   -2.3455256    2.9715314 
H     0.1492180   -3.7579889    1.3945226 
Pd    0.5892903   -0.9264299    1.2109709 
P     2.4609168    0.4140142    1.4550772 
P    -0.0904182    0.6347736   -0.3057693 
H    -1.7360349   -1.3828915    2.1287271 
H     0.1834810   -1.6140591    3.6498297 
C    -4.0180159   -3.4496896   -1.6093247 
C    -4.1698579   -2.1937847   -1.0021476 
C    -3.2735730   -1.7768420   -0.0142577 
C    -2.2044057   -2.6097915    0.3888359 
C    -2.0648042   -3.8738371   -0.2298320 
C    -2.9618452   -4.2870184   -1.2204566 
H    -4.7208419   -3.7761803   -2.3822370 
H    -4.9909839   -1.5349338   -1.3000834 
H    -3.3891741   -0.7913280    0.4465731 
H    -1.2650916   -4.5552869    0.0764903 
H    -2.8426618   -5.2722970   -1.6826755 
C     4.2309049   -4.1196971    4.5712452 
C     3.6571135   -2.9898127    5.1738612 
C     2.4837290   -2.4341142    4.6489688 
C     1.8655495   -2.9846496    3.5006834 
C     2.4465084   -4.1353697    2.9175998 
C     3.6136875   -4.6947740    3.4478583 
H     5.1452403   -4.5594744    4.9819572 
H     4.1174722   -2.5467128    6.0629481 
H     2.0279374   -1.5689100    5.1433043 
H     1.9894708   -4.5947417    2.0357505 
H     4.0469067   -5.5857867    2.9818376 
O     0.8961749    1.9530373   -0.2249490 
O    -1.6268447    1.1396979   -0.0126923 
O    -0.0129876    0.5054375   -1.9395660 
C     3.2599835    0.8281019    3.1073896 
C     4.0966489    0.0691707    0.5564212 
C     5.1634814    0.1528943    1.6881891 
C     4.7081594    1.1944010    2.7194793 
C     4.1534089   -1.2064605   -0.2545281 
C     2.4491332    1.7990093    3.9426534 
C     1.8918482    2.0866121    0.7957537 
C     2.8577844    3.1290526    4.1603264 
C     3.9365687   -2.4550647    0.3608912 
C     1.2308344    1.3713085    4.5127782 
C     4.5016885   -1.1743853   -1.6168591 
C    -2.4812989    3.5134112    1.5198791 
C     0.4220485   -2.0378610   -3.3727960 
C    -2.3225389    2.0944759   -2.1185882 
C    -2.2708186    0.7262759   -2.7296608 
C    -0.9204286   -1.2760598   -3.3333606 
C    -2.4608018    3.4301655   -0.0233890 
C    -2.1402746    2.2557536   -0.7296256 
C    -1.0938833   -0.0480138   -2.6653635 
C     4.0863274   -3.6441971   -0.3622667 
C     2.0743060    4.0010051    4.9329891 
C     4.6584130   -2.3658650   -2.3417836 
C     0.4504660    2.2382520    5.2864994 
C    -3.4035994    0.1933694   -3.3989477 
C    -2.6398166    3.2375508   -2.8971358 
C    -2.0518036   -1.7331485   -4.0339982 
C    -2.8395815    4.5186702   -0.8324855 
C     4.4567550   -3.6039892   -1.7162875 
C     0.8711097    3.5600582    5.5001509 
C    -2.8844071    4.4647408   -2.2351232 
C    -3.2766234   -1.0492090   -4.0629277 
C    -2.9922163    4.8899972    2.0020707 
C    -3.4429186    2.4299007    2.0768463 
C    -1.0694665    3.3091433    2.1183760 
C     1.4962921   -1.1378828   -4.0376813 
C     0.8796129   -2.4514434   -1.9529022 
C     0.3085285   -3.3365333   -4.2033484 
C    -4.7430724    0.8953947   -3.3979839 
C    -2.6983693    3.1816925   -4.4068659 
C    -4.4519523   -1.6481995   -4.8015208 
C    -3.2243810    5.7084910   -3.0252996 
H     4.2244251    0.9318477   -0.1215124 
H     3.2829949   -0.1530124    3.6212522 
H     6.1484383    0.3926819    1.2534533 
H     5.2546091   -0.8356818    2.1735164 
H     5.3585026    1.2038956    3.6118097 
H     4.7477743    2.2063194    2.2748868 
H     1.4957481    2.6663015    1.6465837 
H     2.7332836    2.6354973    0.3429920 
H     3.6629649   -2.5001975    1.4207793 
H     3.7994467    3.4935853    3.7388520 
H     4.6659236   -0.2111903   -2.1134228 
H     0.8919333    0.3443229    4.3432510 
H     3.9241942   -4.6060157    0.1356586 
H     2.4139690    5.0289120    5.0968194 
H     4.9443777   -2.3240628   -3.3977653 
H    -0.4883039    1.8816839    5.7229590 
H    -1.9913277   -2.6793445   -4.5759657 
H    -3.0943972    5.4684962   -0.3565897 
H     4.5847827   -4.5332663   -2.2808666 
H     0.2651658    4.2408125    6.1065829 
H    -4.0100362    5.1039155    1.6330925 
H    -2.3249774    5.7111937    1.6868479 
H    -3.0290711    4.8957400    3.1050691 
H    -3.1088056    1.4160685    1.8036432 
H    -4.4647601    2.5771653    1.6863754 
H    -0.3437237    3.9987778    1.6536871 
H    -0.7158820    2.2747759    1.9833989 
H    -1.0838197    3.5086379    3.2031345 
H     1.6681704   -0.2178261   -3.4571012 
H     1.1855305   -0.8544652   -5.0582960 
H     2.4519666   -1.6858220   -4.1058500 
H     0.0835985   -3.0151113   -1.4388251 
H     1.1497872   -1.5827005   -1.3306301 
H     1.7771362   -3.0882734   -2.0143909 
H     0.0285719   -3.1354202   -5.2517405 
H    -0.4283521   -4.0362252   -3.7704837 
H     1.2883731   -3.8444287   -4.2125517 
H    -3.4842882    2.4941553    3.1792403 
H    -5.5409965    0.2006201   -3.0790029 
H    -5.0192044    1.2423595   -4.4106285 
H    -4.7591041    1.7639265   -2.7235820 
H    -2.3940090    2.1996918   -4.7976667 
H    -2.0280037    3.9449070   -4.8414378 
H    -3.7141122    3.4038462   -4.7823287 
H    -5.3018918   -1.8409522   -4.1200043 
H    -4.1789640   -2.6026898   -5.2794550 
H    -4.8282773   -0.9678045   -5.5870628 
H    -3.4239244    6.5631707   -2.3592847 
H    -4.1158917    5.5548530   -3.6606351 
H    -2.3977923    5.9916967   -3.7031104 
