125
Energy =
C    -1.5751506   -2.1561071    1.3743092 
C    -0.4981933   -2.7965594    2.0649022 
C     0.1219378   -2.1154120    3.1452766 
H    -0.0352613   -3.6986822    1.6447629 
Pd    0.2558241   -0.8937859    1.2759473 
P     2.3790243    0.0244567    1.3022088 
P    -0.1047326    0.5049483   -0.4693950 
H    -2.2135701   -1.4846187    1.9655029 
H    -0.4912131   -1.3458641    3.6417001 
C    -3.3868811   -3.5282344   -2.2756069 
C    -4.1292542   -2.7941273   -1.3394545 
C    -3.5285555   -2.3423622   -0.1586262 
C    -2.1780515   -2.6436542    0.1195863 
C    -1.4391665   -3.3819702   -0.8327246 
C    -2.0355575   -3.8162177   -2.0192438 
H    -3.8558917   -3.8717451   -3.2032737 
H    -5.1839291   -2.5720018   -1.5290856 
H    -4.1086450   -1.7503967    0.5572960 
H    -0.3794190   -3.5876609   -0.6527778 
H    -1.4453260   -4.3767729   -2.7517763 
C     3.5910051   -3.1506382    5.4597094 
C     2.7074257   -2.1506477    5.8935742 
C     1.5768233   -1.8397253    5.1282686 
C     1.3089538   -2.5185590    3.9148510 
C     2.2096879   -3.5200491    3.4880128 
C     3.3345055   -3.8325567    4.2577809 
H     4.4742009   -3.4009417    6.0563310 
H     2.8957617   -1.6162996    6.8303089 
H     0.8839132   -1.0626695    5.4719585 
H     2.0456845   -4.0440807    2.5415850 
H     4.0204077   -4.6118086    3.9121005 
O     1.2976836    1.3104518   -0.8222719 
O    -1.0834589    1.8254962   -0.2859782 
O    -0.5612840   -0.1573099   -1.8750039 
C     3.3701463    0.4496365    2.8459990 
C     3.7770485   -0.8480230    0.3844538 
C     5.0200694   -0.1877728    1.0293730 
C     4.8010539   -0.0808417    2.5536543 
C     3.6797175   -2.3688671    0.4358303 
C     3.1703572    1.9209207    3.1594564 
C     2.1894135    1.5998454    0.2719776 
C     4.0691772    2.9187530    2.7361104 
C     4.6721528   -3.1774396    1.0186215 
C     1.9814392    2.3139872    3.8108075 
C     2.5811036   -3.0055235   -0.1828767 
C    -2.7735507    2.3392241    2.1048290 
C     1.2403692   -0.1077199   -4.3385240 
C    -2.9731989    1.2396991   -1.6467361 
C    -2.0949004    1.4084557   -2.8534142 
C    -0.0698669    0.6879189   -4.1141172 
C    -3.2838495    1.7277578    0.7769533 
C    -2.4755113    1.5800042   -0.3684509 
C    -0.8999444    0.6638123   -2.9829584 
C     4.5716615   -4.5777970    0.9872883 
C     3.7835378    4.2751725    2.9561317 
C     2.4764911   -4.4015289   -0.2122151 
C     1.6914262    3.6680576    4.0215452 
C    -2.4380964    2.3308306   -3.8723766 
C    -4.3261151    0.8349558   -1.7660592 
C    -0.4880261    1.5814699   -5.1242249 
C    -4.6316908    1.3579137    0.5981872 
C     3.4730245   -5.1967957    0.3776951 
C     2.5923119    4.6549816    3.5913525 
C    -5.1521364    0.8798247   -0.6162243 
C    -1.6160835    2.4044359   -5.0259684 
C    -1.7958183    1.3814563    2.8256652 
C    -2.0691079    3.6935573    1.8230993 
C    -3.9411510    2.6183352    3.0796199 
C     2.4219886    0.8974372   -4.2948136 
C     1.5264657   -1.2221368   -3.3050940 
C     1.1849581   -0.7924221   -5.7304332 
C    -3.6238273    3.2613872   -3.7527563 
C    -4.8992107    0.3622893   -3.0819868 
C    -1.9477692    3.3657872   -6.1455092 
C    -6.6014164    0.4550172   -0.6959320 
H     3.6728326   -0.5395202   -0.6723651 
H     2.9085917   -0.1485517    3.6501012 
H     5.1435522    0.8229943    0.5994558 
H     5.9413216   -0.7423626    0.7803958 
H     4.8892558   -1.0796762    3.0132749 
H     5.5617616    0.5610318    3.0289852 
H     1.7962139    2.4163433    0.9023944 
H     3.1437646    1.9141121   -0.1780101 
H     5.5452000   -2.7256629    1.4980244 
H     5.0014992    2.6445205    2.2308961 
H     1.8068644   -2.3973973   -0.6650956 
H     1.2764280    1.5451450    4.1491190 
H     5.3619591   -5.1848055    1.4411892 
H     4.4964319    5.0382682    2.6268204 
H     1.6239408   -4.8744051   -0.7116036 
H     0.7629024    3.9535451    4.5272320 
H     0.1177589    1.6604314   -6.0326459 
H    -5.3194513    1.4381989    1.4436164 
H     3.3972088   -6.2885089    0.3510762 
H     2.3703146    5.7140158    3.7568227 
H    -0.9272350    1.1181128    2.1923484 
H    -2.3083508    0.4464744    3.1131787 
H    -1.4073725    1.8530199    3.7460027 
H    -2.7593567    4.3882034    1.3141566 
H    -1.1753997    3.5705046    1.1933591 
H    -4.4608363    1.6930536    3.3841969 
H    -4.6822687    3.3078726    2.6403615 
H    -3.5444216    3.0905430    3.9948952 
H     2.4613602    1.3976904   -3.3114638 
H     2.3226492    1.6753763   -5.0709967 
H     3.3783165    0.3689588   -4.4620660 
H     0.6808465   -1.9209538   -3.1972698 
H     1.7587047   -0.8031718   -2.3149344 
H     2.4090074   -1.7952254   -3.6400185 
H     1.0763309   -0.0686228   -6.5546242 
H     0.3404690   -1.5015540   -5.7840261 
H     2.1195453   -1.3537051   -5.9056572 
H    -1.7592099    4.1566757    2.7771829 
H    -4.3962360    3.0291463   -4.5089907 
H    -3.3099375    4.3047913   -3.9335335 
H    -4.0922132    3.2157650   -2.7588706 
H    -4.1223177    0.2502175   -3.8523069 
H    -5.6642593    1.0640536   -3.4618243 
H    -5.3990536   -0.6137716   -2.9584360 
H    -2.9653368    3.1921712   -6.5406578 
H    -1.2364620    3.2656296   -6.9808340 
H    -1.9168170    4.4151275   -5.7977549 
H    -7.1114111    0.5862653    0.2717842 
H    -6.6949802   -0.6081952   -0.9864751 
H    -7.1540450    1.0378806   -1.4551432 
