125
Energy =
C    -1.3599904   -2.2004640    1.4032308 
C    -0.2313334   -2.8333753    2.0004167 
C     0.4246793   -2.2027973    3.0930294 
H     0.2464418   -3.6835672    1.4981294 
Pd    0.4201661   -0.8431739    1.3329297 
P     2.4849439    0.1984580    1.4402454 
P    -0.0070615    0.5565689   -0.4067911 
H    -1.9722066   -1.5604789    2.0535787 
H    -0.1858514   -1.5118388    3.6967663 
C    -3.3364102   -3.3677823   -2.2284476 
C    -2.0402441   -3.8404367   -1.9629156 
C    -1.3870446   -3.4756528   -0.7827337 
C    -2.0161108   -2.6260678    0.1554157 
C    -3.3131783   -2.1459116   -0.1287197 
C    -3.9693111   -2.5232057   -1.3048825 
H    -3.8483915   -3.6561445   -3.1521863 
H    -1.5361877   -4.4923457   -2.6837904 
H    -0.3709090   -3.8370232   -0.5965207 
H    -3.8051047   -1.4650185    0.5745745 
H    -4.9805646   -2.1552229   -1.5003741 
C     4.0674479   -3.3703121    5.0592489 
C     3.2230691   -2.4032839    5.6259808 
C     2.0355604   -2.0458961    4.9755767 
C     1.6723791   -2.6403044    3.7433540 
C     2.5343216   -3.6090707    3.1825110 
C     3.7142676   -3.9723430    3.8396981 
H     4.9931141   -3.6588472    5.5676236 
H     3.4842839   -1.9341607    6.5800951 
H     1.3697358   -1.3027081    5.4296142 
H     2.2965332   -4.0707149    2.2191683 
H     4.3678153   -4.7270100    3.3910040 
O     1.3700831    1.3955080   -0.7624020 
O    -1.0135175    1.8521170   -0.2282343 
O    -0.4288384   -0.1330104   -1.8182592 
C     3.2804413    0.8553307    3.0099041 
C     4.0351384   -0.7280492    0.8465221 
C     5.0161185   -0.5998105    2.0411441 
C     4.7921137    0.7612228    2.7164612 
C     3.8035696   -2.1351696    0.3137767 
C     2.6809575    2.1643811    3.4740493 
C     2.3040330    1.6850488    0.2881475 
C     3.2411050    3.4128312    3.1364334 
C     2.7379713   -2.4094031   -0.5678561 
C     1.4913710    2.1427295    4.2311067 
C     4.6770105   -3.1896333    0.6442694 
C    -2.7690385    2.3107562    2.1357951 
C     1.0748652   -0.5360922   -4.3459086 
C    -2.8651157    1.3228426   -1.6523381 
C    -1.9477425    1.4470690   -2.8339336 
C    -0.0583218    0.4971310   -4.1470926 
C    -3.2498753    1.7815081    0.7641446 
C    -2.4049435    1.6308239   -0.3544537 
C    -0.8037245    0.6306096   -2.9590732 
C     2.5328005   -3.6980195   -1.0786300 
C     2.6255092    4.6057944    3.5440862 
C     4.4744806   -4.4812950    0.1351587 
C     0.8777424    3.3333981    4.6402728 
C    -2.2530997    2.3532765   -3.8834084 
C    -4.2267046    0.9653106   -1.8295211 
C    -0.4483148    1.3645216   -5.1856860 
C    -4.6026403    1.4673842    0.5277245 
C     3.3958017   -4.7447962   -0.7201477 
C     1.4414937    4.5707053    4.2945709 
C    -5.0955298    1.0313156   -0.7133157 
C    -1.4788619    2.3095423   -5.0670873 
C    -1.8955647    1.2521629    2.8485091 
C    -1.9689331    3.6281962    1.9560597 
C    -3.9629185    2.6215643    3.0688933 
C     1.5093734   -0.6180278   -5.8276961 
C     2.3204621   -0.1364282   -3.5176409 
C     0.5817502   -1.9490959   -3.9361245 
C    -3.3580594    3.3785602   -3.7606554 
C    -4.7676185    0.5229277   -3.1700841 
C    -1.7699676    3.2537289   -6.2119719 
C    -6.5582658    0.6725653   -0.8541325 
H     4.4093893   -0.1016535    0.0126931 
H     3.0320691    0.0677471    3.7477632 
H     6.0583859   -0.7188996    1.6994796 
H     4.8084798   -1.4055535    2.7695322 
H     5.3728278    0.8578361    3.6499978 
H     5.1149239    1.5765299    2.0429599 
H     1.9599870    2.5473081    0.8878171 
H     3.2571267    1.9377123   -0.2028720 
H     2.0630970   -1.6044168   -0.8773041 
H     4.1687617    3.4625721    2.5567446 
H     5.5256372   -3.0144212    1.3107865 
H     1.0469978    1.1781617    4.5026888 
H     1.7070036   -3.8752912   -1.7739996 
H     3.0780147    5.5664894    3.2774723 
H     5.1667859   -5.2840680    0.4100211 
H    -0.0402466    3.2962692    5.2360692 
H     0.0911588    1.3240708   -6.1347935 
H    -5.3176465    1.5576025    1.3489721 
H     3.2382751   -5.7525531   -1.1177838 
H     0.9642884    5.5025309    4.6143119 
H    -0.9987676    0.9856170    2.2560044 
H    -2.4757625    0.3301664    3.0304388 
H    -1.5478315    1.6349737    3.8232089 
H    -2.5848589    4.3844394    1.4393690 
H    -1.0471218    3.4775424    1.3756353 
H    -4.5478393    1.7184023    3.3154780 
H    -4.6428006    3.3689778    2.6250762 
H    -3.5812421    3.0360878    4.0179039 
H     1.9496777    0.3282557   -6.1864001 
H     0.6667517   -0.8862488   -6.4885546 
H     2.2816334   -1.3995630   -5.9325250 
H     2.0911435   -0.0614837   -2.4466428 
H     2.7032814    0.8457487   -3.8451431 
H     3.1209281   -0.8860815   -3.6518167 
H    -0.2994746   -2.2400714   -4.5343238 
H     0.2987711   -1.9989381   -2.8746802 
H     1.3816028   -2.6882268   -4.1224946 
H    -1.6887648    4.0307174    2.9453363 
H    -3.8150557    3.3833261   -2.7603204 
H    -4.1566133    3.2059354   -4.5053354 
H    -2.9589482    4.3899406   -3.9570314 
H    -3.9651253    0.3400836   -3.8994335 
H    -5.4533422    1.2791319   -3.5947997 
H    -5.3528555   -0.4067648   -3.0660037 
H    -1.1060046    3.0582395   -7.0691157 
H    -1.6307672    4.3079842   -5.9084652 
H    -2.8147897    3.1598653   -6.5607441 
H    -7.1008623    0.8277192    0.0920602 
H    -6.6903471   -0.3856077   -1.1488074 
H    -7.0513858    1.2799568   -1.6346363 
