125
Energy =
C    -1.4004128   -2.1164111    1.5658098 
C    -0.3022836   -2.8447707    2.0869765 
C     0.5536875   -2.2824868    3.0752140 
H    -0.0088766   -3.7811723    1.5979017 
Pd    0.5497270   -0.9830114    1.2422903 
P     2.4272886    0.3475909    1.4691561 
P    -0.0681422    0.5020181   -0.3776353 
H    -1.7872329   -1.2826137    2.1715364 
H     0.1151524   -1.5053764    3.7188017 
C    -4.1626287   -3.4552814   -1.4433985 
C    -4.2662667   -2.1680927   -0.8942177 
C    -3.3536208   -1.7411852    0.0738680 
C    -2.3174844   -2.5960594    0.5162864 
C    -2.2265508   -3.8917865   -0.0429760 
C    -3.1394260   -4.3143886   -1.0151340 
H    -4.8767506   -3.7882901   -2.2032396 
H    -5.0608118   -1.4921525   -1.2240957 
H    -3.4262549   -0.7299399    0.4856400 
H    -1.4510396   -4.5871550    0.2930201 
H    -3.0578260   -5.3229955   -1.4330671 
C     4.1058815   -4.0716422    4.7302955 
C     3.5326417   -2.9342945    5.3189983 
C     2.3691291   -2.3741670    4.7767444 
C     1.7591849   -2.9285900    3.6262105 
C     2.3398648   -4.0864307    3.0569185 
C     3.4975737   -4.6498457    3.6035560 
H     5.0131261   -4.5141176    5.1536572 
H     3.9856728   -2.4884442    6.2104816 
H     1.9136953   -1.5027371    5.2603692 
H     1.8913969   -4.5469203    2.1709762 
H     3.9309337   -5.5456078    3.1468396 
O     0.9662424    1.7897882   -0.3596084 
O    -1.5742723    1.0811786   -0.0757367 
O    -0.0397112    0.3252676   -2.0092420 
C     3.2277791    0.8155119    3.1089935 
C     4.0545859   -0.0564071    0.5867416 
C     5.1029706   -0.0322517    1.7361575 
C     4.7042177    1.0665644    2.7306625 
C     4.0523785   -1.3225726   -0.2405944 
C     2.4614147    1.8914345    3.8522164 
C     1.8609240    1.9891373    0.7407945 
C     2.8684465    3.2403800    3.8563024 
C     4.3626869   -1.2848954   -1.6119936 
C     1.2731971    1.5494129    4.5317492 
C     3.8036410   -2.5704348    0.3645677 
C    -1.9664701    3.7238264    1.4093388 
C     0.1715549   -2.2859007   -3.3569696 
C    -2.2517142    2.0600980   -2.1612870 
C    -2.3124054    0.6731893   -2.7292669 
C    -1.1145355   -1.4324246   -3.3065158 
C    -2.1161316    3.4643546   -0.1103343 
C    -1.9939738    2.2384173   -0.7823970 
C    -1.1830098   -0.1728573   -2.6800772 
C     4.4527768   -2.4715242   -2.3559013 
C     2.1114620    4.2149885    4.5243297 
C     3.8889143   -3.7544458   -0.3770138 
C     0.5190342    2.5199222    5.2025509 
C    -3.4984462    0.1931203   -3.3430185 
C    -2.4957617    3.2001783   -2.9638352 
C    -2.2962669   -1.8368249   -3.9547716 
C    -2.4237529    4.5609974   -0.9453206 
C     4.2230232   -3.7095380   -1.7401764 
C     0.9355638    3.8596241    5.1997641 
C    -2.5761783    4.4690483   -2.3341994 
C    -3.4745321   -1.0754794   -3.9685705 
C    -1.7384394    2.4700668    2.2865926 
C    -0.7798958    4.6965785    1.6358007 
C    -3.2763501    4.3851365    1.9199750 
C     1.2627963   -1.5050689   -4.1350535 
C     0.6839396   -2.6326545   -1.9361997 
C    -0.0738484   -3.6260742   -4.0871709 
C    -4.7892917    0.9806803   -3.3200020 
C    -2.6424823    3.1061376   -4.4652908 
C    -4.7118296   -1.6224516   -4.6437449 
C    -2.8393674    5.7150242   -3.1497709 
H     4.2335519    0.8083372   -0.0773993 
H     3.1787701   -0.1268051    3.6877704 
H     6.1112558    0.1247019    1.3173003 
H     5.1113297   -1.0132732    2.2451813 
H     5.3392558    1.0608495    3.6337796 
H     4.8212713    2.0575134    2.2547880 
H     1.3716660    2.5648440    1.5454822 
H     2.7130425    2.5693662    0.3516015 
H     4.5505408   -0.3219014   -2.1006143 
H     3.7875123    3.5414519    3.3440351 
H     3.5563864   -2.6191646    1.4306792 
H     0.9370964    0.5072721    4.5337501 
H     4.7103179   -2.4258607   -3.4189299 
H     2.4487697    5.2566019    4.5203035 
H     3.7035948   -4.7164388    0.1129689 
H    -0.3947721    2.2287267    5.7306937 
H    -2.3165381   -2.8033699   -4.4627293 
H    -2.5259138    5.5513161   -0.4889725 
H     4.2999019   -4.6351403   -2.3199481 
H     0.3496229    4.6207496    5.7248492 
H    -0.7643052    1.9884515    2.1041936 
H    -2.5257628    1.7136994    2.1385952 
H    -1.7508870    2.7817199    3.3448695 
H    -0.9551384    5.6740286    1.1556896 
H     0.1512333    4.2819112    1.2141729 
H    -4.1364062    3.7076215    1.7789261 
H    -3.4980987    5.3301055    1.3972424 
H    -3.1869206    4.6115597    2.9974349 
H     1.5133927   -0.5571057   -3.6323532 
H     0.9215727   -1.2788499   -5.1601923 
H     2.1820345   -2.1129163   -4.2017851 
H    -0.1331298   -3.0355784   -1.3148689 
H     1.1225654   -1.7610931   -1.4253306 
H     1.4801321   -3.3921651   -1.9989082 
H    -0.3946702   -3.4777224   -5.1325656 
H    -0.8330896   -4.2394708   -3.5698395 
H     0.8671988   -4.2022196   -4.1086328 
H    -0.6241568    4.8674907    2.7157032 
H    -5.6164290    0.3533581   -2.9404796 
H    -5.0844120    1.3046851   -4.3348707 
H    -4.7212362    1.8742481   -2.6825244 
H    -2.4457201    2.0903427   -4.8382167 
H    -1.9355194    3.7951264   -4.9612878 
H    -3.6555646    3.4042500   -4.7921520 
H    -5.5433252   -1.7467507   -3.9242434 
H    -4.5144990   -2.6037695   -5.1042314 
H    -5.0797253   -0.9421414   -5.4332294 
H    -2.9100562    6.6064189   -2.5060945 
H    -3.7804914    5.6322695   -3.7235402 
H    -2.0334792    5.8908188   -3.8863296 
