125
Energy =
C    -1.3609271   -2.2028500    1.4048717 
C    -0.2314608   -2.8349111    2.0013286 
C     0.4231170   -2.2053404    3.0952717 
H     0.2483285   -3.6830587    1.4975573 
Pd    0.4171518   -0.8424036    1.3370475 
P     2.4830632    0.1962488    1.4429289 
P    -0.0112491    0.5595587   -0.4004752 
H    -1.9739190   -1.5643802    2.0559303 
H    -0.1884242   -1.5154155    3.6992009 
C    -3.3324444   -3.3596866   -2.2329306 
C    -2.0421913   -3.8443761   -1.9605522 
C    -1.3908787   -3.4837118   -0.7780319 
C    -2.0158384   -2.6262513    0.1556681 
C    -3.3072695   -2.1348567   -0.1349604 
C    -3.9614952   -2.5077186   -1.3135232 
H    -3.8428920   -3.6446312   -3.1585755 
H    -1.5412921   -4.5027513   -2.6777507 
H    -0.3796328   -3.8556380   -0.5862752 
H    -3.7960121   -1.4480144    0.5647669 
H    -4.9681718   -2.1302279   -1.5141922 
C     4.0672751   -3.3682724    5.0614623 
C     3.2247371   -2.3977981    5.6250812 
C     2.0367420   -2.0419829    4.9747535 
C     1.6712002   -2.6414813    3.7456497 
C     2.5312005   -3.6138076    3.1880245 
C     3.7117294   -3.9753538    3.8451246 
H     4.9932916   -3.6556185    5.5698707 
H     3.4878050   -1.9247123    6.5767265 
H     1.3725000   -1.2958547    5.4262753 
H     2.2913446   -4.0798829    2.2273451 
H     4.3637326   -4.7328751    3.3989986 
O     1.3638901    1.4019596   -0.7544236 
O    -1.0209946    1.8528126   -0.2236702 
O    -0.4304078   -0.1309052   -1.8124294 
C     3.2806110    0.8531522    3.0113170 
C     4.0312696   -0.7337383    0.8492173 
C     5.0139549   -0.6042519    2.0424146 
C     4.7917303    0.7578341    2.7161866 
C     3.7980518   -2.1418816    0.3196873 
C     2.6815680    2.1629321    3.4740561 
C     2.3047585    1.6838786    0.2918052 
C     3.2534118    3.4101957    3.1525589 
C     4.6734435   -3.1952047    0.6488632 
C     1.4803028    2.1430745    4.2126720 
C     2.7298300   -2.4184159   -0.5580135 
C    -2.7879209    2.3070939    2.1316261 
C     1.0852717   -0.5363509   -4.3324073 
C    -2.8654346    1.3273703   -1.6589128 
C    -1.9417804    1.4513455   -2.8355904 
C    -0.0469690    0.4989867   -4.1392411 
C    -3.2622424    1.7810326    0.7565163 
C    -2.4116174    1.6321793   -0.3580304 
C    -0.7984015    0.6331921   -2.9551199 
C     4.4705483   -4.4877277    0.1421531 
C     2.6380397    4.6040128    3.5583323 
C     2.5243326   -3.7079004   -1.0664792 
C     0.8666641    3.3345038    4.6193184 
C    -2.2401742    2.3585275   -3.8862250 
C    -4.2265121    0.9716312   -1.8438226 
C    -0.4301048    1.3674464   -5.1794735 
C    -4.6141059    1.4689258    0.5125125 
C     3.3894712   -4.7533875   -0.7094541 
C     1.4423738    4.5708468    4.2900619 
C    -5.1010887    1.0362827   -0.7320521 
C    -1.4597747    2.3140646   -5.0658285 
C    -1.9161687    1.2477077    2.8453746 
C    -1.9887345    3.6259459    1.9582352 
C    -3.9861026    2.6141180    3.0604257 
C     1.5278734   -0.6180808   -5.8118063 
C     2.3272573   -0.1399369   -3.4971858 
C     0.5868190   -1.9485844   -3.9262750 
C    -3.3440414    3.3856026   -3.7687469 
C    -4.7610673    0.5324012   -3.1879982 
C    -1.7434217    3.2591419   -6.2118574 
C    -6.5636056    0.6800359   -0.8813305 
H     4.4053160   -0.1095650    0.0136229 
H     3.0325640    0.0663040    3.7501237 
H     6.0556912   -0.7244155    1.6995325 
H     4.8068207   -1.4088639    2.7721943 
H     5.3739837    0.8554150    3.6486770 
H     5.1139883    1.5719220    2.0409209 
H     1.9690670    2.5477791    0.8938472 
H     3.2570698    1.9309880   -0.2035870 
H     5.5240317   -3.0183235    1.3124224 
H     4.1898624    3.4584369    2.5871809 
H     2.0528824   -1.6147257   -0.8663064 
H     1.0267380    1.1792893    4.4716642 
H     5.1644791   -5.2894648    0.4159299 
H     3.0999173    5.5638222    3.3049192 
H     1.6965368   -3.8868231   -1.7590491 
H    -0.0607860    3.2988071    5.2003140 
H     0.1143779    1.3266874   -6.1257102 
H    -5.3332336    1.5580760    1.3302568 
H     3.2316728   -5.7617918   -1.1053387 
H     0.9652500    5.5032762    4.6081499 
H    -1.0163922    0.9840096    2.2562819 
H    -2.4960175    0.3245149    3.0222247 
H    -1.5736501    1.6282530    3.8228725 
H    -2.6029558    4.3820829    1.4393745 
H    -1.0635280    3.4774694    1.3826364 
H    -4.5714787    1.7097610    3.3014910 
H    -4.6645271    3.3625096    2.6160322 
H    -3.6089333    3.0258740    4.0124387 
H     1.9721794    0.3275884   -6.1672102 
H     0.6884051   -0.8839371   -6.4776095 
H     2.2989983   -1.4012132   -5.9129976 
H     2.0925438   -0.0662212   -2.4272993 
H     2.7133379    0.8421203   -3.8212200 
H     3.1271050   -0.8907707   -3.6282944 
H    -0.2910800   -2.2375383   -4.5303180 
H     0.2968262   -1.9984600   -2.8667063 
H     1.3863790   -2.6892265   -4.1078282 
H    -1.7147126    4.0275370    2.9496146 
H    -3.8067734    3.3900924   -2.7710478 
H    -4.1385679    3.2152744   -4.5182355 
H    -2.9419610    4.3964788   -3.9616684 
H    -3.9550793    0.3495425   -3.9134769 
H    -5.4433453    1.2904383   -3.6149886 
H    -5.3484632   -0.3964883   -3.0887249 
H    -1.0752533    3.0629770   -7.0655700 
H    -1.6042161    4.3130646   -5.9071934 
H    -2.7865306    3.1670211   -6.5661796 
H    -7.1107677    0.8333212    0.0625324 
H    -6.6958574   -0.3771022   -1.1796650 
H    -7.0518361    1.2903841   -1.6626073 
