125
Energy =
C    -1.3993574   -2.1335326    1.4750299 
C    -0.2774548   -2.7728275    2.0781159 
C     0.3959445   -2.1297177    3.1527272 
H     0.1827397   -3.6416332    1.5915347 
Pd    0.4035367   -0.8092523    1.3631766 
P     2.4890790    0.1926087    1.4347283 
P    -0.0049861    0.5545921   -0.4099286 
H    -1.9955554   -1.4695798    2.1161330 
H    -0.1994928   -1.4153181    3.7441294 
C    -3.4220529   -3.3385673   -2.1186363 
C    -4.0328737   -2.4636450   -1.2085544 
C    -3.3618672   -2.0746900   -0.0447018 
C    -2.0721021   -2.5732350    0.2410707 
C    -1.4656694   -3.4539694   -0.6830970 
C    -2.1333137   -3.8302171   -1.8515379 
H    -3.9453820   -3.6356956   -3.0331926 
H    -5.0383296   -2.0806309   -1.4050047 
H    -3.8362447   -1.3701263    0.6471704 
H    -0.4556401   -3.8312125   -0.4953307 
H    -1.6463407   -4.5060255   -2.5620675 
C     4.0307826   -3.3112419    5.1249461 
C     3.2060731   -2.3170178    5.6732593 
C     2.0206907   -1.9554803    5.0213574 
C     1.6401730   -2.5729282    3.8057572 
C     2.4824755   -3.5690314    3.2631576 
C     3.6602190   -3.9361397    3.9221997 
H     4.9546700   -3.6030060    5.6347140 
H     3.4809317   -1.8295959    6.6142767 
H     1.3702562   -1.1904427    5.4612026 
H     2.2312663   -4.0494156    2.3124915 
H     4.2983391   -4.7120926    3.4879183 
O     1.3828193    1.3656205   -0.7867290 
O    -0.9941747    1.8679302   -0.2729562 
O    -0.4343997   -0.1713092   -1.8010063 
C     3.3031163    0.8740052    2.9839139 
C     4.0197436   -0.7761258    0.8577513 
C     5.0118667   -0.6288742    2.0414297 
C     4.8110261    0.7518636    2.6831941 
C     3.7651768   -2.1951347    0.3682138 
C     2.7233192    2.2021143    3.4182646 
C     2.3320226    1.6556575    0.2496381 
C     3.3158594    3.4335481    3.0741577 
C     2.6819055   -2.4853423   -0.4862163 
C     1.5192269    2.2158512    4.1524658 
C     4.6367973   -3.2471086    0.7117735 
C    -2.7533402    2.4216751    2.0650284 
C     1.0777985   -0.6771910   -4.3047516 
C    -2.8458050    1.3308270   -1.6950315 
C    -1.9193177    1.4030077   -2.8739880 
C    -0.0384752    0.3810491   -4.1451918 
C    -3.2368878    1.8659578    0.7048552 
C    -2.3881530    1.6676416   -0.4033585 
C    -0.7888934    0.5635638   -2.9668233 
C     2.4586764   -3.7859085   -0.9578697 
C     2.7179457    4.6447822    3.4536430 
C     4.4160224   -4.5505816    0.2421109 
C     0.9228513    3.4246706    4.5325268 
C    -2.2024572    2.2816703   -3.9528753 
C    -4.2129589    0.9940447   -1.8706521 
C    -0.4075185    1.2221188   -5.2125846 
C    -4.5941971    1.5726296    0.4681794 
C     3.3203859   -4.8291318   -0.5864500 
C     1.5191486    4.6450281    4.1809232 
C    -5.0876685    1.1107414   -0.7632058 
C    -1.4223152    2.1877923   -5.1297574 
C    -3.9459101    2.7765303    2.9839512 
C    -1.9019021    1.3660017    2.8083862 
C    -1.9295414    3.7200825    1.8560274 
C     2.3241625   -0.2764778   -3.4780692 
C     0.5558361   -2.0687160   -3.8588517 
C     1.5225648   -0.8093480   -5.7798596 
C    -3.2900049    3.3292893   -3.8691945 
C    -4.7541250    0.5203426   -3.2003528 
C    -1.6903339    3.1004669   -6.3054540 
C    -6.5567759    0.7792143   -0.9044254 
H     4.3975377   -0.1805926    0.0031628 
H     3.0483162    0.1078769    3.7419936 
H     6.0498056   -0.7700216    1.6951243 
H     4.7997171   -1.4129001    2.7918453 
H     5.4000369    0.8641826    3.6097749 
H     5.1398883    1.5451194    1.9866815 
H     2.0132397    2.5388955    0.8325643 
H     3.2865397    1.8751411   -0.2544704 
H     2.0058912   -1.6846411   -0.8043830 
H     4.2550827    3.4558628    2.5117709 
H     5.4986864   -3.0604159    1.3578344 
H     1.0495193    1.2646909    4.4289590 
H     1.6197035   -3.9759695   -1.6338354 
H     3.1959900    5.5919254    3.1831590 
H     5.1072701   -5.3507930    0.5268853 
H    -0.0072060    3.4152853    5.1103588 
H     0.1365054    1.1429658   -6.1566503 
H    -5.3125056    1.7008927    1.2814273 
H     3.1485095   -5.8460938   -0.9535061 
H     1.0554790    5.5909897    4.4782663 
H    -4.5480985    1.8902232    3.2493933 
H    -4.6101739    3.5248685    2.5185205 
H    -3.5615478    3.2074235    3.9245454 
H    -1.0064532    1.0699616    2.2283298 
H    -2.4989288    0.4587643    3.0087832 
H    -2.5298561    4.4735074    1.3173406 
H    -1.0079255    3.5387987    1.2841364 
H    -1.6470706    4.1428013    2.8361957 
H     2.0888202   -0.1690780   -2.4111955 
H     2.7260636    0.6898777   -3.8289556 
H     3.1124219   -1.0430737   -3.5860233 
H    -0.3244174   -2.3616595   -4.4575004 
H     0.2615269   -2.0820153   -2.7994150 
H     1.3442207   -2.8269107   -4.0148675 
H     1.9820986    0.1185177   -6.1618000 
H     0.6807308   -1.0820289   -6.4399069 
H     2.2817546   -1.6068497   -5.8557002 
H    -1.5537447    1.7663366    3.7759101 
H    -3.7518788    3.3740226   -2.8721209 
H    -4.0877914    3.1466234   -4.6123164 
H    -2.8722581    4.3267394   -4.0956952 
H    -3.9513653    0.3059918   -3.9207038 
H    -5.4287354    1.2723194   -3.6496055 
H    -5.3514295   -0.3986374   -3.0715327 
H    -1.0258476    2.8657292   -7.1522933 
H    -1.5330459    4.1610929   -6.0347027 
H    -2.7349652    3.0148283   -6.6568628 
H    -7.1016828    0.9699179    0.0339147 
H    -6.7099968   -0.2828931   -1.1734059 
H    -7.0320618    1.3769985   -1.7032525 
