125
Energy =
C    -1.4214747   -2.1135239    1.4773871 
C    -0.3083636   -2.7625690    2.0863537 
C     0.3711717   -2.1217209    3.1583725 
H     0.1418859   -3.6397228    1.6054979 
Pd    0.3973947   -0.8116714    1.3606807 
P     2.4934335    0.1691307    1.4308330 
P     0.0056597    0.5478107   -0.4188543 
H    -2.0110255   -1.4385816    2.1131560 
H    -0.2159911   -1.3964466    3.7447204 
C    -3.4537102   -3.3210080   -2.1100414 
C    -4.0563663   -2.4342406   -1.2059872 
C    -3.3821223   -2.0443804   -0.0442912 
C    -2.0973899   -2.5536071    0.2452803 
C    -1.4988370   -3.4456553   -0.6731504 
C    -2.1697747   -3.8231412   -1.8393183 
H    -3.9796843   -3.6193046   -3.0226973 
H    -5.0580178   -2.0428517   -1.4054655 
H    -3.8499046   -1.3310250    0.6430767 
H    -0.4921839   -3.8307025   -0.4829876 
H    -1.6890858   -4.5081567   -2.5452996 
C     3.9872849   -3.3397751    5.1428286 
C     3.1755950   -2.3308611    5.6836870 
C     1.9960882   -1.9572901    5.0279308 
C     1.6086717   -2.5771284    3.8157497 
C     2.4379884   -3.5880095    3.2806150 
C     3.6097323   -3.9670971    3.9435289 
H     4.9063447   -3.6410524    5.6557756 
H     3.4559032   -1.8413520    6.6220096 
H     1.3554461   -1.1808709    5.4621897 
H     2.1813694   -4.0708170    2.3326582 
H     4.2377365   -4.7544998    3.5151002 
O     1.4052736    1.3358080   -0.8018837 
O    -0.9632568    1.8765477   -0.2820822 
O    -0.4377927   -0.1746181   -1.8070881 
C     3.3130381    0.8491506    2.9779770 
C     4.0135311   -0.8209788    0.8621438 
C     5.0024290   -0.6845536    2.0494414 
C     4.8202475    0.7021177    2.6838421 
C     3.7401233   -2.2368793    0.3741928 
C     2.7531362    2.1886079    3.4031420 
C     2.3535046    1.6257508    0.2355094 
C     3.3539864    3.4091835    3.0351587 
C     2.6599502   -2.5101127   -0.4897461 
C     1.5597111    2.2248291    4.1536101 
C     4.5895591   -3.3030395    0.7290274 
C    -2.7023313    2.4617974    2.0643204 
C     1.0529113   -0.7051016   -4.3187545 
C    -2.8300308    1.3574142   -1.6906796 
C    -1.9098141    1.4151435   -2.8753210 
C    -0.0494230    0.3670045   -4.1551167 
C    -3.2001798    1.9054944    0.7095509 
C    -2.3605497    1.6932403   -0.4030176 
C    -0.7902082    0.5618081   -2.9726122 
C     2.4177659   -3.8078229   -0.9597592 
C     2.7743548    4.6315216    3.4070250 
C     4.3499671   -4.6037439    0.2607545 
C     0.9817061    3.4447956    4.5265599 
C    -2.1889934    2.2942221   -3.9548700 
C    -4.2020114    1.0359114   -1.8569205 
C    -0.4146959    1.2097700   -5.2224737 
C    -4.5620567    1.6260736    0.4823694 
C     3.2572886   -4.8651057   -0.5772454 
C     1.5859782    4.6539988    4.1510013 
C    -5.0683035    1.1653626   -0.7442796 
C    -1.4172189    2.1878650   -5.1361810 
C    -1.8634672    3.7487308    1.8443956 
C    -3.8853893    2.8361800    2.9877800 
C    -1.8601675    1.3993198    2.8084376 
C     1.4862988   -0.8471445   -5.7963246 
C     2.3092523   -0.3166134   -3.5014412 
C     0.5171838   -2.0888397   -3.8650500 
C    -3.2633125    3.3550861   -3.8673748 
C    -4.7568459    0.5655250   -3.1821590 
C    -1.6812130    3.1007505   -6.3126071 
C    -6.5416474    0.8485761   -0.8748481 
H     4.4030030   -0.2321595    0.0081540 
H     3.0442511    0.0917780    3.7398854 
H     6.0395202   -0.8436395    1.7083648 
H     4.7747726   -1.4617374    2.8024393 
H     5.4067359    0.8099160    3.6125383 
H     5.1642540    1.4869304    1.9851171 
H     2.0403921    2.5158635    0.8109984 
H     3.3115137    1.8334282   -0.2669640 
H     2.0022607   -1.6979820   -0.8170417 
H     4.2855186    3.4141566    2.4595832 
H     5.4483530   -3.1297792    1.3829085 
H     1.0839068    1.2823928    4.4488130 
H     1.5816567   -3.9847816   -1.6427599 
H     3.2584428    5.5699203    3.1174914 
H     5.0241164   -5.4153460    0.5541641 
H     0.0598240    3.4527724    5.1174076 
H     0.1227364    1.1216382   -6.1695197 
H    -5.2737551    1.7649285    1.2996849 
H     3.0707642   -5.8799288   -0.9430912 
H     1.1367350    5.6086681    4.4426086 
H    -2.4571379    4.5068942    1.3049976 
H    -0.9472572    3.5530460    1.2685946 
H    -1.5704035    4.1727130    2.8208616 
H    -4.4968147    1.9587518    3.2614680 
H    -4.5431160    3.5899634    2.5218455 
H    -0.9718123    1.0889839    2.2247922 
H    -2.4673412    0.5006534    3.0168530 
H    -1.5013397    1.8002580    3.7717598 
H     1.9543610    0.0739523   -6.1842299 
H     0.6369365   -1.1117767   -6.4499847 
H     2.2354239   -1.6538740   -5.8745906 
H     2.0817048   -0.2011911   -2.4336957 
H     2.7212910    0.6429263   -3.8592095 
H     3.0871562   -1.0935585   -3.6105922 
H    -0.3713220   -2.3724016   -4.4559762 
H     0.2310148   -2.0957642   -2.8033248 
H     1.2948004   -2.8572186   -4.0253058 
H    -3.4905689    3.2674686    3.9238425 
H    -3.7187152    3.4077779   -2.8677200 
H    -4.0676125    3.1802766   -4.6053403 
H    -2.8349191    4.3468801   -4.0987884 
H    -3.9610135    0.3383394   -3.9062560 
H    -5.4236071    1.3253541   -3.6299483 
H    -5.3658979   -0.3447835   -3.0474487 
H    -1.0246720    2.8558859   -7.1627698 
H    -1.5095358    4.1600862   -6.0455546 
H    -2.7288828    3.0268349   -6.6575724 
H    -7.0786243    1.0491442    0.0660102 
H    -6.7073454   -0.2131614   -1.1378327 
H    -7.0158144    1.4475884   -1.6734082 
