125
Energy =
C    -1.5110829   -2.1314691    1.3690028 
C    -0.4226335   -2.8172650    1.9881074 
C     0.2473334   -2.2030191    3.0815796 
H     0.0124636   -3.7000019    1.5024445 
Pd    0.3374838   -0.8808603    1.2919367 
P     2.4573064    0.0538455    1.3979028 
P     0.0004344    0.4760614   -0.4950400 
H    -2.1085465   -1.4692685    2.0112967 
H    -0.3371223   -1.4656390    3.6552481 
C    -3.4970517   -3.3111664   -2.2547153 
C    -4.1890851   -2.6145306   -1.2537522 
C    -3.5309562   -2.2225871   -0.0822661 
C    -2.1730828   -2.5499520    0.1198954 
C    -1.4848534   -3.2488405   -0.8972368 
C    -2.1384350   -3.6218810   -2.0740008 
H    -4.0107446   -3.6064429   -3.1753358 
H    -5.2484542   -2.3735920   -1.3854226 
H    -4.0716987   -1.6584257    0.6849766 
H    -0.4194696   -3.4670192   -0.7751900 
H    -1.5874430   -4.1506139   -2.8588669 
C     3.7784144   -3.4902886    5.1717957 
C     2.9860880   -2.4452647    5.6718392 
C     1.8345939   -2.0512993    4.9801499 
C     1.4569848   -2.6841113    3.7710391 
C     2.2667205   -3.7312960    3.2774316 
C     3.4096470   -4.1316894    3.9775745 
H     4.6751447   -3.8087192    5.7131694 
H     3.2587852   -1.9449165    6.6067258 
H     1.2058429   -1.2487677    5.3834668 
H     2.0179788   -4.2274225    2.3341269 
H     4.0223181   -4.9470239    3.5809617 
O     1.4364469    1.1847528   -0.9018487 
O    -0.9249360    1.8362873   -0.3283727 
O    -0.4976153   -0.1953597   -1.8854253 
C     3.2071167    0.7843397    2.9610029 
C     3.9954940   -0.9765208    0.9578872 
C     4.9306425   -0.7929849    2.1826890 
C     4.7269296    0.6167207    2.7527098 
C     3.7510843   -2.4167697    0.5271100 
C     2.6595137    2.1402555    3.3448394 
C     2.3971761    1.4587685    0.1300316 
C     3.2109461    3.3407856    2.8510855 
C     2.6539089   -2.7640084   -0.2847810 
C     1.5464750    2.2167731    4.2058565 
C     4.6573484   -3.4354330    0.8836651 
C    -2.6039184    2.4123515    2.0764604 
C     1.2481214   -0.3022115   -4.4122834 
C    -2.8430451    1.3108310   -1.6745241 
C    -1.9631764    1.4235000   -2.8842657 
C    -0.0030355    0.5740504   -4.1599236 
C    -3.1329550    1.8421331    0.7393245 
C    -2.3289012    1.6484335   -0.4024140 
C    -0.8088773    0.6165461   -3.0107427 
C     2.4542201   -4.0838570   -0.7119139 
C     2.6587983    4.5803517    3.2050212 
C     4.4599542   -4.7579665    0.4604849 
C     0.9967115    3.4546584    4.5637221 
C    -2.2753831    2.3447776   -3.9137834 
C    -4.2109894    0.9601082   -1.7917424 
C    -0.3932783    1.4683658   -5.1808854 
C    -4.4955002    1.5291069    0.5617140 
C     3.3534712   -5.0915258   -0.3330444 
C     1.5489712    4.6415982    4.0605227 
C    -5.0366271    1.0586182   -0.6456449 
C    -1.4710584    2.3548902   -5.0813763 
C    -3.7666009    2.8055322    3.0185225 
C    -1.7540571    1.3540326    2.8162694 
C    -1.7621750    3.6918452    1.8272693 
C     1.5316006   -1.3720512   -3.3363417 
C     1.0740732   -1.0507288   -5.7610379 
C     2.4842207    0.6333329   -4.4847393 
C    -3.4112085    3.3356420   -3.7931723 
C    -4.8012372    0.4900623   -3.1010968 
C    -1.7699093    3.3114522   -6.2140030 
C    -6.5042527    0.7019981   -0.7227000 
H     4.4320975   -0.4307697    0.0979949 
H     2.8937720    0.0474654    3.7256328 
H     5.9815090   -0.9650749    1.8943663 
H     4.6677681   -1.5422260    2.9524721 
H     5.2616063    0.7555869    3.7081134 
H     5.1144697    1.3746700    2.0471182 
H     2.1313781    2.3890455    0.6638972 
H     3.3670450    1.5901481   -0.3751624 
H     1.9412221   -1.9921295   -0.5949105 
H     4.0854960    3.3156895    2.1919030 
H     5.5285918   -3.2074175    1.5036072 
H     1.1131959    1.2917599    4.6032667 
H     1.6020686   -4.3219269   -1.3569102 
H     3.1030676    5.5020642    2.8153994 
H     5.1780363   -5.5308039    0.7542684 
H     0.1375641    3.4931905    5.2416402 
H     0.1977551    1.4927417   -6.1022183 
H    -5.1789313    1.6489517    1.4058660 
H     3.2003015   -6.1237020   -0.6639748 
H     1.1216823    5.6101131    4.3391732 
H    -4.3704414    1.9341757    3.3262410 
H    -4.4360155    3.5476600    2.5504972 
H    -3.3508653    3.2576813    3.9354822 
H    -0.8802986    1.0306821    2.2157778 
H    -2.3619965    0.4617656    3.0484498 
H    -2.3600958    4.4460738    1.2869665 
H    -0.8554232    3.4847601    1.2408585 
H    -1.4522031    4.1257904    2.7938092 
H     0.6614655   -2.0234706   -3.1529729 
H     1.8286388   -0.9080725   -2.3853242 
H     2.3723727   -2.0028862   -3.6745640 
H     0.9518465   -0.3634219   -6.6142133 
H     0.1922055   -1.7143423   -5.7278938 
H     1.9660466   -1.6706438   -5.9599551 
H     2.6057109    1.1786231   -3.5324077 
H     2.3884251    1.3763691   -5.2946761 
H     3.3987565    0.0417778   -4.6718208 
H    -1.3701679    1.7645551    3.7652919 
H    -4.2060001    3.1299751   -4.5337892 
H    -3.0479941    4.3585985   -3.9973055 
H    -3.8658233    3.3307323   -2.7918863 
H    -4.0287630    0.3310574   -3.8675640 
H    -5.5350800    1.2170884   -3.4948747 
H    -5.3424189   -0.4614915   -2.9611232 
H    -2.8019677    3.1855913   -6.5891882 
H    -1.0793268    3.1575868   -7.0585269 
H    -1.6770139    4.3638527   -5.8872386 
H    -7.0082829    0.8677560    0.2428857 
H    -6.6488226   -0.3581730   -1.0027884 
H    -7.0275310    1.3029555   -1.4886593 
