125
Energy =
C    -1.3890649   -2.0848783    1.5310944 
C    -0.2657797   -2.7260557    2.1296946 
C     0.4371241   -2.0678511    3.1759031 
H     0.1709954   -3.6142455    1.6566806 
Pd    0.4311672   -0.7917690    1.3543609 
P     2.5268111    0.1930403    1.3700665 
P     0.0072108    0.5344019   -0.4425957 
H    -1.9645546   -1.3967709    2.1657380 
H    -0.1360065   -1.3307086    3.7611451 
C    -3.5023902   -3.3723468   -1.9807113 
C    -2.2030578   -3.8499664   -1.7404212 
C    -1.5049371   -3.4447578   -0.5998272 
C    -2.0915087   -2.5491347    0.3229201 
C    -3.3914667   -2.0632539    0.0629043 
C    -4.0927472   -2.4811907   -1.0728850 
H    -4.0496706   -3.6926709   -2.8731536 
H    -1.7318489   -4.5374057   -2.4504111 
H    -0.4864260   -3.8094725   -0.4338676 
H    -3.8505311   -1.3477272    0.7538622 
H    -5.1060652   -2.1088516   -1.2489744 
C     4.0850848   -3.2689835    5.1122618 
C     3.2855427   -2.2509010    5.6539702 
C     2.0957226   -1.8825928    5.0140208 
C     1.6856444   -2.5167980    3.8168826 
C     2.5033543   -3.5362593    3.2801887 
C     3.6853413   -3.9102673    3.9276192 
H     5.0119619   -3.5664547    5.6132196 
H     3.5833571   -1.7502056    6.5809326 
H     1.4641466   -1.0996192    5.4498115 
H     2.2294919   -4.0297805    2.3426360 
H     4.3038828   -4.7047746    3.4985160 
O     1.4027752    1.3073344   -0.8701247 
O    -0.9500056    1.8713914   -0.3029196 
O    -0.4725609   -0.2063596   -1.8084416 
C     3.3707341    0.8989685    2.8928543 
C     4.0388521   -0.8045202    0.7934320 
C     5.0427099   -0.6555691    1.9661329 
C     4.8738556    0.7413244    2.5814198 
C     3.7557788   -2.2247889    0.3246782 
C     2.8241683    2.2474534    3.3060390 
C     2.3624624    1.6254967    0.1485907 
C     1.6771296    2.3015561    4.1242252 
C     4.6017746   -3.2913320    0.6859800 
C     3.3924068    3.4591245    2.8632633 
C     2.6671601   -2.5018999   -0.5273750 
C    -2.6102342    2.5057549    2.0888532 
C     0.9367142   -0.7729935   -4.3582930 
C    -2.8628410    1.3263957   -1.6370153 
C    -1.9829975    1.3637760   -2.8527350 
C    -0.1636113    0.2981410   -4.1762234 
C    -3.1527299    1.9220942    0.7629884 
C    -2.3508947    1.6878083   -0.3727261 
C    -0.8649724    0.5112124   -2.9729652 
C     4.3504366   -4.5963155    0.2358937 
C     1.1123883    3.5298507    4.4909004 
C     2.4130642   -3.8038127   -0.9789597 
C     2.8257875    4.6894766    3.2278491 
C    -2.3008006    2.2233603   -3.9373537 
C    -4.2390297    1.0003016   -1.7506784 
C    -0.5674442    1.1209580   -5.2452314 
C    -4.5210411    1.6366660    0.5873334 
C     3.2492917   -4.8613463   -0.5897438 
C     1.6833791    4.7293973    4.0403227 
C    -5.0674081    1.1505460   -0.6120474 
C    -1.5696083    2.0977570   -5.1422974 
C    -1.7748270    3.7848221    1.8159161 
C    -3.7622628    2.9038209    3.0412193 
C    -1.7478370    1.4564166    2.8282899 
C     1.3233810   -0.9371225   -5.8464627 
C     2.2168938   -0.3677370   -3.5874618 
C     0.4206371   -2.1509288   -3.8659158 
C    -3.3736529    3.2840969   -3.8317864 
C    -4.8371709    0.5042149   -3.0473782 
C    -1.8767496    2.9885369   -6.3251514 
C    -6.5435133    0.8283375   -0.6862626 
H     4.4181907   -0.2256141   -0.0718262 
H     3.1102293    0.1554480    3.6709670 
H     6.0747612   -0.8243739    1.6145560 
H     4.8212960   -1.4204246    2.7335186 
H     5.4717968    0.8609141    3.5012744 
H     5.2119579    1.5144053    1.8670298 
H     2.0501966    2.5249612    0.7097694 
H     3.3123268    1.8294652   -0.3705283 
H     5.4667416   -3.1150364    1.3308692 
H     1.2274693    1.3666367    4.4783066 
H     2.0128986   -1.6892435   -0.8600873 
H     4.2882513    3.4504184    2.2333715 
H     5.0220492   -5.4083700    0.5338580 
H     0.2270954    3.5516066    5.1350642 
H     1.5702072   -3.9842299   -1.6526757 
H     3.2838420    5.6206919    2.8788653 
H    -0.0621034    1.0175188   -6.2082432 
H    -5.2051612    1.7912120    1.4251482 
H     3.0535048   -5.8795604   -0.9410603 
H     1.2447323    5.6905684    4.3266801 
H    -2.3838452    4.5351484    1.2826901 
H    -0.8795858    3.5746073    1.2129306 
H    -1.4466322    4.2254448    2.7736336 
H    -4.3662324    2.0343903    3.3542058 
H    -4.4332462    3.6485791    2.5796845 
H    -0.8794828    1.1305358    2.2230040 
H    -2.3503146    0.5643483    3.0752259 
H    -1.3563229    1.8767814    3.7702305 
H     1.7745772   -0.0204823   -6.2637373 
H     0.4548760   -1.2158001   -6.4683842 
H     2.0733780   -1.7419064   -5.9356731 
H     2.0230568   -0.2351150   -2.5150244 
H     2.6144352    0.5867162   -3.9739669 
H     2.9935316   -1.1442527   -3.7083797 
H    -0.4862121   -2.4460770   -4.4223248 
H     0.1701058   -2.1417493   -2.7952217 
H     1.1948712   -2.9197032   -4.0402182 
H    -3.3365525    3.3549374    3.9540636 
H    -4.2025842    3.0950448   -4.5383038 
H    -2.9553976    4.2721282   -4.0955873 
H    -3.7944257    3.3541679   -2.8181317 
H    -4.0653913    0.2618941   -3.7922844 
H    -5.5176801    1.2558729   -3.4882688 
H    -5.4419034   -0.4023811   -2.8747229 
H    -2.9355329    2.9059826   -6.6320701 
H    -1.2493466    2.7297546   -7.1930148 
H    -1.6989772    4.0529510   -6.0834617 
H    -7.0494099    1.0491227    0.2672283 
H    -6.7147502   -0.2394844   -0.9193344 
H    -7.0456606    1.4081363   -1.4818575 
