125
Energy =
C    -1.5294593   -2.0880100    1.3703134 
C    -0.4309035   -2.7430536    2.0062400 
C     0.2033780   -2.1177674    3.1128436 
H     0.0341462   -3.6146747    1.5274510 
Pd    0.2938115   -0.7905759    1.3236975 
P     2.3816601    0.1947414    1.4413965 
P    -0.0537607    0.6657793   -0.3796662 
H    -2.1640094   -1.4509935    2.0027023 
H    -0.4112315   -1.3984290    3.6783167 
C    -3.4138872   -3.4699411   -2.2380808 
C    -4.1623847   -2.8241421   -1.2434745 
C    -3.5382484   -2.3527412   -0.0823592 
C    -2.1555301   -2.5525829    0.1181441 
C    -1.4106154   -3.1998373   -0.8934298 
C    -2.0317364   -3.6498668   -2.0613105 
H    -3.9028532   -3.8278360   -3.1498988 
H    -5.2408733   -2.6881997   -1.3714993 
H    -4.1261483   -1.8336996    0.6818282 
H    -0.3298733   -3.3216161   -0.7701646 
H    -1.4372456   -4.1364027   -2.8413932 
C     3.7243804   -3.3154583    5.2661870 
C     2.8211374   -2.3959188    5.8201330 
C     1.6747247   -2.0271354    5.1052123 
C     1.4106356   -2.5680459    3.8242810 
C     2.3329874   -3.4868062    3.2747839 
C     3.4730817   -3.8581025    3.9942280 
H     4.6198864   -3.6103794    5.8227069 
H     3.0064112   -1.9692466    6.8111338 
H     0.9662448   -1.3140738    5.5429146 
H     2.1740205   -3.8967255    2.2721466 
H     4.1758431   -4.5721337    3.5542115 
O     1.3070227    1.5804844   -0.6045772 
O    -1.1111129    1.9250969   -0.2633882 
O    -0.3587987   -0.0320405   -1.8141150 
C     3.3537286    0.5102868    3.0214042 
C     3.8057719   -0.5354877    0.4426293 
C     5.0346207    0.0520559    1.1787520 
C     4.7878600    0.0057981    2.7017512 
C     3.7189951   -2.0482904    0.2891871 
C     3.1452480    1.9555731    3.4356346 
C     2.1325497    1.8399530    0.5475696 
C     4.0445412    2.9837616    3.0938701 
C     2.6550365   -2.5922868   -0.4645978 
C     1.9502663    2.2972663    4.1054162 
C     4.6795809   -2.9294890    0.8160994 
C    -2.8806948    2.3660460    2.0757616 
C     1.1983163   -0.3356871   -4.2923314 
C    -2.9172952    1.2217656   -1.6686608 
C    -2.0115681    1.3901398   -2.8562525 
C    -0.0226295    0.6012728   -4.1354699 
C    -3.3297621    1.7284515    0.7381508 
C    -2.4829680    1.6041298   -0.3815908 
C    -0.7934733    0.6850286   -2.9598402 
C     2.5497985   -3.9726669   -0.6731879 
C     3.7541855    4.3196453    3.4117874 
C     4.5787700   -4.3142501    0.6038274 
C     1.6562466    3.6314070    4.4146339 
C    -2.3904420    2.2385705   -3.9309226 
C    -4.2492845    0.7587743   -1.8250786 
C    -0.4814201    1.4038755   -5.1969550 
C    -4.6565194    1.3097456    0.5193591 
C     3.5114962   -4.8431439   -0.1332421 
C     2.5580287    4.6490759    4.0652868 
C    -5.1172816    0.8000370   -0.7063643 
C    -1.6032386    2.2430501   -5.1073653 
C    -2.2456224    3.7567986    1.8058391 
C    -4.0813002    2.5809451    3.0260887 
C    -1.8664789    1.4640416    2.8198375 
C     0.7800792   -1.7931618   -3.9587601 
C     1.7325266   -0.3281018   -5.7426050 
C     2.3592044    0.1098890   -3.3688457 
C    -3.5889131    3.1569079   -3.8430652 
C    -4.7596970    0.2263167   -3.1438521 
C    -1.9738917    3.1284874   -6.2761698 
C    -6.5520339    0.3384548   -0.8318358 
H     3.7084483   -0.0937709   -0.5657280 
H     2.8902000   -0.1448229    3.7783316 
H     5.1663189    1.1003580    0.8548817 
H     5.9599244   -0.4776874    0.8934081 
H     4.8641013   -1.0349989    3.0599111 
H     5.5409381    0.5932061    3.2538458 
H     1.6619676    2.5758484    1.2229243 
H     3.0813703    2.2489930    0.1673493 
H     1.9126083   -1.9227133   -0.9144891 
H     4.9821182    2.7493590    2.5786803 
H     5.5247155   -2.5465872    1.3953067 
H     1.2440328    1.5045373    4.3811539 
H     1.7279951   -4.3705041   -1.2779384 
H     4.4679265    5.1061889    3.1455279 
H     5.3432658   -4.9802507    1.0175179 
H     0.7245150    3.8768902    4.9352917 
H     0.0699487    1.3979651   -6.1400384 
H    -5.3757125    1.3760000    1.3394178 
H     3.4356884   -5.9224226   -0.2998530 
H     2.3327847    5.6924545    4.3078417 
H    -2.9643829    4.4143285    1.2871755 
H    -1.3376502    3.6829706    1.1885460 
H    -1.9751206    4.2344054    2.7648774 
H    -4.5597966    1.6286636    3.3147084 
H    -4.8467208    3.2348520    2.5742188 
H    -0.9726715    1.2439667    2.2066976 
H    -2.3322429    0.5037210    3.1029829 
H    -1.5216390    1.9603492    3.7446700 
H    -0.0142359   -2.1336484   -4.6458106 
H     0.4012548   -1.8861958   -2.9302537 
H     1.6479652   -2.4674502   -4.0734820 
H     2.1066582    0.6665446   -6.0412733 
H     0.9622674   -0.6456916   -6.4666125 
H     2.5758800   -1.0358648   -5.8195211 
H     2.0720443    0.0786498   -2.3096232 
H     2.6690285    1.1434279   -3.6011339 
H     3.2291239   -0.5561303   -3.5126259 
H    -3.7288543    3.0678444    3.9517201 
H    -4.3652135    2.8819803   -4.5804951 
H    -3.2887351    4.1945680   -4.0745444 
H    -4.0474425    3.1520234   -2.8434696 
H    -3.9548822    0.1195345   -3.8854687 
H    -5.5378411    0.8857152   -3.5700220 
H    -5.2248297   -0.7642433   -3.0024604 
H    -3.0023463    2.9278929   -6.6284183 
H    -1.2877142    2.9769292   -7.1246732 
H    -1.9372138    4.1980575   -5.9974740 
H    -7.0989375    0.4683803    0.1157041 
H    -6.6115391   -0.7289355   -1.1141961 
H    -7.0904045    0.9006612   -1.6164934 
