125
Energy =
C     2.9803550    1.4298762   -1.6406136 
C     1.8423946    2.2667260   -1.4717838 
C     1.3317666    2.5354087   -0.1728660 
H     1.2481615    2.5516709   -2.3484066 
Pd    1.3708775    0.3229432   -0.5443356 
P    -0.4428191   -0.4501097    0.5938891 
P     1.6817847   -1.8715807   -1.2113572 
H     3.6953702    1.3717736   -0.8051567 
H     2.0489796    2.4902582    0.6596696 
C     4.5214514   -0.1106357   -5.3491605 
C     5.2574355   -0.2253993   -4.1591057 
C     4.7504635    0.3016675   -2.9658205 
C     3.4964446    0.9535764   -2.9369131 
C     2.7743331    1.0776114   -4.1465150 
C     3.2809825    0.5480797   -5.3375075 
H     4.9135895   -0.5267312   -6.2828371 
H     6.2288745   -0.7302954   -4.1560108 
H     5.3207410    0.1967958   -2.0380028 
H     1.7984197    1.5704121   -4.1621587 
H     2.6962056    0.6373641   -6.2584060 
C    -2.2770470    4.6706630    0.7577653 
C    -1.2583975    4.5339512    1.7116611 
C    -0.0928613    3.8262145    1.3997130 
C     0.0827692    3.2583758    0.1187554 
C    -0.9547666    3.3962610   -0.8312923 
C    -2.1227626    4.0935075   -0.5138300 
H    -3.1913993    5.2205686    1.0031173 
H    -1.3702108    4.9791793    2.7042880 
H     0.6906791    3.7099854    2.1560669 
H    -0.8586969    2.9325766   -1.8186065 
H    -2.9207325    4.1829235   -1.2577271 
O    -0.6748643   -2.0449023    0.2433885 
O    -1.8258951    0.3503617    0.2289856 
O    -0.4985936   -0.6574512    2.2254427 
C     2.0655095   -2.3093041   -2.9805058 
C     2.9803575   -3.0554605   -0.5563619 
C     2.8233223   -4.2693634   -1.5048553 
C     2.4772595   -3.8123526   -2.9555752 
C     4.3466442   -2.3821868   -0.5197404 
C     1.0321185   -1.8922316   -4.0144371 
C     0.0339948   -2.7083552   -0.8126061 
C     0.1581967   -0.8099954   -3.7899330 
C     5.3941311   -2.7337153   -1.3908655 
C     0.9786195   -2.5386390   -5.2657863 
C     4.5881178   -1.3872323    0.4512605 
C    -4.0583587   -0.4622897   -1.5574475 
C     1.5388689    0.3207776    4.1518611 
C    -3.1891873    0.1471881    2.2107627 
C    -2.1558048    0.9007618    2.9932914 
C     0.1328867    0.9351716    3.9664193 
C    -4.1153059   -0.4692040   -0.0130373 
C    -3.0690425   -0.0139162    0.8144342 
C    -0.8275567    0.4316331    3.0643829 
C     6.6551660   -2.1259014   -1.2775247 
C    -0.7378345   -0.3804255   -4.7773387 
C     5.8407666   -0.7721797    0.5601353 
C     0.0856677   -2.1094855   -6.2583583 
C    -2.5168850    2.0535977    3.7376942 
C    -4.3413561   -0.3687853    2.8611556 
C    -0.2946591    2.0330366    4.7375591 
C    -5.2678294   -0.8977862    0.6727958 
C     6.8847438   -1.1448695   -0.3037074 
C    -0.7761607   -1.0286649   -6.0198637 
C    -5.3853002   -0.9050135    2.0711427 
C    -1.5667919    2.6154498    4.6235918 
C    -2.9749772   -1.4393881   -2.0690483 
C    -5.4063175   -0.8929651   -2.1782993 
C    -3.7441826    0.9716258   -2.0582002 
C     2.4020850    0.5889332    2.8969654 
C     2.2781280    0.9468770    5.3573098 
C     1.4373700   -1.2051118    4.4148335 
C    -3.8777626    2.6976891    3.6064603 
C    -4.4715487   -0.3877611    4.3678301 
C    -1.9249632    3.8097533    5.4798947 
C    -6.6331017   -1.4621704    2.7187604 
H     2.6920180   -3.3225755    0.4761814 
H     2.9785032   -1.7013995   -3.1533315 
H     2.0084899   -4.9051416   -1.1193945 
H     3.7297183   -4.8973835   -1.4769686 
H     3.3331155   -3.9629953   -3.6344315 
H     1.6492375   -4.4268773   -3.3468794 
H    -0.5782000   -2.7206945   -1.7311698 
H     0.1971774   -3.7432682   -0.4724072 
H     5.2433474   -3.4948952   -2.1620378 
H     0.1874441   -0.2808679   -2.8261989 
H     3.7842121   -1.1050979    1.1388766 
H     1.6514820   -3.3746871   -5.4810545 
H     7.4604300   -2.4242565   -1.9567532 
H    -1.4099425    0.4586667   -4.5688418 
H     6.0076500   -0.0105944    1.3294849 
H     0.0653294   -2.6241292   -7.2246706 
H     0.3954840    2.4700874    5.4629576 
H    -6.1167224   -1.2702335    0.0951293 
H     7.8690888   -0.6742855   -0.2154518 
H    -1.4743016   -0.6975677   -6.7954372 
H    -3.1158719   -2.4461495   -1.6392507 
H    -1.9704635   -1.0817698   -1.8042157 
H    -3.0183715   -1.5184870   -3.1692180 
H    -6.2336664   -0.2326449   -1.8660180 
H    -5.6691780   -1.9329452   -1.9178094 
H    -2.7710198    1.3230568   -1.6838839 
H    -4.5198185    1.6810700   -1.7208885 
H    -3.7235322    0.9871462   -3.1633279 
H     2.5264602    1.6740941    2.7356333 
H     1.9488226    0.1575269    1.9850225 
H     3.4066686    0.1471520    3.0236606 
H     1.7201652    0.8007004    6.2980456 
H     2.4593404    2.0274133    5.2217097 
H     3.2613970    0.4588581    5.4715610 
H     0.9841972   -1.7420801    3.5684904 
H     0.8261280   -1.3998040    5.3128911 
H     2.4462621   -1.6189627    4.5931199 
H    -5.3302788   -0.8358901   -3.2779291 
H    -4.4585629    2.6129735    4.5432087 
H    -4.4699166    2.2545571    2.7929013 
H    -3.7684331    3.7769964    3.3994941 
H    -3.5521381   -0.0554149    4.8713901 
H    -4.6989019   -1.4117131    4.7147855 
H    -5.3044091    0.2529349    4.7113563 
H    -1.0765385    4.1187084    6.1112211 
H    -2.7798899    3.5849868    6.1439222 
H    -2.2276968    4.6795606    4.8677386 
H    -7.3618667   -1.7932549    1.9617197 
H    -7.1265833   -0.7114259    3.3628837 
H    -6.3979254   -2.3283644    3.3648060 
