125
Energy =
C     2.9040497    1.5134160   -2.0340514 
C     1.9654896    2.4370119   -1.4799025 
C     1.7759640    2.4836611   -0.0749405 
H     1.2654802    2.9616745   -2.1412157 
Pd    1.4063348    0.4028757   -0.8508051 
P    -0.1160622   -0.5124460    0.5593612 
P     1.7798743   -1.7702166   -1.5694896 
H     3.7831370    1.2644089   -1.4200919 
H     2.6085455    2.1118585    0.5428386 
C     3.3325496    0.5033479   -6.2012660 
C     4.3867638    0.2941233   -5.2994307 
C     4.2400267    0.6471788   -3.9512831 
C     3.0344931    1.2093463   -3.4740246 
C     1.9805404    1.4155669   -4.3945234 
C     2.1322945    1.0724523   -5.7427951 
H     3.4449338    0.2303409   -7.2552907 
H     5.3304846   -0.1377413   -5.6488307 
H     5.0682348    0.4956075   -3.2515529 
H     1.0256444    1.8255147   -4.0498699 
H     1.3062616    1.2421551   -6.4414448 
C    -1.0149456    4.8608767    2.1579790 
C    -0.0178843    4.1208335    2.8101919 
C     0.8723761    3.3415930    2.0646211 
C     0.7819432    3.2860867    0.6546365 
C    -0.2480879    4.0118716    0.0142148 
C    -1.1334618    4.7941248    0.7599136 
H    -1.6995835    5.4894256    2.7368362 
H     0.0707443    4.1570456    3.9007561 
H     1.6538974    2.7681296    2.5743249 
H    -0.3578627    3.9725062   -1.0738784 
H    -1.9205935    5.3572598    0.2491956 
O     0.1481781   -2.1476895    0.5981064 
O    -1.7181474   -0.5699418    0.1695175 
O    -0.0577988   -0.0644854    2.1212898 
C     1.8321045   -2.4222285   -3.3357482 
C     3.4881712   -2.4472280   -1.0879662 
C     4.0711576   -2.9597793   -2.4267855 
C     2.9194724   -3.5219660   -3.2732630 
C     4.2899541   -1.4139051   -0.3117778 
C     0.4805949   -2.7729890   -3.9190638 
C     0.5017763   -2.8007902   -0.6300719 
C    -0.1997554   -1.8218082   -4.7047521 
C     3.7783423   -0.9302892    0.9128418 
C    -0.1357423   -4.0203126   -3.6877246 
C     5.4993371   -0.8756162   -0.7860994 
C    -2.9552167    0.8691583   -2.1266329 
C     0.9091531   -1.4147848    4.5738364 
C    -2.7344884    0.8791499    1.7829313 
C    -2.3606430   -0.1001668    2.8581654 
C    -0.5783398   -1.1639298    4.2336195 
C    -3.0698657    1.3011896   -0.6472750 
C    -2.5089446    0.5761526    0.4232399 
C    -1.0189561   -0.4720794    3.0878319 
C     4.4319695    0.0874375    1.6187973 
C    -1.4607306   -2.1057545   -5.2449945 
C     6.1553517    0.1493466   -0.0822916 
C    -1.3999438   -4.3034872   -4.2242665 
C    -3.3651555   -0.6321298    3.7107487 
C    -3.4099004    2.0830827    2.1108317 
C    -1.6070271   -1.6006951    5.0897591 
C    -3.7967924    2.4459445   -0.2685200 
C     5.6183554    0.6442242    1.1139051 
C    -2.0676338   -3.3469198   -5.0032708 
C    -3.9449240    2.8680921    1.0618316 
C    -2.9716244   -1.3976219    4.8338968 
C    -3.3862342   -0.6116631   -2.2946135 
C    -3.8735109    1.7193003   -3.0355328 
C    -1.5056683    1.0653434   -2.6303232 
C     1.7115706   -0.0889354    4.4868191 
C     1.0767449   -1.9515993    6.0142985 
C     1.5026208   -2.4701149    3.6091403 
C    -4.8390854   -0.4271556    3.4398295 
C    -3.5678365    2.5483915    3.5398372 
C    -4.0066036   -1.9759259    5.7729134 
C    -4.7035056    4.1398504    1.3665113 
H     3.2800365   -3.3102023   -0.4271302 
H     2.2460569   -1.5610038   -3.8944265 
H     4.8616300   -3.7082092   -2.2458133 
H     4.5281361   -2.1194007   -2.9781856 
H     3.2484766   -3.7865524   -4.2929030 
H     2.5179375   -4.4418581   -2.8101349 
H    -0.3868051   -2.9250629   -1.2754547 
H     0.8989232   -3.7913940   -0.3577459 
H     2.8609298   -1.3642713    1.3249066 
H     0.2768958   -0.8553903   -4.8984831 
H     5.9457264   -1.2515716   -1.7110703 
H     0.3733023   -4.7861955   -3.0920586 
H     4.0137502    0.4405837    2.5664104 
H    -1.9693529   -1.3559667   -5.8602668 
H     7.0935815    0.5568288   -0.4729589 
H    -1.8613232   -5.2788465   -4.0381360 
H    -1.3404588   -2.1503448    5.9954081 
H    -4.2632084    3.0568773   -1.0449530 
H     6.1297903    1.4438324    1.6592771 
H    -3.0528593   -3.5711032   -5.4245200 
H    -4.4199914   -0.7537956   -1.9348174 
H    -2.7309365   -1.2999034   -1.7409380 
H    -3.3503535   -0.8920879   -3.3613579 
H    -3.5875192    2.7856162   -3.0389491 
H    -4.9322005    1.6419091   -2.7335396 
H    -0.7769668    0.4650202   -2.0540571 
H    -1.2095245    2.1258465   -2.5491426 
H    -1.4229757    0.7600363   -3.6876713 
H     1.2843999    0.6680854    5.1676990 
H     1.7101743    0.3262686    3.4681860 
H     2.7584447   -0.2688430    4.7910993 
H     0.6022448   -2.9387266    6.1488459 
H     0.6590537   -1.2560017    6.7628550 
H     2.1522894   -2.0731765    6.2298829 
H     1.4033208   -2.1612063    2.5596545 
H     0.9766947   -3.4338792    3.7200747 
H     2.5731321   -2.6301621    3.8312661 
H    -3.7929454    1.3526746   -4.0735483 
H    -5.3592947   -1.4015563    3.4224270 
H    -5.0223331    0.0730331    2.4778367 
H    -5.3186120    0.1709840    4.2364221 
H    -3.0078165    1.9183213    4.2459897 
H    -4.6289528    2.5557307    3.8493668 
H    -3.2007259    3.5846640    3.6421840 
H    -3.5305103   -2.5003405    6.6167615 
H    -4.6632049   -2.6977067    5.2522869 
H    -4.6648591   -1.1899923    6.1863991 
H    -5.0646994    4.6215201    0.4436555 
H    -4.0707101    4.8683461    1.9061254 
H    -5.5781493    3.9440122    2.0135328 
