125
Energy =
C     2.9744979    1.7309496   -1.9004882 
C     1.8079451    2.5124034   -1.6701222 
C     1.3294665    2.7090083   -0.3456536 
H     1.1785312    2.8109288   -2.5171532 
Pd    1.4286340    0.5160333   -0.8174355 
P    -0.3050162   -0.3282971    0.4008335 
P     1.6919213   -1.6438697   -1.6092757 
H     3.7019384    1.6723008   -1.0757549 
H     2.0738788    2.6623587    0.4622030 
C     4.5074760    0.3924109   -5.6977770 
C     5.2743384    0.2671756   -4.5285875 
C     4.7748787    0.7367367   -3.3079340 
C     3.4937134    1.3320059   -3.2221369 
C     2.7493617    1.4795805   -4.4158903 
C     3.2485864    1.0115421   -5.6364791 
H     4.8934996    0.0232110   -6.6531616 
H     6.2684375   -0.1899764   -4.5687820 
H     5.3898034    0.6519260   -2.4054077 
H     1.7667450    1.9601447   -4.3964455 
H     2.6486304    1.1270444   -6.5446466 
C    -2.3695301    4.5648277    0.8038270 
C    -1.3208957    4.4239492    1.7239950 
C    -0.1225041    3.8151584    1.3373425 
C     0.0550116    3.3518360    0.0152382 
C    -1.0103108    3.4970458   -0.9024029 
C    -2.2100994    4.0956860   -0.5109193 
H    -3.3103321    5.0345291    1.1086237 
H    -1.4352496    4.7869027    2.7491429 
H     0.6827464    3.6889282    2.0688596 
H    -0.9126000    3.1114339   -1.9224787 
H    -3.0290238    4.1935308   -1.2311047 
O    -0.5716380   -1.8961962   -0.0405576 
O    -1.7011580    0.4942493    0.1930377 
O    -0.2612586   -0.6307351    2.0168981 
C     1.9987730   -2.0205239   -3.4323881 
C     3.0036514   -2.8487673   -0.9617620 
C     3.7848996   -3.2532526   -2.2444677 
C     2.7854046   -3.3480679   -3.4034678 
C     3.8724371   -2.3458883    0.1709632 
C     0.7520347   -1.9367661   -4.2913999 
C     0.0200969   -2.4319019   -1.2328843 
C     0.2564473   -3.0447361   -5.0049742 
C     3.9066953   -3.0239432    1.4030472 
C     0.0609270   -0.7104706   -4.3924908 
C     4.7242695   -1.2381330   -0.0123353 
C    -3.9458717   -0.5255176   -1.5996342 
C     1.8319366    0.3406462    3.8585241 
C    -2.9795811    0.0564948    2.1790907 
C    -1.9446072    0.8090806    2.9598688 
C     0.3980362    0.9086868    3.7905707 
C    -3.9162146   -0.5154523   -0.0523035 
C    -2.8986506   -0.0031638    0.7693337 
C    -0.5940139    0.4008066    2.9272086 
C     4.7944547   -2.6252613    2.4143787 
C    -0.8916981   -2.9259783   -5.8043738 
C     5.6103639   -0.8368646    0.9943377 
C    -1.0774283   -0.5885706   -5.1972144 
C    -2.3111706    1.8990752    3.7903025 
C    -4.0625971   -0.5809176    2.8325373 
C    -0.0282259    1.9452465    4.6429059 
C    -4.9990530   -1.0927222    0.6453327 
C     5.6543901   -1.5371635    2.2109969 
C    -1.5601361   -1.6988678   -5.9072789 
C    -5.0808527   -1.1698944    2.0409663 
C    -1.3324578    2.4649653    4.6421348 
C    -2.9001910    0.3931204   -2.2737125 
C    -3.7252389   -1.9810779   -2.0856235 
C    -5.3351970   -0.0279550   -2.0836171 
C     1.7813294   -1.1864389    4.1288870 
C     2.5947149    0.6282727    2.5441039 
C     2.6456220    0.9857572    5.0040789 
C    -3.7081281    2.4759309    3.7795175 
C    -4.1459104   -0.6819508    4.3388284 
C    -1.6887665    3.6012668    5.5748047 
C    -6.2559631   -1.8644236    2.6919523 
H     2.4262933   -3.7226313   -0.6095667 
H     2.6910827   -1.2125922   -3.7408609 
H     4.3212904   -4.2012720   -2.0704098 
H     4.5454554   -2.4840154   -2.4710323 
H     3.2901147   -3.5196365   -4.3700826 
H     2.0987817   -4.1986724   -3.2342234 
H    -0.6340438   -2.2525742   -2.1045347 
H     0.1175848   -3.5175540   -1.0720572 
H     3.2468789   -3.8834777    1.5679216 
H     0.7702964   -4.0092326   -4.9559407 
H     4.7008747   -0.6983175   -0.9639992 
H     0.4230027    0.1540368   -3.8249085 
H     4.8181004   -3.1745537    3.3610894 
H    -1.2574147   -3.7985078   -6.3555363 
H     6.2728428    0.0196508    0.8293708 
H    -1.5904345    0.3755312   -5.2701938 
H     0.6877389    2.3818454    5.3432665 
H    -5.8173091   -1.5318874    0.0658516 
H     6.3528101   -1.2323462    2.9970036 
H    -2.4503116   -1.6063251   -6.5377810 
H    -1.8727883    0.0085309   -2.1855998 
H    -2.9217653    1.4103806   -1.8517909 
H    -3.1364954    0.4551493   -3.3494380 
H    -4.5375259   -2.6456693   -1.7445389 
H    -2.7790190   -2.3816331   -1.6858439 
H    -5.5224509    1.0050495   -1.7419576 
H    -6.1623470   -0.6619413   -1.7253875 
H    -5.3676760   -0.0387739   -3.1873628 
H     1.2957522   -1.7340751    3.3074847 
H     1.2276082   -1.3922222    5.0613720 
H     2.8075614   -1.5760333    4.2429652 
H     2.6780156    1.7170231    2.3778378 
H     2.0989058    0.1799098    1.6640901 
H     3.6121647    0.2082254    2.5910699 
H     2.1790435    0.8092257    5.9885536 
H     2.7701127    2.0742197    4.8655802 
H     3.6538185    0.5373572    5.0254529 
H    -3.6848847   -2.0202373   -3.1893095 
H    -3.6687726    3.5693415    3.6279142 
H    -4.2228779    2.3092465    4.7434297 
H    -4.3276483    2.0450002    2.9796722 
H    -4.2851897   -1.7348258    4.6428093 
H    -5.0137866   -0.1224045    4.7338726 
H    -3.2393026   -0.3031817    4.8327231 
H    -0.8219903    3.9074341    6.1821248 
H    -2.5045753    3.3156857    6.2638929 
H    -2.0458350    4.4901624    5.0214851 
H    -6.9708651   -2.2309178    1.9379802 
H    -6.7987796   -1.1872093    3.3765245 
H    -5.9269973   -2.7297276    3.2968669 
