125
Energy =
C     3.0070451    1.5933390   -1.2869510 
C     1.8428072    2.3995320   -1.1438342 
C     1.2023502    2.5633972    0.1127537 
H     1.3199083    2.7580490   -2.0393597 
Pd    1.3293793    0.3753636   -0.4535309 
P    -0.6057368   -0.5444671    0.3176567 
P     1.8435074   -1.7660010   -1.1986043 
H     3.6630043    1.4791935   -0.4109284 
H     1.8215474    2.4631521    1.0167950 
C     4.8018677    0.3923062   -5.0130140 
C     5.4347384    0.1271669   -3.7885673 
C     4.8536261    0.5509095   -2.5877444 
C     3.6203698    1.2415141   -2.5826558 
C     3.0032504    1.5200797   -3.8257547 
C     3.5880414    1.0993586   -5.0257020 
H     5.2536241    0.0590852   -5.9527959 
H     6.3872185   -0.4122853   -3.7636787 
H     5.3525033    0.3381759   -1.6382450 
H     2.0551020    2.0655693   -3.8638455 
H     3.0912863    1.3201111   -5.9758501 
C    -2.3637366    4.9068172    0.5869086 
C    -2.2240420    4.0757034   -0.5369925 
C    -1.0774591    3.2923491   -0.6904125 
C    -0.0564399    3.3105911    0.2861482 
C    -0.2263506    4.1175499    1.4323583 
C    -1.3603447    4.9275739    1.5666219 
H    -3.2562692    5.5304768    0.7011014 
H    -3.0127443    4.0377088   -1.2947783 
H    -0.9831723    2.6346523   -1.5606920 
H     0.5489324    4.1287838    2.2056326 
H    -1.4612122    5.5798660    2.4399218 
O    -0.8103405   -2.0077990   -0.4040286 
O    -1.9755788    0.2588180   -0.0399843 
O    -0.8025340   -1.0080732    1.8879919 
C     2.1572723   -1.9742035   -3.0485643 
C     3.2405301   -2.9129573   -0.6641256 
C     3.2370164   -3.9280967   -1.8325295 
C     3.1716840   -3.1493307   -3.1632507 
C     4.5483029   -2.1755385   -0.3942430 
C     0.8501300   -2.0438329   -3.8147031 
C     0.3151702   -2.8099943   -0.7737591 
C     0.3020776   -3.2524085   -4.2850095 
C     5.7482057   -2.4773158   -1.0650631 
C     0.1344106   -0.8482679   -4.0392645 
C     4.5796060   -1.1869598    0.6113216 
C    -4.3417812   -0.3905257   -1.7226655 
C     1.5457527   -0.3297944    3.7633592 
C    -3.2699786    0.2086049    2.0094798 
C    -2.1088420    0.7849928    2.7647346 
C     0.2152257    0.4436409    3.5899148 
C    -4.3447427   -0.2989264   -0.1783805 
C    -3.2215607    0.0311657    0.6070230 
C    -0.8748509    0.0934827    2.7749601 
C     6.9390355   -1.8050871   -0.7450793 
C    -0.9123646   -3.2607430   -4.9896895 
C     5.7640401   -0.5139834    0.9334206 
C    -1.0761854   -0.8553898   -4.7410614 
C    -2.2413656    1.9704284    3.5267253 
C    -4.4585215   -0.1445709    2.7015816 
C     0.0196449    1.6097892    4.3619614 
C    -5.5205366   -0.5578803    0.5528187 
C     6.9531279   -0.8187839    0.2506660 
C    -1.6000706   -2.0633528   -5.2268369 
C    -5.5940530   -0.5314745    1.9526647 
C    -1.1499470    2.3795484    4.3359077 
C    -5.7795547   -0.5214115   -2.2791359 
C    -3.7264663    0.8851890   -2.3542365 
C    -3.5504730   -1.6432453   -2.1718908 
C     2.7201065    0.5832716    3.3289048 
C     1.7058849   -0.6920960    5.2657927 
C     1.6490471   -1.6533377    2.9715720 
C    -3.5016434    2.8024750    3.5048271 
C    -4.5371163   -0.1548017    4.2121214 
C    -1.2530863    3.6192207    5.1953176 
C    -6.8855809   -0.9034243    2.6459348 
H     2.9148059   -3.3904350    0.2783515 
H     2.6602023   -1.0336297   -3.3283395 
H     2.3486344   -4.5793176   -1.7333555 
H     4.1144849   -4.5966361   -1.7851113 
H     4.1586923   -2.7145994   -3.3900052 
H     2.9171942   -3.8155624   -4.0030376 
H     0.0001928   -3.4030638   -1.6467419 
H     0.5829088   -3.4820050    0.0622989 
H     5.7737265   -3.2476357   -1.8408237 
H     0.8293091   -4.1988439   -4.1218022 
H     3.6612793   -0.9505339    1.1551883 
H     0.5460789    0.0969323   -3.6668455 
H     7.8606632   -2.0587675   -1.2790449 
H    -1.3165641   -4.2088251   -5.3591415 
H     5.7591609    0.2463255    1.7217330 
H    -1.6123759    0.0838493   -4.9102445 
H     0.8272179    1.9394395    5.0247021 
H    -6.4292211   -0.8234457    0.0083463 
H     7.8826203   -0.2960320    0.4973544 
H    -2.5425520   -2.0712183   -5.7835914 
H    -6.4198783    0.3242255   -1.9726840 
H    -6.2649286   -1.4614978   -1.9653522 
H    -5.7363342   -0.5288213   -3.3818978 
H    -2.6656974    1.0020813   -2.0905322 
H    -4.2708923    1.7861596   -2.0207027 
H    -3.9517520   -2.5497119   -1.6862185 
H    -2.4827569   -1.5659101   -1.9252534 
H    -3.6387077   -1.7702514   -3.2644072 
H     2.7329032    1.5357048    3.8847644 
H     2.6438659    0.8183705    2.2511829 
H     3.6859121    0.0760829    3.5023129 
H     0.8725082   -1.3328297    5.6011928 
H     1.7290320    0.2026836    5.9093755 
H     2.6508107   -1.2424332    5.4211996 
H     1.6400049   -1.4798673    1.8810309 
H     0.8280240   -2.3464585    3.2114660 
H     2.6067706   -2.1421645    3.2234156 
H    -3.8055032    0.8267243   -3.4545436 
H    -4.0233290    2.7635172    4.4787945 
H    -4.2020192    2.4700549    2.7251296 
H    -3.2586215    3.8613400    3.3156179 
H    -3.5643472    0.0446551    4.6845570 
H    -4.8901998   -1.1404342    4.5647657 
H    -5.2622910    0.5909563    4.5860579 
H    -0.3287108    3.7854506    5.7714851 
H    -2.0919905    3.5436260    5.9109919 
H    -1.4411475    4.5208428    4.5846726 
H    -7.6788508   -1.1301421    1.9157286 
H    -7.2456252   -0.0881767    3.2998990 
H    -6.7544058   -1.7924144    3.2906008 
