125
Energy =
C     2.9763140    1.6546419   -1.7736143 
C     1.7925593    2.4222371   -1.5889735 
C     1.2484599    2.6097115   -0.2899200 
H     1.2055983    2.7307662   -2.4628448 
Pd    1.3920889    0.4153104   -0.7694389 
P    -0.3770943   -0.4690235    0.3588297 
P     1.7346775   -1.7339230   -1.5584582 
H     3.6741581    1.6011567   -0.9236105 
H     1.9497878    2.5578716    0.5552093 
C     4.6917557    0.4665566   -5.5442064 
C     5.4461219    0.4075256   -4.3619506 
C     4.8838263    0.8225343   -3.1485979 
C     3.5518737    1.2956596   -3.0837572 
C     2.8160298    1.3749283   -4.2900873 
C     3.3786329    0.9628017   -5.5031749 
H     5.1280438    0.1406692   -6.4937549 
H     6.4794848    0.0464294   -4.3859945 
H     5.4901092    0.7978669   -2.2365985 
H     1.7880982    1.7477054   -4.2862751 
H     2.7846758    1.0234240   -6.4206267 
C    -2.4311423    4.6249768    0.6248355 
C    -1.4103107    4.5253923    1.5806812 
C    -0.2252657    3.8465610    1.2781178 
C    -0.0299932    3.2786478    0.0004468 
C    -1.0693397    3.3782358   -0.9525571 
C    -2.2583690    4.0421795   -0.6420406 
H    -3.3618745    5.1488365    0.8656032 
H    -1.5361193    4.9772150    2.5688652 
H     0.5587120    3.7547238    2.0372467 
H    -0.9574126    2.9082247   -1.9354818 
H    -3.0582920    4.1010280   -1.3868633 
O    -0.5701355   -2.0542068   -0.0464400 
O    -1.7980936    0.3021292    0.0991621 
O    -0.3443148   -0.7415273    1.9792443 
C     1.9980421   -1.9758641   -3.4029070 
C     3.1119708   -2.9284333   -1.0361154 
C     3.8374477   -3.2558551   -2.3720129 
C     2.7884159   -3.2973074   -3.4935345 
C     3.9992068   -2.4524937    0.0934467 
C     0.7420260   -1.8004428   -4.2333967 
C     0.1203175   -2.6341062   -1.1605397 
C     0.3041452   -2.7816963   -5.1424921 
C     4.0181203   -3.1335853    1.3246273 
C    -0.0078368   -0.6089174   -4.1206334 
C     4.8554510   -1.3469029   -0.0785117 
C    -4.1182327   -0.5587303   -1.5388611 
C     1.8255453    0.1855217    3.7661419 
C    -3.0190403    0.0548876    2.1696697 
C    -1.9379316    0.8019273    2.8919448 
C     0.4195649    0.8218816    3.6908482 
C    -4.0787099   -0.5651269    0.0060778 
C    -2.9901525   -0.0926613    0.7662580 
C    -0.6079979    0.3344196    2.8574923 
C     4.8921050   -2.7369830    2.3484924 
C    -0.8414608   -2.5695752   -5.9268749 
C     5.7286817   -0.9482051    0.9406073 
C    -1.1474928   -0.3951094   -4.9034201 
C    -2.2439849    1.9370568    3.6865800 
C    -4.1186902   -0.4837355    2.8892816 
C     0.0519424    1.9066534    4.5100499 
C    -5.1777130   -1.0149812    0.7623299 
C     5.7549704   -1.6485477    2.1577913 
C    -1.5675495   -1.3763613   -5.8151348 
C    -5.2049017   -1.0286875    2.1650855 
C    -1.2273869    2.4863635    4.5047926 
C    -3.8870335    0.8849063   -2.0563705 
C    -3.0362325   -1.4987734   -2.1208889 
C    -5.4871177   -1.0373267   -2.0732108 
C     1.7087562   -1.3356569    4.0507836 
C     2.6030700    0.4223367    2.4505967 
C     2.6677481    0.8037765    4.9061443 
C    -3.6163593    2.5701560    3.6820738 
C    -4.1474067   -0.5238754    4.4009439 
C    -1.5197414    3.6643792    5.4075316 
C    -6.4001517   -1.6071465    2.8887951 
H     2.5702844   -3.8319302   -0.7030877 
H     2.6923718   -1.1492262   -3.6552057 
H     4.3871229   -4.2070248   -2.2729004 
H     4.5813800   -2.4692573   -2.5936996 
H     3.2591398   -3.4028825   -4.4863762 
H     2.1136117   -4.1631433   -3.3535898 
H    -0.5179411   -2.6038426   -2.0611101 
H     0.3213275   -3.6831610   -0.8908234 
H     3.3541338   -3.9916880    1.4804817 
H     0.8622845   -3.7157701   -5.2577181 
H     4.8439886   -0.8046347   -1.0287581 
H     0.3003924    0.1513095   -3.3914205 
H     4.9022938   -3.2869332    3.2951070 
H    -1.1620445   -3.3429192   -6.6326200 
H     6.3946095   -0.0924961    0.7852501 
H    -1.7164442    0.5337288   -4.7919444 
H     0.7950913    2.3325619    5.1884460 
H    -6.0553231   -1.4008386    0.2390184 
H     6.4424983   -1.3443822    2.9535926 
H    -2.4586023   -1.2133755   -6.4299135 
H    -2.9079072    1.2728747   -1.7374081 
H    -4.6687013    1.5654069   -1.6760487 
H    -3.9278634    0.8988671   -3.1608976 
H    -3.0814955   -2.4954654   -1.6495277 
H    -2.0306600   -1.0817982   -1.9696668 
H    -6.3161144   -0.4056152   -1.7102231 
H    -5.6964739   -2.0852531   -1.7962784 
H    -5.4821301   -0.9798990   -3.1754425 
H     1.1981809   -1.8700938    3.2360577 
H     1.1487908   -1.5097211    4.9859707 
H     2.7181893   -1.7672833    4.1670076 
H     2.7583387    1.5028966    2.2824006 
H     2.0732087    0.0087855    1.5709716 
H     3.5904312   -0.0646236    2.4918104 
H     2.1894454    0.6634393    5.8908328 
H     2.8474930    1.8826358    4.7544502 
H     3.6521794    0.3058999    4.9362232 
H    -3.1791552   -1.6181181   -3.2084763 
H    -4.2655527    2.1447974    2.9031492 
H    -3.5362181    3.6564565    3.5025610 
H    -4.1210812    2.4477676    4.6578986 
H    -3.2021081   -0.1821668    4.8468431 
H    -4.3337242   -1.5561504    4.7477416 
H    -4.9661965    0.0972569    4.8081454 
H    -0.6305468    3.9518954    5.9911277 
H    -2.3341652    3.4334077    6.1184611 
H    -1.8493942    4.5503177    4.8336295 
H    -7.1718918   -1.9442221    2.1784280 
H    -6.8609908   -0.8671605    3.5685571 
H    -6.1117152   -2.4736736    3.5125176 
