125
Energy =
C     2.8551648    1.5113470   -2.1625995 
C     1.8387460    2.4468603   -1.8073166 
C     1.5351758    2.7216710   -0.4521242 
H     1.1494920    2.7995392   -2.5839353 
Pd    1.3636441    0.5008712   -0.8633664 
P    -0.1438194   -0.3492034    0.6225460 
P     1.9277504   -1.6949787   -1.3152862 
H     3.7161271    1.4128293   -1.4851017 
H     2.3111834    2.4953230    0.2962470 
C     3.5030286   -0.0931425   -6.1079999 
C     4.5367151   -0.0832480   -5.1591213 
C     4.3197155    0.4614544   -3.8863418 
C     3.0636161    1.0038984   -3.5347017 
C     2.0337838    0.9966456   -4.5045929 
C     2.2527211    0.4557850   -5.7763983 
H     3.6694643   -0.5212766   -7.1015543 
H     5.5186385   -0.4964010   -5.4129942 
H     5.1279301    0.4744083   -3.1486423 
H     1.0449833    1.3958310   -4.2539287 
H     1.4408275    0.4512723   -6.5108878 
C    -1.5157183    5.3954765    0.9671999 
C    -0.8877266    4.4973244    1.8444694 
C     0.0916423    3.6203864    1.3699948 
C     0.4579388    3.6205100    0.0045349 
C    -0.1926677    4.5192826   -0.8709879 
C    -1.1705096    5.3982826   -0.3918895 
H    -2.2712259    6.0932287    1.3410562 
H    -1.1598401    4.4832690    2.9045345 
H     0.5708904    2.9132758    2.0554497 
H     0.0926727    4.5644279   -1.9269608 
H    -1.6521214    6.1008656   -1.0797346 
O     0.1360869   -1.9715444    0.7704549 
O    -1.7502200   -0.3934336    0.2325189 
O    -0.1185173    0.1360065    2.1818169 
C     1.9554429   -2.5293655   -3.0036292 
C     3.6899370   -2.2384386   -0.8389659 
C     4.2117883   -2.9655432   -2.1046213 
C     3.0266451   -3.6265189   -2.8217458 
C     4.5382261   -1.0906289   -0.3088695 
C     0.5834027   -2.9196946   -3.5097976 
C     0.7137689   -2.7294357   -0.2976801 
C    -0.2553091   -1.9232924   -4.0498480 
C     5.7883371   -0.7561621   -0.8609417 
C     0.0994845   -4.2412609   -3.4384093 
C     4.0613300   -0.3144388    0.7681734 
C    -3.0486351    1.1868883   -1.9371850 
C     0.9005113   -1.7713410    4.4032725 
C    -2.7778931    0.9337523    1.9548484 
C    -2.3819959   -0.1223384    2.9412563 
C    -0.5579481   -1.3573667    4.0925682 
C    -3.1124949    1.5345956   -0.4332158 
C    -2.5471445    0.7300605    0.5767354 
C    -1.0221273   -0.4736228    3.1035364 
C     6.5154483    0.3465449   -0.3805215 
C    -1.5386842   -2.2377659   -4.5112268 
C     4.7825688    0.7835870    1.2521911 
C    -1.1897407   -4.5551740   -3.8957958 
C    -3.3654780   -0.7767275    3.7224395 
C    -3.4678237    2.0987776    2.3737896 
C    -1.5734813   -1.9323742    4.8882982 
C    -3.8338931    2.6511593    0.0310744 
C     6.0115575    1.1286769    0.6673777 
C    -2.0133731   -3.5558658   -4.4322651 
C    -3.9949192    2.9658995    1.3887707 
C    -2.9408715   -1.6943380    4.7159589 
C    -3.6113018   -0.2420696   -2.1542621 
C    -3.9043687    2.1613252   -2.7790632 
C    -1.5993800    1.2833600   -2.4680562 
C     1.9766099   -1.0571667    3.5626920 
C     1.2010631   -1.4608447    5.8941323 
C     1.0426736   -3.2949126    4.1432713 
C    -4.8456968   -0.5523789    3.5101528 
C    -3.6424598    2.4403409    3.8360051 
C    -3.9492508   -2.4098055    5.5865220 
C    -4.7643275    4.2036371    1.7892519 
H     3.5440556   -2.9764194   -0.0267016 
H     2.3699066   -1.7431578   -3.6642740 
H     4.9968334   -3.6936702   -1.8385111 
H     4.6603997   -2.2258202   -2.7904332 
H     3.3202157   -4.0442185   -3.8004259 
H     2.6314100   -4.4619100   -2.2142717 
H    -0.0765367   -3.0863053   -0.9826479 
H     1.2156307   -3.5942947    0.1653202 
H     6.2127673   -1.3534807   -1.6728912 
H     0.1138280   -0.8953038   -4.1142632 
H     3.1117425   -0.5777437    1.2430172 
H     0.7290355   -5.0403744   -3.0344072 
H     7.4836308    0.5900232   -0.8302679 
H    -2.1690007   -1.4518126   -4.9389802 
H     4.3841386    1.3649051    2.0906691 
H    -1.5467304   -5.5886498   -3.8378497 
H    -1.2780730   -2.6321003    5.6770887 
H    -4.2909939    3.3240007   -0.6975870 
H     6.5788476    1.9889666    1.0366141 
H    -3.0170240   -3.8033804   -4.7924749 
H    -4.6383098   -0.3141806   -1.7564199 
H    -2.9918253   -1.0068340   -1.6615371 
H    -3.6476747   -0.4712302   -3.2334465 
H    -3.5368059    3.2002600   -2.7099853 
H    -4.9653262    2.1436368   -2.4761119 
H    -0.9266719    0.5567871   -1.9784737 
H    -1.1986393    2.2960353   -2.2943991 
H    -1.5772976    1.0793007   -3.5538918 
H     1.9200446    0.0400630    3.6481580 
H     1.8815588   -1.3311299    2.5021269 
H     2.9745678   -1.3805977    3.9072779 
H     0.5216917   -1.9943398    6.5791298 
H     1.1066368   -0.3792009    6.0937168 
H     2.2328326   -1.7692003    6.1397041 
H     0.8088348   -3.5254338    3.0889865 
H     0.3639790   -3.8874396    4.7794976 
H     2.0767189   -3.6215945    4.3559514 
H    -3.8554647    1.8607424   -3.8400414 
H    -5.3633104   -1.5196832    3.3822497 
H    -5.0515597    0.0635795    2.6228109 
H    -5.3085983   -0.0605517    4.3856226 
H    -3.1026854    1.7429591    4.4931075 
H    -4.7083056    2.4349704    4.1287427 
H    -3.2682230    3.4604223    4.0384038 
H    -3.4501901   -3.0485188    6.3327924 
H    -4.6177141   -3.0517200    4.9831222 
H    -4.5973913   -1.6956249    6.1263855 
H    -5.0626365    4.7930178    0.9074745 
H    -4.1676002    4.8574417    2.4508745 
H    -5.6804876    3.9422333    2.3508741 
