125
Energy =
C     2.8688983    1.3890247   -2.1343129 
C     1.8485877    2.3390804   -1.8191942 
C     1.4981660    2.6076013   -0.4764029 
H     1.2010907    2.7131802   -2.6219956 
Pd    1.3117774    0.3822312   -0.9301443 
P    -0.3275304   -0.4719368    0.3948984 
P     1.9150704   -1.8019030   -1.3213407 
H     3.7105195    1.2966295   -1.4319369 
H     2.2301516    2.3304671    0.2993999 
C     3.6064772   -0.2527970   -6.0480375 
C     4.6344696   -0.1861424   -5.0950614 
C     4.3908443    0.3727629   -3.8330359 
C     3.1138224    0.8755322   -3.4983797 
C     2.0900804    0.8125102   -4.4734060 
C     2.3344346    0.2545151   -5.7329600 
H     3.7938151   -0.6948993   -7.0317068 
H     5.6321203   -0.5675999   -5.3368882 
H     5.1941527    0.4278357   -3.0917031 
H     1.0850616    1.1770076   -4.2332743 
H     1.5254552    0.2021218   -6.4686257 
C    -1.4957006    5.3709099    0.8845328 
C    -0.9498038    4.4195209    1.7608709 
C     0.0099413    3.5122965    1.3044811 
C     0.4416798    3.5385131   -0.0417200 
C    -0.1199701    4.4969285   -0.9156262 
C    -1.0820177    5.4031367   -0.4549525 
H    -2.2410824    6.0866429    1.2448793 
H    -1.2734778    4.3855173    2.8056516 
H     0.4233484    2.7625641    1.9874317 
H     0.2230598    4.5636071   -1.9531557 
H    -1.4964768    6.1494425   -1.1405320 
O    -0.3003367   -2.1168640    0.3355666 
O    -1.9400424   -0.3491705    0.0956569 
O    -0.1689436   -0.0558016    1.9775067 
C     2.0562786   -2.5960219   -3.0179777 
C     3.6467796   -2.3223373   -0.7427660 
C     4.2657501   -2.9979672   -1.9932764 
C     3.1415180   -3.6705870   -2.7982187 
C     4.4080221   -1.1588651   -0.1213818 
C     0.7081598   -2.9981677   -3.5767951 
C     0.6712217   -2.8789523   -0.3854384 
C    -0.2610675   -1.9983532   -3.8091774 
C     5.6523801   -0.7217620   -0.6098929 
C     0.3705916   -4.3388381   -3.8413421 
C     3.8379766   -0.4587171    0.9648755 
C    -3.1713810    1.4337608   -1.9244224 
C     0.9666352   -1.6586494    4.2020894 
C    -2.8280539    0.9078462    1.9381604 
C    -2.4092469   -0.1977305    2.8613121 
C    -0.5413961   -1.3957426    3.9860192 
C    -3.2017567    1.6801543   -0.3983667 
C    -2.6497459    0.7884076    0.5438803 
C    -1.0541668   -0.5769329    2.9603184 
C     6.2854191    0.4069816   -0.0608105 
C    -1.5332887   -2.3294592   -4.2882259 
C     4.4664154    0.6644555    1.5162585 
C    -0.9049798   -4.6701920   -4.3271201 
C    -3.3570414   -0.8344109    3.7048377 
C    -3.4636608    2.0694046    2.4493254 
C    -1.5123249   -1.9428472    4.8465416 
C    -3.8755158    2.7842245    0.1558999 
C     5.6903121    1.1127353    0.9934463 
C    -1.8605743   -3.6697904   -4.5484949 
C    -3.9936284    3.0103386    1.5358933 
C    -2.8913144   -1.7249624    4.7014568 
C    -3.8431213    0.0696176   -2.2327756 
C    -3.9508821    2.5288731   -2.6876148 
C    -1.7224758    1.4495200   -2.4681576 
C     1.7355720   -0.3123004    4.2788613 
C     1.2286712   -2.4148866    5.5244948 
C     1.5270442   -2.5283017    3.0517525 
C    -4.8440984   -0.6067561    3.5516478 
C    -3.5718155    2.3390904    3.9332832 
C    -3.8646000   -2.4211480    5.6260652 
C    -4.7036097    4.2479731    2.0353740 
H     3.4694106   -3.0887793    0.0362385 
H     2.4821352   -1.7885292   -3.6453823 
H     5.0533531   -3.7126773   -1.7003068 
H     4.7325978   -2.2285170   -2.6324285 
H     3.5096187   -4.0579413   -3.7641952 
H     2.7279412   -4.5291146   -2.2353987 
H     0.1329407   -3.5015938   -1.1206959 
H     1.2036855   -3.5264569    0.3315254 
H     6.1447731   -1.2583990   -1.4257978 
H    -0.0103017   -0.9514205   -3.6057181 
H     2.8913571   -0.8003726    1.3948804 
H     1.1031879   -5.1358084   -3.6807714 
H     7.2514191    0.7310226   -0.4617537 
H    -2.2717420   -1.5398522   -4.4565190 
H     3.9989899    1.1853393    2.3586362 
H    -1.1484834   -5.7175971   -4.5333460 
H    -1.1883937   -2.5941162    5.6616425 
H    -4.3248414    3.5204842   -0.5138133 
H     6.1834616    1.9938207    1.4161634 
H    -2.8552755   -3.9312478   -4.9233907 
H    -4.8724463    0.0483283   -1.8352789 
H    -3.2830248   -0.7709993   -1.7947827 
H    -3.8994799   -0.0798785   -3.3262818 
H    -3.5103866    3.5297205   -2.5338949 
H    -5.0127242    2.5623455   -2.3892278 
H    -1.0984934    0.6616089   -2.0143937 
H    -1.2484419    2.4233573   -2.2630169 
H    -1.7264799    1.2855026   -3.5614027 
H     1.3650197    0.2947300    5.1229441 
H     1.6235916    0.2781617    3.3562847 
H     2.8116364   -0.5036666    4.4410612 
H     0.7781141   -3.4223680    5.5235138 
H     0.8436840   -1.8591737    6.3968505 
H     2.3170228   -2.5392943    5.6595399 
H     1.4300550   -2.0094970    2.0879728 
H     0.9789411   -3.4834512    2.9799535 
H     2.5966901   -2.7463266    3.2214432 
H    -3.9161938    2.3108315   -3.7690785 
H    -5.3650002   -1.5737756    3.4332539 
H    -5.0822115    0.0168645    2.6776509 
H    -5.2752372   -0.1245401    4.4481422 
H    -3.0119586    1.6066700    4.5327358 
H    -4.6240640    2.3276974    4.2716841 
H    -3.1799948    3.3451833    4.1693898 
H    -3.3366908   -3.0408234    6.3684907 
H    -4.5529216   -3.0786057    5.0630401 
H    -4.4952147   -1.6961511    6.1725697 
H    -5.0465955    4.8773327    1.1986532 
H    -4.0451583    4.8633124    2.6760966 
H    -5.5845141    3.9874922    2.6504962 
