125
Energy =
C     3.1167159    1.6169552   -1.6040358 
C     1.9995857    2.4747814   -1.4126068 
C     1.4793753    2.6852941   -0.1043718 
H     1.4187617    2.8095253   -2.2804191 
Pd    1.4749288    0.4966186   -0.5930777 
P    -0.3115535   -0.2812644    0.5773097 
P     1.6586053   -1.6561656   -1.4391712 
H     3.7973511    1.4777850   -0.7489456 
H     2.1912014    2.6074086    0.7299466 
C     4.7069170    0.1334602   -5.3141610 
C     5.3155186   -0.1802286   -4.0883992 
C     4.8004197    0.3369868   -2.8943994 
C     3.6591554    1.1721545   -2.8996484 
C     3.0640069    1.4931171   -4.1418348 
C     3.5846615    0.9785216   -5.3353557 
H     5.1078022   -0.2701164   -6.2493841 
H     6.1966393   -0.8296586   -4.0593224 
H     5.2737088    0.0822405   -1.9406725 
H     2.1877839    2.1484355   -4.1814306 
H     3.1110288    1.2357030   -6.2882279 
C    -2.2136950    4.6313142    0.9171787 
C    -1.2137685    4.4395266    1.8816319 
C    -0.0137644    3.8101102    1.5346100 
C     0.2145773    3.3724053    0.2112980 
C    -0.8012670    3.5723097   -0.7511573 
C    -2.0026510    4.1932801   -0.4008052 
H    -3.1559785    5.1177192    1.1895743 
H    -1.3673975    4.7782503    2.9099488 
H     0.7528538    3.6473797    2.2993782 
H    -0.6644765    3.2130219   -1.7761936 
H    -2.7826970    4.3322231   -1.1565590 
O    -0.5952842   -1.8498468    0.1478636 
O    -1.6614654    0.5864190    0.2685898 
O    -0.3820882   -0.5657211    2.1964620 
C     1.9952258   -2.0114534   -3.2695412 
C     2.8785508   -2.9362221   -0.7834233 
C     2.8758764   -3.9801525   -1.9217352 
C     2.9576364   -3.2359379   -3.2704879 
C     4.2210496   -2.2935365   -0.4457991 
C     0.7148426   -2.1282226   -4.0750264 
C    -0.0385362   -2.3934074   -1.0588733 
C     0.0455494   -3.3574048   -4.2481568 
C     5.4271510   -2.6624685   -1.0705233 
C     0.1551627   -0.9703911   -4.6510294 
C     4.2684713   -1.2997521    0.5543972 
C    -3.7561497   -0.3695651   -1.7443031 
C     1.5347062    0.3830636    4.2395900 
C    -3.1186703    0.1329141    2.1191208 
C    -2.1502226    0.8609937    3.0031020 
C     0.1008999    0.9303545    4.0592708 
C    -3.8539720   -0.3880452   -0.1992398 
C    -2.9121491    0.0973084    0.7215787 
C    -0.8034297    0.4448825    3.0915647 
C     6.6374127   -2.0397417   -0.7236345 
C    -1.1444621   -3.4262633   -4.9861713 
C     5.4714355   -0.6723330    0.8993829 
C    -1.0310893   -1.0393604   -5.3941577 
C    -2.5863633    1.9437386    3.8092932 
C    -4.2677117   -0.4944990    2.6591659 
C    -0.4020110    1.9517914    4.8872573 
C    -5.0099819   -0.9493321    0.3859526 
C     6.6645877   -1.0355884    0.2533078 
C    -1.6855313   -2.2679607   -5.5642263 
C    -5.2217142   -1.0466157    1.7663677 
C    -1.6941487    2.4855022    4.7649098 
C    -2.5437046    0.3934757   -2.3264823 
C    -3.7086089   -1.8330118   -2.2545560 
C    -5.0233282    0.3311390   -2.3071556 
C     2.2115325    0.9626615    5.5032638 
C     1.5195294   -1.1609584    4.3929419 
C     2.4015761    0.7911112    3.0254141 
C    -3.9662313    2.5430182    3.6629975 
C    -4.4910441   -0.6193585    4.1491802 
C    -2.1301654    3.6148506    5.6715849 
C    -6.4665356   -1.7241340    2.2941368 
H     2.4381084   -3.3479432    0.1435994 
H     2.5369982   -1.1168276   -3.6172701 
H     1.9369846   -4.5617120   -1.8688932 
H     3.6957290   -4.7095241   -1.7993920 
H     3.9803567   -2.8566940   -3.4274399 
H     2.7298231   -3.9063708   -4.1154815 
H    -0.6999845   -2.1894320   -1.9170681 
H     0.0228703   -3.4829353   -0.9069105 
H     5.4418590   -3.4465198   -1.8325873 
H     0.4546612   -4.2746763   -3.8101996 
H     3.3469254   -1.0204744    1.0768338 
H     0.6690298   -0.0109102   -4.5255302 
H     7.5626113   -2.3444664   -1.2236333 
H    -1.6475518   -4.3902294   -5.1144185 
H     5.4796899    0.0956950    1.6801066 
H    -1.4419497   -0.1311458   -5.8473272 
H     0.2438075    2.3693686    5.6631858 
H    -5.7820289   -1.3582875   -0.2744527 
H     7.6079061   -0.5477506    0.5184670 
H    -2.6102125   -2.3246188   -6.1474983 
H    -1.5826462   -0.1034116   -2.1196096 
H    -2.4842670    1.4221325   -1.9386061 
H    -2.6543158    0.4363534   -3.4234091 
H    -4.6235334   -2.3880789   -1.9867547 
H    -2.8523670   -2.3716990   -1.8145951 
H    -5.0752779    1.3784364   -1.9616035 
H    -5.9539009   -0.1748505   -2.0019535 
H    -4.9907912    0.3317183   -3.4112142 
H     1.6441660    0.7186438    6.4177798 
H     2.3324393    2.0585334    5.4478058 
H     3.2190855    0.5242175    5.6068098 
H     1.1185838   -1.6629078    3.5002767 
H     0.9019184   -1.4542175    5.2593653 
H     2.5475535   -1.5262777    4.5675891 
H     2.4810679    1.8900012    2.9563990 
H     1.9753256    0.4196166    2.0772155 
H     3.4214837    0.3804260    3.1289754 
H    -3.6016753   -1.8541076   -3.3532391 
H    -4.5091941    2.1286053    2.8012926 
H    -3.8919847    3.6365565    3.5248723 
H    -4.5784215    2.3798041    4.5688105 
H    -3.6267165   -0.2675766    4.7309897 
H    -4.6778597   -1.6741110    4.4191781 
H    -5.3808244   -0.0487909    4.4735053 
H    -1.3276177    3.8991434    6.3707914 
H    -3.0183122    3.3344123    6.2668624 
H    -2.4130543    4.5159684    5.0953776 
H    -7.1179821   -2.0595399    1.4712784 
H    -7.0540655   -1.0465732    2.9403361 
H    -6.2133962   -2.6080065    2.9085131 
