125
Energy =
C     3.0093448    1.4150172   -1.6019183 
C     1.8758734    2.2593356   -1.4416015 
C     1.3526791    2.5257879   -0.1472279 
H     1.2939425    2.5527215   -2.3236226 
Pd    1.3787585    0.3148034   -0.5285914 
P    -0.4528495   -0.4490753    0.5863740 
P     1.6753342   -1.8778480   -1.2087225 
H     3.7141284    1.3465202   -0.7585712 
H     2.0598308    2.4706168    0.6932615 
C     4.5812110   -0.1164747   -5.3012373 
C     5.3016472   -0.2453945   -4.1031447 
C     4.7850109    0.2787033   -2.9127135 
C     3.5367018    0.9418607   -2.8947892 
C     2.8307556    1.0806572   -4.1123166 
C     3.3469871    0.5539943   -5.3004673 
H     4.9805752   -0.5308253   -6.2326214 
H     6.2683980   -0.7590625   -4.0915827 
H     5.3431549    0.1629884   -1.9788066 
H     1.8601203    1.5833824   -4.1368976 
H     2.7745658    0.6549526   -6.2278906 
C    -2.2511446    4.6807681    0.7573490 
C    -1.2498381    4.5188604    1.7255904 
C    -0.0860487    3.8049764    1.4215669 
C     0.1058253    3.2562210    0.1345857 
C    -0.9140586    3.4200288   -0.8303379 
C    -2.0806458    4.1233113   -0.5209090 
H    -3.1644624    5.2350547    0.9966162 
H    -1.3738564    4.9493224    2.7232278 
H     0.6831319    3.6682996    2.1891552 
H    -0.8056968    2.9728479   -1.8239646 
H    -2.8647312    4.2333109   -1.2767114 
O    -0.6983405   -2.0379772    0.2196846 
O    -1.8246767    0.3684700    0.2167322 
O    -0.5249859   -0.6694573    2.2156570 
C     2.0717760   -2.3041386   -2.9778338 
C     2.9543077   -3.0812428   -0.5511514 
C     2.7958234   -4.2847327   -1.5126406 
C     2.4681784   -3.8113724   -2.9624195 
C     4.3267792   -2.4221539   -0.4929114 
C     1.0528514   -1.8673398   -4.0180235 
C     0.0150840   -2.7010143   -0.8333463 
C     0.1877226   -0.7783163   -3.7924100 
C     5.3802852   -2.7754795   -1.3559496 
C     1.0052774   -2.5019640   -5.2756598 
C     4.5670014   -1.4387853    0.4901620 
C    -4.0470156   -0.4086218   -1.5980358 
C     1.5051908    0.2775315    4.1657767 
C    -3.2080076    0.1582899    2.1837149 
C    -2.1755060    0.8964754    2.9820357 
C     0.1050355    0.9035354    3.9748120 
C    -4.1186786   -0.4290583   -0.0543553 
C    -3.0763438    0.0094118    0.7870255 
C    -0.8517957    0.4157190    3.0604002 
C     6.6455536   -2.1804383   -1.2234932 
C    -0.6944703   -0.3311879   -4.7844933 
C     5.8241024   -0.8367454    0.6184128 
C     0.1264309   -2.0550600   -6.2729646 
C    -2.5335378    2.0456836    3.7334706 
C    -4.3707626   -0.3534426    2.8184198 
C    -0.3202636    1.9979437    4.7521193 
C    -5.2813300   -0.8537484    0.6166591 
C     6.8737965   -1.2110479   -0.2377989 
C    -0.7271848   -0.9680375   -6.0330306 
C    -5.4121362   -0.8725625    2.0137025 
C    -1.5865885    2.5917304    4.6325847 
C    -2.9683421   -1.3917089   -2.1081754 
C    -5.3931978   -0.8205352   -2.2352555 
C    -3.7142651    1.0265663   -2.0830057 
C     2.3810569    0.5555780    2.9217667 
C     2.2372348    0.8845802    5.3853449 
C     1.3926901   -1.2507467    4.4094832 
C    -3.8881282    2.7018078    3.5965310 
C    -4.5150689   -0.3860790    4.3235733 
C    -1.9418922    3.7820699    5.4956459 
C    -6.6714314   -1.4232975    2.6443847 
H     2.6520473   -3.3551063    0.4756300 
H     2.9925483   -1.7042420   -3.1366197 
H     1.9716443   -4.9167533   -1.1411563 
H     3.6962989   -4.9210284   -1.4817220 
H     3.3289411   -3.9646210   -3.6344509 
H     1.6378108   -4.4139974   -3.3670035 
H    -0.5876383   -2.7009232   -1.7582640 
H     0.1648973   -3.7398468   -0.4989292 
H     5.2308086   -3.5282135   -2.1356296 
H     0.2132088   -0.2574893   -2.8240439 
H     3.7583191   -1.1555693    1.1717158 
H     1.6721897   -3.3424759   -5.4919759 
H     7.4551229   -2.4794077   -1.8973105 
H    -1.3603155    0.5126036   -4.5749212 
H     5.9898930   -0.0842406    1.3968808 
H     0.1105778   -2.5607513   -7.2440713 
H     0.3670845    2.4227936    5.4873347 
H    -6.1278317   -1.2137234    0.0276890 
H     7.8615558   -0.7508387   -0.1343405 
H    -1.4147849   -0.6234707   -6.8121389 
H    -3.1220394   -2.4004534   -1.6874948 
H    -1.9628025   -1.0454116   -1.8322715 
H    -3.0032075   -1.4618804   -3.2092609 
H    -6.2170330   -0.1552158   -1.9243176 
H    -5.6683833   -1.8603294   -1.9869754 
H    -2.7417131    1.3657292   -1.6960329 
H    -4.4866348    1.7403032   -1.7472674 
H    -3.6824335    1.0513492   -3.1876979 
H     2.5114607    1.6418114    2.7730812 
H     1.9340458    0.1358492    2.0012576 
H     3.3825482    0.1080525    3.0526842 
H     1.6684918    0.7329111    6.3187322 
H     2.4287012    1.9649406    5.2632920 
H     3.2152595    0.3872390    5.5042586 
H     0.9444423   -1.7751232    3.5527466 
H     0.7722391   -1.4526691    5.2995795 
H     2.3976499   -1.6722547    4.5919569 
H    -5.3065046   -0.7540370   -3.3335568 
H    -4.4794584    2.6088773    4.5259047 
H    -4.4747722    2.2735998    2.7710712 
H    -3.7690497    3.7829313    3.4052301 
H    -3.5981248   -0.0650681    4.8388384 
H    -4.7525673   -1.4118007    4.6583074 
H    -5.3467699    0.2569327    4.6655285 
H    -1.0999181    4.0716283    6.1445480 
H    -2.8114022    3.5633437    6.1423971 
H    -2.2207372    4.6629184    4.8877775 
H    -7.3963781   -1.7397726    1.8774889 
H    -7.1633730   -0.6738893    3.2912119 
H    -6.4507863   -2.2979737    3.2840837 
