125
Energy =
C     2.7177326    1.5456189   -2.2582060 
C     1.7378508    2.4447693   -1.7360993 
C     1.5955265    2.5851623   -0.3317945 
H     0.9803117    2.8698095   -2.4054507 
Pd    1.3430977    0.4321642   -0.9370650 
P    -0.0605724   -0.4723804    0.5977810 
P     1.8395660   -1.7595324   -1.5108450 
H     3.6335473    1.4038829   -1.6640780 
H     2.4734375    2.3174114    0.2770398 
C     3.0648670    0.2504753   -6.3532262 
C     4.1657122    0.1907422   -5.4854834 
C     4.0435254    0.6352476   -4.1621257 
C     2.8170720    1.1412726   -3.6757380 
C     1.7158457    1.1962540   -4.5616427 
C     1.8422158    0.7619431   -5.8860083 
H     3.1578816   -0.0943850   -7.3878962 
H     5.1261555   -0.1951369   -5.8429868 
H     4.9070587    0.6005791   -3.4900575 
H     0.7459859    1.5589255   -4.2061848 
H     0.9794761    0.8147090   -6.5584397 
C    -1.2732195    4.9307987    1.8347504 
C    -0.2055963    4.3084346    2.4979977 
C     0.7100820    3.5374460    1.7750682 
C     0.5748786    3.3722980    0.3773139 
C    -0.5242815    3.9790746   -0.2719008 
C    -1.4350182    4.7538726    0.4507114 
H    -1.9793613    5.5531833    2.3940868 
H    -0.0820232    4.4304895    3.5788840 
H     1.5461060    3.0555255    2.2929139 
H    -0.6685464    3.8526646   -1.3492494 
H    -2.2764014    5.2244709   -0.0671500 
O     0.3189017   -2.0782814    0.7461344 
O    -1.6681306   -0.6660441    0.2803046 
O     0.0233224    0.0965594    2.1186483 
C     1.8677551   -2.5366012   -3.2267976 
C     3.6092124   -2.2807414   -1.0590451 
C     4.1757175   -2.8428665   -2.3848282 
C     3.0372050   -3.5469472   -3.1377587 
C     4.3641111   -1.1428600   -0.3894685 
C     0.5236680   -3.0281203   -3.7185056 
C     0.6738730   -2.7988610   -0.4433583 
C     0.0128246   -4.2943905   -3.3648513 
C     3.8628438   -0.6054286    0.8167966 
C    -0.2580336   -2.1933339   -4.5413630 
C     5.5175409   -0.5633263   -0.9472437 
C    -3.0842946    0.5117296   -2.0595250 
C     1.1732990   -0.9979292    4.6203603 
C    -2.7231136    0.8286338    1.8261040 
C    -2.2422141   -0.0404400    2.9522745 
C    -0.3396437   -0.8738745    4.3254627 
C    -3.1748769    1.0452342   -0.6120368 
C    -2.5265192    0.4408810    0.4836597 
C    -0.8700085   -0.3019138    3.1519079 
C     4.4705183    0.5007477    1.4239025 
C    -1.2479651   -4.7087431   -3.8175453 
C     6.1271897    0.5498355   -0.3427309 
C    -1.5158558   -2.6084902   -4.9978706 
C    -3.1745190   -0.5741661    3.8822143 
C    -3.4688856    2.0055481    2.0942862 
C    -1.3027621   -1.3136008    5.2534578 
C    -3.9657059    2.1638484   -0.2870145 
C     5.5994617    1.0942420    0.8359630 
C    -2.0175924   -3.8667240   -4.6339840 
C    -4.0950234    2.6726856    1.0146245 
C    -2.6867898   -1.2242914    5.0405592 
C    -4.0862276    1.2332900   -2.9908243 
C    -1.6687125    0.7573963   -2.6334198 
C    -3.4250858   -1.0012551   -2.1008651 
C     1.8026796   -2.0824543    3.7125306 
C     1.8780379    0.3675758    4.4016372 
C     1.4308496   -1.4098588    6.0885107 
C    -4.6681887   -0.4910993    3.6587919 
C    -3.6077947    2.5638992    3.4916227 
C    -3.6431520   -1.7997258    6.0610696 
C    -4.9294575    3.9095996    1.2583261 
H     3.4898688   -3.1083925   -0.3339931 
H     2.1912576   -1.6918684   -3.8648007 
H     5.0275835   -3.5164893   -2.1895216 
H     4.5449930   -2.0122450   -3.0119486 
H     3.3443272   -3.8594571   -4.1505827 
H     2.7255119   -4.4580518   -2.5946129 
H    -0.2263283   -3.0335701   -1.0400328 
H     1.1505166   -3.7356674   -0.1142123 
H     2.9912282   -1.0668268    1.2934950 
H     0.6023669   -4.9724058   -2.7377581 
H     5.9561000   -0.9756824   -1.8603411 
H     0.1363552   -1.2138520   -4.8310241 
H     4.0616478    0.8944312    2.3594850 
H    -1.6266896   -5.6967753   -3.5361978 
H     7.0220745    0.9876484   -0.7971026 
H    -2.1043415   -1.9481730   -5.6437303 
H    -0.9647379   -1.7741126    6.1846340 
H    -4.5009984    2.6829905   -1.0855149 
H     6.0748262    1.9621319    1.3040863 
H    -3.0002558   -4.1930398   -4.9892572 
H    -3.8693759    2.3119301   -3.0827341 
H    -5.1266378    1.1139673   -2.6426150 
H    -4.0185046    0.7955004   -4.0018177 
H    -0.8845922    0.2400410   -2.0495607 
H    -1.4343629    1.8363152   -2.6336936 
H    -4.4351439   -1.1783823   -1.6926126 
H    -2.7090138   -1.6034048   -1.5225945 
H    -3.4066015   -1.3599724   -3.1443330 
H     1.6435094   -1.8622255    2.6481714 
H     1.3494866   -3.0677044    3.9166450 
H     2.8891709   -2.1533478    3.9006898 
H     1.4236541    1.1451106    5.0404393 
H     1.8115304    0.7015030    3.3557119 
H     2.9448395    0.2814591    4.6757659 
H     1.0326204   -2.4135508    6.3158419 
H     0.9927066   -0.6885820    6.8001391 
H     2.5194625   -1.4412088    6.2670856 
H    -1.6067051    0.3866001   -3.6710516 
H    -5.1177342   -1.4975732    3.7314877 
H    -4.9215290   -0.0764724    2.6723417 
H    -5.1598604    0.1293891    4.4304211 
H    -2.9797810    2.0273261    4.2174912 
H    -4.6550183    2.5220820    3.8430486 
H    -3.3115032    3.6274427    3.5045219 
H    -3.1007640   -2.2264651    6.9198612 
H    -4.2656754   -2.6009332    5.6211429 
H    -4.3397268   -1.0315955    6.4440633 
H    -5.3559987    4.2965067    0.3189069 
H    -4.3304125    4.7168116    1.7185829 
H    -5.7647158    3.7037126    1.9525520 
