125
Energy =
C     2.9225493    1.5446273   -1.9867392 
C     1.9782729    2.4600534   -1.4289032 
C     1.7751891    2.4872074   -0.0252570 
H     1.2841765    2.9932735   -2.0896075 
Pd    1.4141444    0.4173533   -0.8323671 
P    -0.1185801   -0.5186321    0.5526089 
P     1.7938162   -1.7457109   -1.5789804 
H     3.7956953    1.2871455   -1.3678034 
H     2.6022569    2.1080381    0.5954121 
C     3.3900690    0.5891008   -6.1625253 
C     2.1852399    1.1514871   -5.7077700 
C     2.0210079    1.4774099   -4.3567053 
C     3.0666129    1.2598553   -3.4293283 
C     4.2769427    0.7047572   -3.9027234 
C     4.4362093    0.3690923   -5.2538897 
H     3.5121325    0.3293897   -7.2188267 
H     1.3654464    1.3294980   -6.4116866 
H     1.0628078    1.8825991   -4.0156089 
H     5.0988425    0.5446682   -3.1974451 
H     5.3834829   -0.0574223   -5.6002205 
C    -1.0409678    4.8291728    2.2133579 
C    -0.0504471    4.0798115    2.8649053 
C     0.8482811    3.3124715    2.1171850 
C     0.7729960    3.2782884    0.7056333 
C    -0.2506051    4.0131789    0.0653059 
C    -1.1444198    4.7836219    0.8132657 
H    -1.7321750    5.4485257    2.7943070 
H     0.0266540    4.0996916    3.9567657 
H     1.6244183    2.7314441    2.6265301 
H    -0.3484785    3.9905783   -1.0244013 
H    -1.9266883    5.3537290    0.3028073 
O     0.1502429   -2.1537923    0.5722737 
O    -1.7166762   -0.5751691    0.1460341 
O    -0.0758958   -0.0917701    2.1206598 
C     1.8617848   -2.3730484   -3.3535201 
C     3.4971666   -2.4301922   -1.0911324 
C     4.0922565   -2.9244099   -2.4315321 
C     2.9482495   -3.4740513   -3.2964074 
C     4.2924283   -1.4085262   -0.2930915 
C     0.5153023   -2.7155829   -3.9531877 
C     0.5066905   -2.7878729   -0.6651983 
C    -0.1561561   -1.7555549   -4.7356940 
C     5.5075179   -0.8661702   -0.7477674 
C    -0.1052937   -3.9640068   -3.7397611 
C     3.7691395   -0.9404807    0.9326682 
C    -2.9347434    0.8917883   -2.1421520 
C     0.8710892   -1.4707021    4.5652474 
C    -2.7512356    0.8503989    1.7689875 
C    -2.3855262   -0.1423171    2.8347600 
C    -0.6136339   -1.2177334    4.2146237 
C    -3.0643514    1.3041705   -0.6584666 
C    -2.5122722    0.5659366    0.4076073 
C    -1.0451728   -0.5136665    3.0728607 
C     6.1585164    0.1473923   -0.0231233 
C    -1.4130728   -2.0315764   -5.2893824 
C     4.4176204    0.0660032    1.6591654 
C    -1.3654822   -4.2392540   -4.2896262 
C    -3.3967317   -0.6869722    3.6712325 
C    -3.4319363    2.0487562    2.1063383 
C    -1.6492984   -1.6664638    5.0560608 
C    -3.7968086    2.4426274   -0.2715783 
C     5.6104034    0.6268445    1.1742801 
C    -2.0246083   -3.2736655   -5.0648015 
C    -3.9581239    2.8468912    1.0627734 
C    -3.0119161   -1.4641373    4.7893572 
C    -3.8451174    1.7526734   -3.0488839 
C    -1.4805636    1.0958801   -2.6290176 
C    -3.3623160   -0.5872526   -2.3331219 
C     1.0264747   -2.0217450    6.0017349 
C     1.4732245   -2.5159987    3.5949694 
C     1.6737753   -0.1438594    4.4986581 
C    -4.8684948   -0.4825431    3.3883884 
C    -3.6046977    2.4947680    3.5397775 
C    -4.0543583   -2.0557698    5.7116350 
C    -4.7214726    4.1134340    1.3770528 
H     3.2825415   -3.3021531   -0.4443259 
H     2.2807193   -1.5044858   -3.8968264 
H     4.8806655   -3.6757718   -2.2537325 
H     4.5546983   -2.0766415   -2.9668280 
H     3.2865741   -3.7244339   -4.3165772 
H     2.5420528   -4.4001323   -2.8500143 
H    -0.3789828   -2.8974451   -1.3172101 
H     0.8981825   -3.7846419   -0.4076207 
H     5.9627158   -1.2304103   -1.6731511 
H     0.3239661   -0.7882161   -4.9156675 
H     2.8470078   -1.3785659    1.3296506 
H     0.3971171   -4.7367152   -3.1472548 
H     7.1014699    0.5582145   -0.3986155 
H    -1.9148844   -1.2748048   -5.9016801 
H     3.9903048    0.4072643    2.6070616 
H    -1.8304742   -5.2153401   -4.1168074 
H    -1.3899287   -2.2258803    5.9578074 
H    -4.2566429    3.0632332   -1.0442500 
H     6.1181051    1.4174345    1.7360374 
H    -3.0068312   -3.4914985   -5.4962601 
H    -3.5607305    2.8193285   -3.0351159 
H    -4.9067114    1.6697701   -2.7587928 
H    -3.7534038    1.4000695   -4.0908141 
H    -0.7574230    0.4858064   -2.0560462 
H    -1.1849957    2.1547707   -2.5274474 
H    -4.3975750   -0.7363667   -1.9805595 
H    -2.7084653   -1.2818721   -1.7857205 
H    -3.3204809   -0.8527796   -3.4034208 
H     0.5523970   -3.0108851    6.1221064 
H     0.6008789   -1.3342873    6.7533562 
H     2.1002109   -2.1438138    6.2258575 
H     1.3814703   -2.1972772    2.5476768 
H     0.9477816   -3.4814479    3.6928607 
H     2.5422454   -2.6768337    3.8235979 
H     1.2399512    0.6064683    5.1827449 
H     1.6820228    0.2811785    3.4841673 
H     2.7177426   -0.3265211    4.8111094 
H    -1.3880479    0.8080794   -3.6904629 
H    -5.3854834   -1.4581625    3.3526247 
H    -5.0436097    0.0300698    2.4314432 
H    -5.3577911    0.1033591    4.1881197 
H    -3.0519967    1.8553298    4.2432387 
H    -4.6689937    2.4979143    3.8382526 
H    -3.2388383    3.5295841    3.6597981 
H    -3.5850742   -2.5889464    6.5538048 
H    -4.7041904   -2.7729004    5.1763115 
H    -4.7184255   -1.2762535    6.1279711 
H    -5.0723859    4.6081824    0.4571570 
H    -4.0958181    4.8345023    1.9346106 
H    -5.6034455    3.9073404    2.0108400 
