125
Energy =
C     2.8783195    1.5568129   -1.9795236 
C     1.9400394    2.4955818   -1.4434045 
C     1.7185316    2.5430947   -0.0453665 
H     1.2651718    3.0326999   -2.1211117 
Pd    1.3444256    0.4610296   -0.8396722 
P    -0.2672497   -0.4616882    0.4603913 
P     1.7306991   -1.7052411   -1.5306538 
H     3.7550905    1.3123323   -1.3607278 
H     2.5213510    2.1325238    0.5873972 
C     3.2815942    0.4837625   -6.1326003 
C     4.3609222    0.3407278   -5.2478045 
C     4.2263247    0.7157887   -3.9040232 
C     3.0084848    1.2414536   -3.4172000 
C     1.9294851    1.3853255   -4.3222106 
C     2.0665440    1.0121678   -5.6636836 
H     3.3845484    0.1876348   -7.1813241 
H     5.3137114   -0.0628064   -5.6062659 
H     5.0698664    0.6043172   -3.2153542 
H     0.9656166    1.7632770   -3.9659399 
H     1.2181975    1.1234327   -6.3470707 
C    -1.0307476    4.9738711    2.1790458 
C    -0.1056604    4.1488208    2.8353216 
C     0.7694616    3.3528377    2.0902116 
C     0.7364574    3.3656105    0.6762850 
C    -0.2217128    4.1791815    0.0296363 
C    -1.0941565    4.9759324    0.7759110 
H    -1.7014336    5.6162091    2.7589308 
H    -0.0612957    4.1316933    3.9290364 
H     1.4938639    2.7112300    2.6033505 
H    -0.2802406    4.2019941   -1.0630378 
H    -1.8267158    5.6062340    0.2620927 
O    -0.1138907   -2.1120511    0.3960036 
O    -1.8740135   -0.4208824    0.0923978 
O    -0.1690780   -0.0806095    2.0361400 
C     2.0926998   -2.2529865   -3.2954813 
C     3.2143253   -2.5312044   -0.7123988 
C     3.6605707   -3.5699124   -1.7710806 
C     3.4494206   -3.0049252   -3.1940669 
C     4.2049929   -1.4679389   -0.2609295 
C     0.8846473   -2.9816579   -3.8540460 
C     0.2609555   -2.6880059   -0.8674839 
C     0.7336721   -4.3794988   -3.7708876 
C     5.3766521   -1.1481422   -0.9683343 
C    -0.1683477   -2.2178557   -4.4017780 
C     3.8995574   -0.7250414    0.9021844 
C    -3.0481475    1.1634253   -2.1176800 
C     0.8029853   -1.5692649    4.3801812 
C    -2.8114131    0.9886104    1.7888361 
C    -2.4559941   -0.0481050    2.8181426 
C    -0.6846488   -1.2446547    4.1028646 
C    -3.1452686    1.5360982   -0.6198886 
C    -2.6098353    0.7417691    0.4134587 
C    -1.1269697   -0.4861286    3.0019729 
C     6.2074977   -0.0971132   -0.5416675 
C    -0.4422047   -4.9975691   -4.2234036 
C     4.7268076    0.3200967    1.3302852 
C    -1.3449084   -2.8345248   -4.8462876 
C    -3.4589171   -0.5742015    3.6767519 
C    -3.4407327    2.2017379    2.1731253 
C    -1.7075396   -1.6717281    4.9704853 
C    -3.8305252    2.6862574   -0.1860265 
C     5.8822524    0.6469163    0.6008477 
C    -1.4869086   -4.2281961   -4.7557074 
C    -3.9574083    3.0495304    1.1639033 
C    -3.0681916   -1.3989333    4.7590200 
C    -3.8770155    2.1309850   -2.9937272 
C    -1.5814752    1.2493092   -2.6053905 
C    -3.6010988   -0.2672742   -2.3523273 
C     1.3387771   -2.5777110    3.3332856 
C     1.6539369   -0.2701227    4.3556338 
C     0.9868612   -2.2068489    5.7767347 
C    -4.9300289   -0.3034567    3.4526227 
C    -3.5664631    2.6155992    3.6210945 
C    -4.1031470   -1.9705271    5.7023539 
C    -4.6759268    4.3281176    1.5304193 
H     2.8219720   -3.0344663    0.1891249 
H     2.2290169   -1.3169781   -3.8623030 
H     3.0457179   -4.4781414   -1.6385466 
H     4.7090974   -3.8740161   -1.6059774 
H     4.2459640   -2.2812897   -3.4347497 
H     3.5037307   -3.8029982   -3.9538269 
H    -0.5733407   -2.6522954   -1.5903521 
H     0.5296943   -3.7379144   -0.6727888 
H     5.6571469   -1.7167290   -1.8599173 
H     1.5358865   -4.9988470   -3.3551403 
H     3.0081071   -0.9782379    1.4863460 
H    -0.0570925   -1.1297624   -4.4759763 
H     7.1156982    0.1364019   -1.1072080 
H    -0.5405416   -6.0862336   -4.1590414 
H     4.4725479    0.8728763    2.2412403 
H    -2.1510311   -2.2263590   -5.2700098 
H    -1.4430636   -2.2693876    5.8458584 
H    -4.2781449    3.3495995   -0.9297072 
H     6.5328268    1.4628975    0.9311627 
H    -2.4042706   -4.7127031   -5.1049280 
H    -3.5017601    3.1678954   -2.9371845 
H    -4.9433127    2.1288225   -2.7097034 
H    -3.8115770    1.8115879   -4.0481882 
H    -0.9284098    0.5144362   -2.1020980 
H    -1.1680920    2.2549083   -2.4160029 
H    -4.6584347   -0.3274665   -2.0419011 
H    -3.0332295   -1.0259479   -1.7931817 
H    -3.5458811   -0.5168042   -3.4274639 
H     1.2602048   -2.1852385    2.3100604 
H     0.7650502   -3.5196973    3.3713714 
H     2.3994444   -2.8084283    3.5407389 
H     1.2808816    0.4519497    5.1030005 
H     1.6362362    0.2167264    3.3688026 
H     2.7032284   -0.5093178    4.6060289 
H     0.4750830   -3.1810468    5.8593681 
H     0.6177136   -1.5467768    6.5808668 
H     2.0617285   -2.3838385    5.9537875 
H    -1.5296414    1.0522952   -3.6914379 
H    -5.3679306    0.2758979    4.2861583 
H    -5.4867257   -1.2564895    3.4058722 
H    -5.1167658    0.2450615    2.5180786 
H    -3.0300957    1.9335583    4.2966250 
H    -4.6234818    2.6589516    3.9410816 
H    -3.1513652    3.6294637    3.7599344 
H    -3.6289117   -2.5485095    6.5115412 
H    -4.8034905   -2.6421526    5.1717438 
H    -4.7158633   -1.1749187    6.1644595 
H    -5.5595882    4.1274388    2.1637090 
H    -5.0174011    4.8668552    0.6319428 
H    -4.0235418    5.0081466    2.1079433 
