125
Energy =
C     3.1598113    1.5320555   -1.6026411 
C     2.0674360    2.4200906   -1.4064071 
C     1.5548422    2.6399406   -0.0965336 
H     1.4949692    2.7747085   -2.2719022 
Pd    1.4893585    0.4550260   -0.5904394 
P    -0.3170175   -0.2760397    0.5792339 
P     1.6190403   -1.7024100   -1.4344244 
H     3.8383141    1.3718642   -0.7495942 
H     2.2658289    2.5408684    0.7362965 
C     4.6989449    0.0132867   -5.3200046 
C     5.3064052   -0.3136014   -4.0971753 
C     4.8087265    0.2151075   -2.9007886 
C     3.6861706    1.0752080   -2.9006654 
C     3.0919121    1.4086928   -4.1400072 
C     3.5954209    0.8828126   -5.3359107 
H     5.0862444   -0.3991828   -6.2570655 
H     6.1730924   -0.9823290   -4.0722862 
H     5.2810642   -0.0496445   -1.9493359 
H     2.2295054    2.0823186   -4.1753370 
H     3.1227563    1.1500068   -6.2865070 
C    -2.0743907    4.7000122    0.9299643 
C    -1.0729177    4.4915629    1.8893036 
C     0.1060385    3.8240151    1.5411614 
C     0.3113511    3.3639519    0.2217550 
C    -0.7065383    3.5795165   -0.7351484 
C    -1.8868871    4.2388475   -0.3836732 
H    -3.0000177    5.2169937    1.2031258 
H    -1.2088451    4.8473175    2.9143813 
H     0.8741515    3.6494672    2.3017817 
H    -0.5884352    3.2018818   -1.7559242 
H    -2.6691638    4.3894964   -1.1348604 
O    -0.6359112   -1.8397849    0.1565602 
O    -1.6440667    0.6225567    0.2598945 
O    -0.4011908   -0.5513048    2.1992912 
C     1.9464249   -2.0707645   -3.2638243 
C     2.8109834   -3.0070134   -0.7752306 
C     2.7853835   -4.0539381   -1.9103987 
C     2.8825047   -3.3156611   -3.2613853 
C     4.1672344   -2.3928289   -0.4393299 
C     0.6638537   -2.1637897   -4.0688721 
C    -0.0938875   -2.3996487   -1.0494053 
C     0.1336986   -0.9989240   -4.6583254 
C     5.3652051   -2.7903767   -1.0621333 
C    -0.0353937   -3.3779282   -4.2296362 
C     4.2361816   -1.3970625    0.5575915 
C    -3.7582615   -0.2876347   -1.7540586 
C     1.5297774    0.3516307    4.2492477 
C    -3.1180433    0.2182746    2.1084887 
C    -2.1337868    0.9260048    2.9916556 
C     0.1135905    0.9394449    4.0579169 
C    -3.8605335   -0.2953834   -0.2091809 
C    -2.9084845    0.1692983    0.7118127 
C    -0.7989411    0.4747195    3.0877382 
C     6.5887493   -2.1934866   -0.7164120 
C    -1.0530066   -1.0467884   -5.4024692 
C     5.4523772   -0.7948303    0.9009411 
C    -1.2261576   -3.4254237   -4.9679983 
C    -2.5442899    2.0234383    3.7914697 
C    -4.2845159   -0.3761143    2.6485367 
C    -0.3652716    1.9776496    4.8791968 
C    -5.0325627   -0.8227816    0.3756141 
C     6.6375565   -1.1866383    0.2569175 
C    -1.7376464   -2.2605269   -5.5596381 
C    -5.2503215   -0.9075817    1.7559110 
C    -1.6419468    2.5454824    4.7485376 
C    -2.5256038    0.4418432   -2.3368554 
C    -3.7463142   -1.7545557   -2.2563783 
C    -5.0059092    0.4414747   -2.3244124 
C     1.4663588   -1.1898712    4.4153497 
C     2.4147078    0.7226513    3.0362139 
C     2.2179044    0.9211249    5.5113563 
C    -3.9075328    2.6577850    3.6378390 
C    -4.5149583   -0.4874478    4.1385382 
C    -2.0518380    3.6894964    5.6489551 
C    -6.5138448   -1.5495316    2.2836724 
H     2.3617961   -3.4063524    0.1529872 
H     2.5068942   -1.1890493   -3.6148645 
H     1.8342060   -4.6149182   -1.8553973 
H     3.5893694   -4.8004482   -1.7862786 
H     3.9130914   -2.9589590   -3.4198958 
H     2.6396979   -3.9835073   -4.1042322 
H    -0.7519780   -2.1834656   -1.9071626 
H    -0.0568949   -3.4897924   -0.8940426 
H     5.3629386   -3.5771063   -1.8215472 
H     0.6711338   -0.0511975   -4.5428806 
H     3.3208401   -1.0958590    1.0787040 
H     0.3506532   -4.3002056   -3.7813514 
H     7.5072912   -2.5203797   -1.2146605 
H    -1.4406886   -0.1337602   -5.8662448 
H     5.4768876   -0.0243018    1.6788593 
H    -1.7529466   -4.3779468   -5.0861526 
H     0.2881078    2.3809412    5.6563398 
H    -5.8132898   -1.2146139   -0.2849126 
H     7.5912799   -0.7188119    0.5208902 
H    -2.6628606   -2.3006982   -6.1434232 
H    -1.5777037   -0.0774044   -2.1245137 
H    -2.4419936    1.4708039   -1.9541564 
H    -2.6320130    0.4817519   -3.4343038 
H    -4.6759352   -2.2846272   -1.9884624 
H    -2.9054753   -2.3126167   -1.8109131 
H    -5.0328984    1.4914615   -1.9842898 
H    -5.9496845   -0.0397268   -2.0197570 
H    -4.9699147    0.4356319   -3.4283362 
H     1.0523469   -1.6863557    3.5255813 
H     0.8376081   -1.4564815    5.2823710 
H     2.4820179   -1.5855978    4.5960283 
H     2.5301456    1.8178840    2.9601591 
H     1.9810113    0.3586901    2.0886125 
H     3.4201869    0.2796476    3.1473882 
H     1.6408553    0.6993808    6.4254837 
H     2.3693149    2.0128128    5.4486608 
H     3.2124975    0.4556180    5.6217205 
H    -3.6366575   -1.7842978   -3.3545565 
H    -4.4594346    2.2520774    2.7777258 
H    -3.8038932    3.7479833    3.4925124 
H    -4.5256652    2.5170559    4.5433954 
H    -3.6432432   -0.1554297    4.7209408 
H    -4.7300148   -1.5355622    4.4132591 
H    -5.3903155    0.1078716    4.4575383 
H    -1.2405358    3.9637735    6.3420498 
H    -2.9418519    3.4296602    6.2509255 
H    -2.3213718    4.5913874    5.0677958 
H    -7.1719465   -1.8714813    1.4607364 
H    -7.0848242   -0.8536887    2.9252582 
H    -6.2855827   -2.4368861    2.9027382 
