125
Energy =
C     2.8633284    1.5262991   -2.0839081 
C     1.9188468    2.4447003   -1.5312482 
C     1.7427124    2.5064083   -0.1250508 
H     1.2053696    2.9519199   -2.1917817 
Pd    1.3919404    0.4120837   -0.8707289 
P    -0.1009936   -0.5056095    0.5687458 
P     1.7831730   -1.7648394   -1.5696182 
H     3.7517376    1.2956821   -1.4762337 
H     2.5862526    2.1536150    0.4890358 
C     3.2617884    0.4743328   -6.2435981 
C     4.3294300    0.2930764   -5.3515715 
C     4.1919549    0.6590612   -4.0058776 
C     2.9825925    1.2065672   -3.5214097 
C     1.9148345    1.3841152   -4.4319170 
C     2.0571687    1.0281156   -5.7778526 
H     3.3668207    0.1908610   -7.2956187 
H     5.2764522   -0.1264814   -5.7069637 
H     5.0304923    0.5295808   -3.3140288 
H     0.9570852    1.7816860   -4.0807474 
H     1.2205382    1.1756867   -6.4688791 
C    -1.0595323    4.8726430    2.1056663 
C    -0.0479107    4.1521938    2.7573815 
C     0.8461920    3.3764757    2.0127620 
C     0.7450271    3.3047088    0.6042465 
C    -0.2991941    4.0107621   -0.0352737 
C    -1.1884439    4.7896221    0.7094167 
H    -1.7475052    5.4984893    2.6834915 
H     0.0492169    4.2012394    3.8467205 
H     1.6387298    2.8180419    2.5220912 
H    -0.4168218    3.9591462   -1.1220465 
H    -1.9870177    5.3370429    0.1993449 
O     0.1884565   -2.1363360    0.6251724 
O    -1.7062903   -0.5917608    0.1972604 
O    -0.0316072   -0.0368708    2.1239131 
C     1.8209067   -2.4351161   -3.3293761 
C     3.5052882   -2.4160011   -1.1028131 
C     4.0780366   -2.9345725   -2.4437307 
C     2.9230719   -3.5202851   -3.2695697 
C     4.3041974   -1.3660394   -0.3462603 
C     0.4669072   -2.8097005   -3.8918094 
C     0.5292182   -2.7987354   -0.6018741 
C    -0.1325502   -4.0602317   -3.6347822 
C     3.8009155   -0.8753068    0.8789564 
C    -0.2326956   -1.8786065   -4.6845662 
C     5.5028658   -0.8205529   -0.8391225 
C    -2.9899757    0.7981941   -2.1025636 
C     0.9822441   -1.3389200    4.5835097 
C    -2.7254874    0.8636708    1.8034081 
C    -2.3254034   -0.0959227    2.8869946 
C    -0.5124055   -1.1136873    4.2571208 
C    -3.0942929    1.2487001   -0.6280360 
C    -2.5107499    0.5461413    0.4453169 
C    -0.9759460   -0.4448949    3.1067295 
C     4.4524132    0.1551327    1.5682225 
C    -1.3990977   -4.3659154   -4.1530445 
C     6.1569293    0.2167954   -0.1518445 
C    -1.4959501   -2.1851681   -5.2068260 
C    -3.3124280   -0.6308121    3.7579705 
C    -3.4148699    2.0619055    2.1231764 
C    -1.5249883   -1.5528953    5.1310679 
C    -3.8335036    2.3877951   -0.2561556 
C     5.6283276    0.7177233    1.0455792 
C    -2.0858956   -3.4292506   -4.9396356 
C    -3.9727608    2.8253393    1.0701517 
C    -2.8952158   -1.3741543    4.8874249 
C    -1.5480520    1.0039006   -2.6240110 
C    -3.4054933   -0.6896888   -2.2452280 
C    -3.9272654    1.6252719   -3.0132976 
C     1.1735964   -1.8519393    6.0296627 
C     1.5788501   -2.4003780    3.6275007 
C     1.7655163   -0.0038336    4.4676039 
C    -4.7921160   -0.4518783    3.5003347 
C    -3.5642709    2.5435384    3.5477050 
C    -3.9110646   -1.9543376    5.8459562 
C    -4.7460704    4.0901167    1.3667704 
H     3.3160132   -3.2750813   -0.4312703 
H     2.2165078   -1.5748302   -3.9026520 
H     4.8804533   -3.6708035   -2.2653513 
H     4.5170174   -2.0939482   -3.0093195 
H     3.2424214   -3.7912109   -4.2905981 
H     2.5392290   -4.4403277   -2.7919277 
H    -0.3676679   -2.9377421   -1.2325833 
H     0.9397267   -3.7827675   -0.3256443 
H     2.8919910   -1.3138745    1.3047812 
H     0.3917254   -4.8111144   -3.0332578 
H     5.9426164   -1.2009357   -1.7654498 
H     0.2304361   -0.9097287   -4.8978329 
H     4.0408388    0.5136302    2.5167268 
H    -1.8473794   -5.3433262   -3.9467423 
H     7.0872725    0.6289992   -0.5561894 
H    -2.0195257   -1.4508712   -5.8282067 
H    -1.2402806   -2.0854425    6.0414194 
H    -4.3174336    2.9815862   -1.0351717 
H     6.1382335    1.5269602    1.5780294 
H    -3.0728745   -3.6711146   -5.3467573 
H    -0.8079442    0.4119245   -2.0538769 
H    -1.2598043    2.0671658   -2.5509406 
H    -1.4753310    0.6945757   -3.6809163 
H    -4.4339138   -0.8384231   -1.8730388 
H    -2.7367553   -1.3621656   -1.6881894 
H    -3.6535046    2.6946133   -3.0340763 
H    -4.9818762    1.5400911   -2.6993780 
H    -3.8531100    1.2453185   -4.0469809 
H     0.7146236   -2.8435130    6.1840044 
H     0.7545089   -1.1512779    6.7726919 
H     2.2530939   -1.9552838    6.2347139 
H     1.4619062   -2.1092597    2.5747500 
H     1.0684778   -3.3697731    3.7599244 
H     2.6542958   -2.5415578    3.8383028 
H     1.3350927    0.7579207    5.1411136 
H     1.7479870    0.3953366    3.4427587 
H     2.8178026   -0.1648510    4.7636511 
H    -3.3767868   -0.9852476   -3.3081002 
H    -5.2973073   -1.4343324    3.5007964 
H    -4.9931832    0.0330344    2.5340816 
H    -5.2724209    0.1490149    4.2943637 
H    -2.9887119    1.9301664    4.2560308 
H    -4.6221896    2.5408584    3.8680997 
H    -3.2099946    3.5858191    3.6329153 
H    -3.4180092   -2.4598559    6.6915928 
H    -4.5625560   -2.6928403    5.3426904 
H    -4.5763489   -1.1724418    6.2558420 
H    -5.1224727    4.5555917    0.4416848 
H    -4.1185457    4.8337196    1.8917036 
H    -5.6119021    3.8899556    2.0242719 
