125
Energy =
C     2.9618279    1.3651793   -2.0210805 
C     1.9803641    2.3441175   -1.6721000 
C     1.6219003    2.5601513   -0.3220054 
H     1.3625928    2.7873487   -2.4631304 
Pd    1.3423427    0.3714171   -0.8907371 
P    -0.3540267   -0.4714331    0.3676742 
P     1.8514664   -1.8153413   -1.3850761 
H     3.7871701    1.2001352   -1.3127434 
H     2.3284287    2.2102631    0.4480468 
C     3.6881066   -0.1152784   -6.0005002 
C     4.7034851   -0.1393212   -5.0320784 
C     4.4648140    0.3678240   -3.7474555 
C     3.2054777    0.9089280   -3.4055258 
C     2.1949785    0.9379421   -4.3958504 
C     2.4342839    0.4310939   -5.6777781 
H     3.8713140   -0.5170636   -7.0020845 
H     5.6873756   -0.5519028   -5.2791390 
H     5.2582385    0.3517330   -2.9937046 
H     1.2029951    1.3338121   -4.1512920 
H     1.6349235    0.4489058   -6.4254932 
C    -1.2740041    5.3772822    1.1369348 
C    -0.7977623    4.3483649    1.9650862 
C     0.1307511    3.4254817    1.4767781 
C     0.6001154    3.5135554    0.1459423 
C     0.1090404    4.5501963   -0.6797488 
C    -0.8219967    5.4720634   -0.1870872 
H    -1.9949866    6.1045584    1.5229809 
H    -1.1519794    4.2654986    2.9970861 
H     0.4885485    2.6154558    2.1211068 
H     0.4840468    4.6634226   -1.7021119 
H    -1.1816723    6.2784499   -0.8344839 
O    -0.3944659   -2.1116304    0.2339396 
O    -1.9545507   -0.2624044    0.0516184 
O    -0.2038417   -0.1399432    1.9708373 
C     1.9872933   -2.5288497   -3.1173965 
C     3.5474597   -2.4430496   -0.8068434 
C     4.1566609   -3.0848723   -2.0799008 
C     3.0175574   -3.6629616   -2.9354525 
C     4.3513186   -1.3482358   -0.1178197 
C     0.6332518   -2.8386907   -3.7191523 
C     0.5415725   -2.8792219   -0.5274037 
C    -0.2895181   -1.7864272   -3.9044767 
C     3.7954912   -0.6733240    0.9915169 
C     0.2455383   -4.1451843   -4.0712474 
C     5.6241519   -0.9497453   -0.5642548 
C    -3.0739089    1.6772457   -1.8881688 
C     0.8311797   -1.9029887    4.1227222 
C    -2.8204666    0.9323975    1.9454634 
C    -2.4617002   -0.2363095    2.8147159 
C    -0.6614334   -1.5672023    3.9000148 
C    -3.1212138    1.8425537   -0.3516786 
C    -2.6234812    0.8793340    0.5495398 
C    -1.1246119   -0.6750171    2.9127426 
C     4.4672304    0.3896751    1.6073858 
C    -1.5657588   -2.0336569   -4.4219553 
C     6.3010084    0.1183569    0.0499578 
C    -1.0334804   -4.3919625   -4.5967533 
C    -3.4477197   -0.8778026    3.6092885 
C    -3.4167458    2.0908872    2.5084071 
C    -1.6674535   -2.1195857    4.7157619 
C    -3.7581834    2.9431504    0.2507433 
C     5.7212894    0.8011277    1.1276689 
C    -1.9431258   -3.3405185   -4.7699370 
C    -3.8910804    3.1005757    1.6388407 
C    -3.0341389   -1.8386193    4.5627934 
C    -3.7990210    0.3629403   -2.2805765 
C    -3.7909507    2.8453071   -2.6029863 
C    -1.6160863    1.6576439   -2.4072959 
C     1.0413886   -2.7317277    5.4105655 
C     1.3724101   -2.7400350    2.9393509 
C     1.6545786   -0.5958563    4.2749794 
C    -4.9217794   -0.5818833    3.4475458 
C    -3.5395748    2.2859862    4.0028813 
C    -4.0494345   -2.5436766    5.4339502 
C    -4.5557348    4.3401727    2.1928923 
H     3.3218462   -3.2371971   -0.0691801 
H     2.4618624   -1.7118835   -3.6955754 
H     4.9049748   -3.8494603   -1.8107301 
H     4.6698795   -2.3076096   -2.6722472 
H     3.3851298   -4.0181450   -3.9139323 
H     2.5544802   -4.5282799   -2.4239452 
H    -0.0206142   -3.4248795   -1.3047341 
H     1.0294734   -3.5979023    0.1524936 
H     2.8255553   -0.9881254    1.3886864 
H     0.0005598   -0.7653110   -3.6331141 
H     6.1050453   -1.4697287   -1.3976219 
H     0.9413684   -4.9808539   -3.9483081 
H     4.0096748    0.8920849    2.4662072 
H    -2.2680779   -1.2048332   -4.5514236 
H     7.2891416    0.4128779   -0.3185249 
H    -1.3158517   -5.4134315   -4.8720094 
H    -1.3831579   -2.8259674    5.4991388 
H    -4.1646511    3.7322837   -0.3852911 
H     6.2488231    1.6351747    1.6012533 
H    -2.9410322   -3.5364050   -5.1750787 
H    -4.8356562    0.3669404   -1.9019558 
H    -3.2849732   -0.5241092   -1.8791907 
H    -3.8412789    0.2744341   -3.3813360 
H    -3.3099933    3.8158630   -2.3883047 
H    -4.8555713    2.9100778   -2.3199995 
H    -1.0357437    0.8189287   -1.9881745 
H    -1.1032087    2.5964966   -2.1409818 
H    -1.6072927    1.5539122   -3.5079005 
H     0.5513533   -3.7190532    5.3544473 
H     0.6645337   -2.2032928    6.3031660 
H     2.1215850   -2.9063959    5.5547283 
H     1.3120062   -2.1729168    2.0001671 
H     0.7858769   -3.6664043    2.8142959 
H     2.4292212   -3.0111078    3.1128945 
H     1.2965061   -0.0144102    5.1421571 
H     1.5824511    0.0422427    3.3806500 
H     2.7187445   -0.8410054    4.4428693 
H    -3.7461960    2.6841081   -3.6940088 
H    -5.4788996   -1.5190883    3.2693797 
H    -5.1203820    0.0969791    2.6053766 
H    -5.3479825   -0.1313951    4.3626879 
H    -3.0189257    1.5012510    4.5706099 
H    -4.5971190    2.2982383    4.3244241 
H    -3.1131436    3.2618386    4.2984725 
H    -3.5590157   -3.2244759    6.1480692 
H    -4.7545809   -3.1402468    4.8258458 
H    -4.6589006   -1.8243580    6.0110968 
H    -4.8639006    5.0233091    1.3853430 
H    -3.8793495    4.8958676    2.8686448 
H    -5.4526736    4.0865527    2.7872092 
