125
Energy =
C     2.9352806    1.8883874   -1.8210800 
C     1.7916401    2.6839816   -1.5253534 
C     1.3418666    2.8157316   -0.1844852 
H     1.1563993    3.0438193   -2.3436793 
Pd    1.3899672    0.6492155   -0.7873561 
P    -0.3809138   -0.2224433    0.3374672 
P     1.6218377   -1.5010970   -1.6160643 
H     3.6908266    1.7873639   -1.0262760 
H     2.0974766    2.6962024    0.6055582 
C     4.3317772    0.7728611   -5.7406849 
C     5.1808505    0.6901150   -4.6270375 
C     4.7218044    1.0791900   -3.3617911 
C     3.4003745    1.5488990   -3.1787725 
C     2.5612172    1.6385054   -4.3149505 
C     3.0229356    1.2580571   -5.5794807 
H     4.6877677    0.4688911   -6.7300438 
H     6.2079283    0.3296040   -4.7443754 
H     5.3997612    1.0335575   -2.5026217 
H     1.5312801    1.9949501   -4.2065356 
H     2.3555535    1.3301742   -6.4443333 
C    -2.2868916    4.6837227    1.1521608 
C    -1.2327430    4.4424705    2.0447533 
C    -0.0572879    3.8314996    1.5962732 
C     0.0922298    3.4674179    0.2400939 
C    -0.9775904    3.7159059   -0.6498819 
C    -2.1553518    4.3148403   -0.1972588 
H    -3.2102454    5.1545153    1.5048339 
H    -1.3250107    4.7278980    3.0963936 
H     0.7518509    3.6256338    2.3051141 
H    -0.8998299    3.4142497   -1.6993361 
H    -2.9783986    4.4924578   -0.8971939 
O    -0.7278796   -1.7287484   -0.2459721 
O    -1.7276149    0.6883708    0.1994354 
O    -0.3699483   -0.6742860    1.9177291 
C     2.2372573   -1.9628389   -3.3476529 
C     2.6148857   -2.7854775   -0.6726468 
C     2.9827714   -3.8144664   -1.7837522 
C     3.3151024   -3.0483148   -3.0791309 
C     3.7989527   -2.2094330    0.0810615 
C     1.0483448   -2.3289924   -4.2216991 
C    -0.1315463   -2.1767685   -1.4744448 
C     0.6407348   -3.6601161   -4.4345791 
C     4.5892250   -1.1711915   -0.4491090 
C     0.2652519   -1.2907864   -4.7716938 
C     4.1451493   -2.7424180    1.3374638 
C    -3.9298539   -0.1985739   -1.7188336 
C     1.7804105    0.0637406    3.8052417 
C    -3.0519501    0.1361645    2.1220874 
C    -1.9870298    0.7616793    2.9754306 
C     0.3619948    0.6813218    3.8051736 
C    -3.9513002   -0.2480641   -0.1695631 
C    -2.9472511    0.1815481    0.7123761 
C    -0.6559293    0.2918496    2.9106737 
C     5.6934099   -0.6743555    0.2570676 
C    -0.5207356   -3.9438343   -5.1700662 
C     5.2518021   -2.2512226    2.0445436 
C    -0.8968280   -1.5728646   -5.5004707 
C    -2.3015421    1.7914523    3.8988479 
C    -4.1788455   -0.4957053    2.7024800 
C    -0.0179099    1.6582438    4.7455799 
C    -5.0817902   -0.8107599    0.4619882 
C     6.0288502   -1.2136952    1.5080365 
C    -1.2973292   -2.9036165   -5.6991818 
C    -5.2072187   -0.9690846    1.8474861 
C    -1.2980188    2.2327912    4.7949958 
C    -2.7578829    0.5910235   -2.3500848 
C    -3.8779686   -1.6562795   -2.2481088 
C    -5.2324661    0.4869637   -2.2136907 
C     2.6107970    0.5550021    5.0138475 
C     1.6950414   -1.4825098    3.9040362 
C     2.5519591    0.4766061    2.5281725 
C    -3.6679236    2.4360510    3.9412238 
C    -4.3007660   -0.7136354    4.1935577 
C    -1.6024926    3.2977005    5.8251399 
C    -6.4350644   -1.6399563    2.4217970 
H     1.9246329   -3.2404468    0.0590999 
H     2.7044321   -1.0486814   -3.7517753 
H     2.1181632   -4.4837668   -1.9470923 
H     3.8256311   -4.4459964   -1.4549784 
H     4.2931353   -2.5496346   -2.9680185 
H     3.4029421   -3.7279606   -3.9439355 
H    -0.7213133   -1.8441699   -2.3444405 
H    -0.1320437   -3.2778217   -1.4425980 
H     4.3350200   -0.7389900   -1.4232386 
H     1.2285079   -4.4908216   -4.0312815 
H     3.5369411   -3.5444556    1.7704050 
H     0.5728163   -0.2514687   -4.6151005 
H     6.2962510    0.1345798   -0.1703721 
H    -0.8179280   -4.9856794   -5.3286769 
H     5.5029682   -2.6763918    3.0218260 
H    -1.4903502   -0.7517906   -5.9162341 
H     0.7167132    2.0027238    5.4772160 
H    -5.9027071   -1.1747270   -0.1646103 
H     6.8902723   -0.8269465    2.0618790 
H    -2.2049591   -3.1280047   -6.2685594 
H    -1.7819325    0.1056781   -2.1941733 
H    -2.6930331    1.6157876   -1.9520833 
H    -2.9247650    0.6480994   -3.4404462 
H    -4.7724311   -2.2284410   -1.9485299 
H    -2.9958214   -2.1829351   -1.8469178 
H    -5.2890252    1.5271245   -1.8479550 
H    -6.1399679   -0.0417034   -1.8793665 
H    -5.2482741    0.5067376   -3.3178101 
H     2.1338977    0.2899771    5.9732384 
H     2.7725406    1.6469281    4.9925324 
H     3.6035776    0.0738004    4.9873594 
H     1.1973931   -1.9253781    3.0285490 
H     1.1359870   -1.7799557    4.8081027 
H     2.7131266   -1.9038498    3.9745274 
H     2.6611450    1.5745832    2.4831443 
H     2.0403525    0.1431684    1.6062892 
H     3.5599608    0.0286324    2.5206457 
H    -3.8198273   -1.6644819   -3.3515888 
H    -4.3058188    2.1086847    3.1075163 
H    -3.5738808    3.5350689    3.8865706 
H    -4.1926899    2.2111735    4.8877041 
H    -3.3869172   -0.4247381    4.7327578 
H    -4.5004018   -1.7788748    4.4072925 
H    -5.1471649   -0.1429168    4.6178595 
H    -0.7211233    3.5137661    6.4499489 
H    -2.4265711    2.9873049    6.4933781 
H    -1.9240727    4.2452699    5.3536104 
H    -7.1510609   -1.9085178    1.6286006 
H    -6.9550663   -0.9838749    3.1435442 
H    -6.1704780   -2.5647574    2.9673361 
