125
Energy =
C     2.8472747    1.6511773   -1.9527187 
C     1.9014156    2.5616387   -1.3826050 
C     1.6901949    2.5649869    0.0180986 
H     1.2137799    3.1087960   -2.0390524 
Pd    1.3344153    0.5034899   -0.8329019 
P    -0.2553221   -0.4750288    0.4511752 
P     1.7412267   -1.6378561   -1.5887301 
H     3.7307747    1.3986980   -1.3468386 
H     2.5042306    2.1486725    0.6324782 
C     3.2337967    0.7020359   -6.1373162 
C     4.3200406    0.5438793   -5.2636249 
C     4.1903418    0.8784250   -3.9087171 
C     2.9706247    1.3779232   -3.3994797 
C     1.8843755    1.5368962   -4.2932048 
C     2.0167025    1.2046638   -5.6458556 
H     3.3327733    0.4370365   -7.1947217 
H     5.2745073    0.1607299   -5.6395371 
H     5.0391195    0.7548772   -3.2285690 
H     0.9189426    1.8939544   -3.9200627 
H     1.1634501    1.3287488   -6.3208736 
C    -1.0745662    4.8928657    2.3317714 
C    -0.1265102    4.0701588    2.9573934 
C     0.7536094    3.3079127    2.1833751 
C     0.7028581    3.3528677    0.7706712 
C    -0.2780700    4.1631334    0.1548389 
C    -1.1551579    4.9264753    0.9298923 
H    -1.7503227    5.5082608    2.9345649 
H    -0.0680957    4.0287213    4.0497951 
H     1.4958760    2.6680240    2.6726515 
H    -0.3516588    4.2086900   -0.9361370 
H    -1.9050794    5.5551567    0.4397172 
O    -0.0821976   -2.1209493    0.3400759 
O    -1.8640255   -0.4429350    0.0917279 
O    -0.1536077   -0.1366483    2.0362995 
C     2.0975909   -2.1319168   -3.3704375 
C     3.2405216   -2.4677809   -0.8035792 
C     3.6908748   -3.4721096   -1.8932515 
C     3.4632264   -2.8711758   -3.2988976 
C     4.2222174   -1.4055985   -0.3304392 
C     0.8941547   -2.8584541   -3.9416798 
C     0.2883956   -2.6565007   -0.9424069 
C     0.7578311   -4.2594717   -3.8929466 
C     5.3859389   -1.0546137   -1.0360857 
C    -0.1694499   -2.0920117   -4.4644958 
C     3.9165595   -0.6974692    0.8540697 
C    -3.0747788    1.1869604   -2.0651669 
C     0.8501057   -1.6841354    4.3292097 
C    -2.8109993    0.9031880    1.8334412 
C    -2.4364747   -0.1584677    2.8301249 
C    -0.6430451   -1.3711322    4.0685318 
C    -3.1678265    1.5147488   -0.5565819 
C    -2.6143598    0.6990296    0.4503330 
C    -1.1009088   -0.5842766    2.9941946 
C     6.2087385   -0.0069921   -0.5861859 
C    -0.4143515   -4.8780181   -4.3541982 
C     4.7356976    0.3443514    1.3051204 
C    -1.3421467   -2.7094194   -4.9181344 
C    -3.4280087   -0.7241618    3.6767770 
C    -3.4547434    2.0956735    2.2562789 
C    -1.6559876   -1.8393795    4.9265747 
C    -3.8670230    2.6417428   -0.0855526 
C     5.8828347    0.7029784    0.5775733 
C    -1.4696752   -4.1062591   -4.8615606 
C    -3.9902723    2.9643751    1.2750408 
C    -3.0210813   -1.5778337    4.7303052 
C    -3.5948392   -0.2495068   -2.3374298 
C    -3.9352103    2.1577785   -2.9066507 
C    -1.6150574    1.3236160   -2.5615467 
C     1.0487418   -2.3639319    5.7037054 
C     1.3952471   -2.6507895    3.2482909 
C     1.6832992   -0.3733932    4.3431453 
C    -4.9036516   -0.4649514    3.4692810 
C    -3.5762360    2.4658912    3.7163988 
C    -4.0436782   -2.1926095    5.6598507 
C    -4.7228192    4.2223627    1.6827744 
H     2.8608579   -2.9998906    0.0867592 
H     2.2197391   -1.1788816   -3.9116582 
H     3.0872646   -4.3905893   -1.7812918 
H     4.7438832   -3.7687066   -1.7436688 
H     4.2502116   -2.1326276   -3.5254708 
H     3.5205004   -3.6478243   -4.0803384 
H    -0.5522392   -2.6099890   -1.6573050 
H     0.5705685   -3.7083383   -0.7797944 
H     5.6662850   -1.5956047   -1.9447461 
H     1.5690118   -4.8808795   -3.4981606 
H     3.0315485   -0.9756585    1.4367194 
H    -0.0692087   -1.0014099   -4.5124817 
H     7.1116173    0.2501723   -1.1499885 
H    -0.5015284   -5.9688708   -4.3161383 
H     4.4820105    0.8692129    2.2326075 
H    -2.1567299   -2.0991753   -5.3222131 
H    -1.3793655   -2.4613880    5.7809813 
H    -4.3295263    3.3191518   -0.8071852 
H     6.5262584    1.5175290    0.9249892 
H    -2.3841855   -4.5911893   -5.2176137 
H    -4.6435577   -0.3484722   -2.0081850 
H    -2.9964783   -1.0115891   -1.8162605 
H    -3.5555552   -0.4605359   -3.4213629 
H    -3.5867673    3.2020692   -2.8226903 
H    -4.9987833    2.1192197   -2.6150092 
H    -0.9308098    0.6207669   -2.0531587 
H    -1.2400525    2.3466142   -2.3853431 
H    -1.5608546    1.1170883   -3.6457009 
H     0.5514128   -3.3476501    5.7563884 
H     0.6733117   -1.7357581    6.5301848 
H     2.1267679   -2.5308034    5.8711656 
H     1.3117441   -2.2243658    2.2391190 
H     0.8314480   -3.5994842    3.2545038 
H     2.4584988   -2.8772192    3.4470751 
H     1.3060654    0.3176682    5.1172222 
H     1.6518767    0.1464182    3.3736055 
H     2.7375143   -0.6066632    4.5780065 
H    -3.8695009    1.8712734   -3.9705174 
H    -5.1026434    0.1106233    2.5537185 
H    -5.3438489    0.0820471    4.3232444 
H    -5.4487474   -1.4229357    3.3952103 
H    -3.0234402    1.7737595    4.3680321 
H    -4.6313306    2.4821295    4.0452717 
H    -3.1770690    3.4822132    3.8813879 
H    -3.5578061   -2.7886740    6.4487820 
H    -4.7371226   -2.8571900    5.1115919 
H    -4.6651168   -1.4202250    6.1488768 
H    -5.0885122    4.7755197    0.8027687 
H    -4.0709484    4.8998631    2.2640549 
H    -5.5917352    3.9934357    2.3266410 
