125
Energy =
C     2.9078158    1.5596969   -1.9962597 
C     1.9622908    2.4705357   -1.4329505 
C     1.7643664    2.4943073   -0.0285340 
H     1.2637774    3.0024679   -2.0900358 
Pd    1.4088417    0.4249146   -0.8379830 
P    -0.1151405   -0.5195988    0.5509297 
P     1.7961797   -1.7354093   -1.5887298 
H     3.7848902    1.3050380   -1.3817585 
H     2.5951496    2.1171936    0.5884439 
C     3.3609551    0.6163385   -6.1764096 
C     4.4130286    0.4011417   -5.2735017 
C     4.2582819    0.7325438   -3.9207501 
C     3.0467103    1.2785781   -3.4400988 
C     1.9949778    1.4910492   -4.3617134 
C     2.1546907    1.1696066   -5.7143810 
H     3.4794056    0.3596857   -7.2338685 
H     5.3614381   -0.0180552   -5.6255927 
H     5.0847672    0.5763349   -3.2199768 
H     1.0356771    1.8885558   -4.0146914 
H     1.3304157    1.3442136   -6.4138932 
C    -1.0536249    4.8203753    2.2243831 
C    -0.0573297    4.0744416    2.8710049 
C     0.8422153    3.3125697    2.1186861 
C     0.7618847    3.2804064    0.7073812 
C    -0.2671744    4.0120123    0.0720596 
C    -1.1619864    4.7767893    0.8246105 
H    -1.7454183    5.4356878    2.8089041 
H     0.0236733    4.0928170    3.9626055 
H     1.6225652    2.7338650    2.6242214 
H    -0.3684751    3.9915383   -1.0173824 
H    -1.9490764    5.3437091    0.3180336 
O     0.1594772   -2.1536840    0.5666080 
O    -1.7150015   -0.5814983    0.1518560 
O    -0.0670853   -0.0952325    2.1196021 
C     1.8592655   -2.3595421   -3.3646230 
C     3.5051875   -2.4119283   -1.1098979 
C     4.0968900   -2.9001364   -2.4539991 
C     2.9520109   -3.4545737   -3.3145745 
C     4.2989268   -1.3879153   -0.3133852 
C     0.5120077   -2.7083322   -3.9589167 
C     0.5180282   -2.7854017   -0.6713834 
C    -0.1707675   -1.7483052   -4.7315638 
C     3.7795201   -0.9256711    0.9161865 
C    -0.0980837   -3.9627342   -3.7503560 
C     5.5089487   -0.8383116   -0.7728310 
C    -2.9515995    0.8826593   -2.1273357 
C     0.8968279   -1.4757736    4.5568068 
C    -2.7476375    0.8368595    1.7824798 
C    -2.3730410   -0.1563312    2.8446806 
C    -0.5904916   -1.2282420    4.2134801 
C    -3.0754529    1.2926970   -0.6425710 
C    -2.5141501    0.5556613    0.4194856 
C    -1.0301503   -0.5231189    3.0754399 
C     4.4268535    0.0819241    1.6421570 
C    -1.4282031   -2.0303559   -5.2809477 
C     6.1587092    0.1764193   -0.0487527 
C    -1.3587396   -4.2441098   -4.2960596 
C    -3.3781024   -0.7066638    3.6849064 
C    -3.4321435    2.0315755    2.1250729 
C    -1.6203340   -1.6829716    5.0588027 
C    -3.8113949    2.4270327   -0.2503179 
C     5.6145257    0.6497366    1.1528635 
C    -2.0290007   -3.2786370   -5.0617614 
C    -3.9674643    2.8287412    1.0854376 
C    -2.9849588   -1.4849284    4.7993500 
C    -3.3821276   -0.5954514   -2.3183066 
C    -3.8636187    1.7464231   -3.0295898 
C    -1.4988381    1.0853334   -2.6191816 
C     1.0609883   -2.0298111    5.9911553 
C     1.4992461   -2.5159767    3.5812617 
C     1.6933332   -0.1452211    4.4900078 
C    -4.8520219   -0.5071488    3.4098660 
C    -3.5997125    2.4746851    3.5600458 
C    -4.0206348   -2.0821586    5.7256338 
C    -4.7347568    4.0914590    1.4054618 
H     3.2981273   -3.2864080   -0.4640182 
H     2.2708882   -1.4876935   -3.9082912 
H     4.8903639   -3.6473355   -2.2812891 
H     4.5520197   -2.0487101   -2.9897715 
H     3.2870068   -3.7013068   -4.3367286 
H     2.5531231   -4.3836711   -2.8678734 
H    -0.3681883   -2.9010373   -1.3216399 
H     0.9166795   -3.7795003   -0.4144200 
H     2.8615072   -1.3692010    1.3166422 
H     0.3009642   -0.7761113   -4.9073978 
H     5.9611676   -1.1978685   -1.7014893 
H     0.4131409   -4.7354432   -3.1654772 
H     4.0027382    0.4185162    2.5931451 
H    -1.9386106   -1.2736139   -5.8861299 
H     7.0977656    0.5927931   -0.4278716 
H    -1.8153074   -5.2249156   -4.1275583 
H    -1.3544932   -2.2437973    5.9577876 
H    -4.2783508    3.0464317   -1.0196699 
H     6.1211678    1.4413565    1.7141202 
H    -3.0116032   -3.5012151   -5.4899158 
H    -4.4214168   -0.7398167   -1.9757651 
H    -2.7359946   -1.2904065   -1.7621287 
H    -3.3304824   -0.8645330   -3.3873304 
H    -3.5762669    2.8123372   -3.0162637 
H    -4.9241959    1.6662440   -2.7351258 
H    -0.7774145    0.4560270   -2.0656804 
H    -1.1936094    2.1390958   -2.4957026 
H    -1.4161032    0.8213046   -3.6876124 
H     0.5913140   -3.0210879    6.1111615 
H     0.6362074   -1.3459464    6.7465048 
H     2.1362159   -2.1482603    6.2100108 
H     1.4011146   -2.1951668    2.5352026 
H     0.9787076   -3.4840673    3.6792281 
H     2.5700402   -2.6724152    3.8045576 
H     1.2588404    0.6016523    5.1774323 
H     1.6956878    0.2820342    3.4764137 
H     2.7393244   -0.3238755    4.7979777 
H    -3.7774883    1.3940614   -4.0720716 
H    -5.3655340   -1.4846227    3.3747464 
H    -5.0338801    0.0066914    2.4548451 
H    -5.3394694    0.0753419    4.2132090 
H    -3.0409929    1.8364546    4.2598356 
H    -4.6625444    2.4730723    3.8636955 
H    -3.2374792    3.5107940    3.6798875 
H    -3.5452180   -2.6158816    6.5640051 
H    -4.6710431   -2.8000188    5.1920067 
H    -4.6849316   -1.3057500    6.1473824 
H    -5.0930029    4.5856726    0.4881112 
H    -4.1092534    4.8147154    1.9603615 
H    -5.6122442    3.8806899    2.0439064 
