125
Energy =
C     3.1329388    1.5923386   -1.5968782 
C     2.0184840    2.4562700   -1.4179771 
C     1.4910711    2.6777790   -0.1144040 
H     1.4445114    2.7877716   -2.2915772 
Pd    1.4801101    0.4861932   -0.5878502 
P    -0.3158646   -0.2762057    0.5777591 
P     1.6600150   -1.6731748   -1.4177179 
H     3.8077728    1.4558928   -0.7367792 
H     2.1974219    2.6027826    0.7248369 
C     4.7396026    0.0779798   -5.2873843 
C     5.3404653   -0.2286647   -4.0560455 
C     4.8200999    0.2983648   -2.8686261 
C     3.6810889    1.1364220   -2.8861910 
C     3.0934791    1.4497846   -4.1339127 
C     3.6195428    0.9255631   -5.3208363 
H     5.1447932   -0.3330752   -6.2174839 
H     6.2196610   -0.8802025   -4.0174537 
H     5.2875384    0.0493699   -1.9104973 
H     2.2188558    2.1065937   -4.1829676 
H     3.1518785    1.1771707   -6.2781362 
C    -2.1996943    4.6471999    0.8702910 
C    -1.2067220    4.4577004    1.8423521 
C    -0.0072785    3.8207761    1.5072838 
C     0.2273644    3.3726633    0.1885737 
C    -0.7815997    3.5701558   -0.7815991 
C    -1.9823576    4.1989386   -0.4432232 
H    -3.1414439    5.1397752    1.1333044 
H    -1.3653821    4.8041274    2.8673285 
H     0.7538464    3.6602486    2.2779785 
H    -0.6400671    3.2028722   -1.8031555 
H    -2.7570001    4.3360132   -1.2048540 
O    -0.6031865   -1.8468413    0.1581975 
O    -1.6604864    0.5944903    0.2546251 
O    -0.3971760   -0.5483926    2.1985412 
C     2.0057497   -2.0427023   -3.2435951 
C     2.8714048   -2.9530196   -0.7459326 
C     2.8716580   -4.0048398   -1.8769598 
C     2.9640650   -3.2702969   -3.2303168 
C     4.2142262   -2.3130000   -0.4045977 
C     0.7295420   -2.1610629   -4.0554691 
C    -0.0421030   -2.4011007   -1.0416968 
C     0.1769581   -1.0055561   -4.6429020 
C     5.4226240   -2.6904511   -1.0197333 
C     0.0574331   -3.3893398   -4.2240204 
C     4.2594896   -1.3132594    0.5897250 
C    -3.7473879   -0.3670214   -1.7637935 
C     1.5109699    0.4075972    4.2463064 
C    -3.1304089    0.1602639    2.0996415 
C    -2.1643975    0.8912674    2.9838646 
C     0.0805761    0.9594408    4.0531524 
C    -3.8540534   -0.3746979   -0.2192074 
C    -2.9157280    0.1135136    0.7036614 
C    -0.8198302    0.4705175    3.0835447 
C     6.6333075   -2.0708072   -0.6688353 
C    -1.0048252   -1.0761163   -5.3929641 
C     5.4628160   -0.6884700    0.9382071 
C    -1.1283444   -3.4596781   -4.9686966 
C    -2.6010520    1.9816122    3.7794561 
C    -4.2850945   -0.4586639    2.6374064 
C    -0.4230927    1.9891764    4.8703177 
C    -5.0157620   -0.9270827    0.3631675 
C     6.6585203   -1.0607738    0.3020801 
C    -1.6621036   -2.3038488   -5.5583734 
C    -5.2360381   -1.0134320    1.7429850 
C    -1.7123288    2.5270752    4.7362190 
C    -5.0080183    0.3360397   -2.3383233 
C    -2.5280531    0.3863671   -2.3441779 
C    -3.7040091   -1.8339843   -2.2642087 
C     2.1823348    0.9934357    5.5100108 
C     1.4885882   -1.1352288    4.4105296 
C     2.3869232    0.8034234    3.0346098 
C    -3.9777969    2.5849236    3.6207241 
C    -4.5176776   -0.5717507    4.1269363 
C    -2.1490811    3.6651625    5.6315354 
C    -6.4868704   -1.6817294    2.2682930 
H     2.4239691   -3.3567309    0.1812538 
H     2.5524240   -1.1523654   -3.5946654 
H     1.9303451   -4.5825938   -1.8256481 
H     3.6881177   -4.7362982   -1.7446994 
H     3.9889650   -2.8955233   -3.3837331 
H     2.7390984   -3.9458199   -4.0720226 
H    -0.6980328   -2.2006003   -1.9049229 
H     0.0141969   -3.4897426   -0.8816841 
H     5.4388543   -3.4790699   -1.7770396 
H     0.6930093   -0.0467896   -4.5209427 
H     3.3359428   -1.0272599    1.1049709 
H     0.4610351   -4.3048061   -3.7772577 
H     7.5603954   -2.3826521   -1.1608853 
H    -1.4099820   -0.1698751   -5.8551330 
H     5.4693177    0.0844434    1.7141120 
H    -1.6337319   -4.4229439   -5.0931356 
H     0.2197964    2.4101001    5.6468688 
H    -5.7855728   -1.3376482   -0.2988486 
H     7.6021980   -0.5753159    0.5703160 
H    -2.5832933   -2.3617672   -6.1470273 
H    -5.0568155    1.3858047   -1.9998733 
H    -5.9426937   -0.1634934   -2.0350173 
H    -4.9693486    0.3292672   -3.4421692 
H    -1.5705191   -0.1134617   -2.1282591 
H    -2.4660999    1.4174273   -1.9631395 
H    -4.6230322   -2.3829886   -1.9979131 
H    -2.8527454   -2.3738497   -1.8160808 
H    -3.5911224   -1.8627738   -3.3621259 
H     1.6082431    0.7583504    6.4226695 
H     2.3082157    2.0883697    5.4475115 
H     3.1873677    0.5515480    5.6229908 
H     1.0913823   -1.6419352    3.5188858 
H     0.8642590   -1.4198657    5.2750143 
H     2.5139957   -1.5033733    4.5944024 
H     2.4710883    1.9014785    2.9580528 
H     1.9651026    0.4265649    2.0865377 
H     3.4045996    0.3896373    3.1474988 
H    -2.6321396    0.4220864   -3.4420025 
H    -4.5959925    2.4301886    4.5239557 
H    -4.5171291    2.1664814    2.7586863 
H    -3.8987544    3.6772035    3.4755086 
H    -3.6553638   -0.2191679    4.7112551 
H    -4.7103269   -1.6237453    4.4035127 
H    -5.4070445    0.0047046    4.4418619 
H    -1.3497601    3.9511354    6.3337431 
H    -3.0423478    3.3933319    6.2231231 
H    -2.4240917    4.5631791    5.0467065 
H    -7.1349086   -2.0203661    1.4440632 
H    -7.0752604   -0.9969167    2.9060145 
H    -6.2412227   -2.5621461    2.8906193 
