125
Energy =
C     2.7816717    1.4824213   -2.1872597 
C     1.7456878    2.4032766   -1.8382087 
C     1.4210937    2.6497997   -0.4847615 
H     1.0697775    2.7685272   -2.6213981 
Pd    1.2795908    0.4246097   -0.9568821 
P    -0.3060612   -0.4836242    0.3972772 
P     1.9275835   -1.7396248   -1.3849256 
H     3.6419975    1.4047516   -1.5060863 
H     2.1781895    2.3836292    0.2705196 
C     3.4674501   -0.1010515   -6.1343708 
C     4.5159558   -0.0166947   -5.2054590 
C     4.2882194    0.5232281   -3.9322506 
C     3.0069489    0.9889205   -3.5620773 
C     1.9621579    0.9088204   -4.5132363 
C     2.1906235    0.3697147   -5.7839521 
H     3.6425305   -0.5284948   -7.1267363 
H     5.5171231   -0.3693719   -5.4748967 
H     5.1074872    0.5924033   -3.2098002 
H     0.9541275    1.2448865   -4.2457342 
H     1.3659221    0.3035918   -6.5008147 
C    -1.6094577    5.3211899    0.9746395 
C    -1.0208058    4.3738839    1.8274144 
C    -0.0490067    3.4964719    1.3393847 
C     0.3520082    3.5490100   -0.0155120 
C    -0.2523790    4.5029698   -0.8653978 
C    -1.2264162    5.3792136   -0.3730447 
H    -2.3641737    6.0138962    1.3597475 
H    -1.3205462    4.3196400    2.8784554 
H     0.3978397    2.7494656    2.0040334 
H     0.0660767    4.5901343   -1.9092262 
H    -1.6746268    6.1224888   -1.0404397 
O    -0.2395737   -2.1267700    0.3196855 
O    -1.9278301   -0.3988599    0.1375681 
O    -0.1203857   -0.0793970    1.9800912 
C     2.0480911   -2.5137040   -3.0923400 
C     3.6850763   -2.2215511   -0.8526397 
C     4.2907722   -2.8694403   -2.1241314 
C     3.1647970   -3.5626009   -2.9089994 
C     4.4312762   -1.0449771   -0.2377003 
C     0.6974354   -2.9446269   -3.6229580 
C     0.7340025   -2.8569194   -0.4310578 
C    -0.3023103   -1.9677579   -3.8212729 
C     3.8702207   -0.3707375    0.8694713 
C     0.3877644   -4.2907838   -3.8936063 
C     5.6514197   -0.5706023   -0.7518538 
C    -3.2507568    1.3736824   -1.8337958 
C     1.1086222   -1.6736624    4.1604612 
C    -2.8036754    0.8157277    2.0138611 
C    -2.3347671   -0.2880529    2.9148008 
C    -0.4104400   -1.4481580    3.9826078 
C    -3.2515423    1.6028754   -0.3047006 
C    -2.6552107    0.7156191    0.6145613 
C    -0.9683948   -0.6328579    2.9779249 
C     4.4828013    0.7629542    1.4172039 
C    -1.5770350   -2.3266595   -4.2728655 
C     6.2684877    0.5687081   -0.2063687 
C    -0.8904634   -4.6499517   -4.3518743 
C    -3.2455177   -0.9577610    3.7734297 
C    -3.4565871    1.9550461    2.5525597 
C    -1.3461787   -2.0289313    4.8598243 
C    -3.9401300    2.6832326    0.2773644 
C     5.6815308    1.2481277    0.8695494 
C    -1.8763709   -3.6723049   -4.5393490 
C    -4.0317351    2.8915288    1.6621689 
C    -2.7334046   -1.8457456    4.7493524 
C    -4.0748462    2.4570424   -2.5663320 
C    -1.8158374    1.4317175   -2.4108305 
C    -3.8954032   -0.0034980   -2.1418572 
C     1.6634234   -2.5178704    2.9886851 
C     1.8441501   -0.3085089    4.2323699 
C     1.4215755   -2.4349949    5.4688102 
C    -4.7411518   -0.7674704    3.6574994 
C    -3.5362619    2.2064051    4.0415387 
C    -3.6660580   -2.5762754    5.6892355 
C    -4.7610948    4.1051777    2.1917232 
H     3.5454255   -2.9994676   -0.0774382 
H     2.4384929   -1.6899188   -3.7217503 
H     5.1027610   -3.5668025   -1.8570550 
H     4.7228689   -2.0824571   -2.7663592 
H     3.5193310   -3.9313900   -3.8872273 
H     2.7862551   -4.4365710   -2.3452432 
H     0.1946909   -3.4865817   -1.1595295 
H     1.2997049   -3.4968640    0.2669275 
H     2.9435716   -0.7411684    1.3186308 
H    -0.0733920   -0.9168137   -3.6127484 
H     6.1370737   -1.0858244   -1.5854109 
H     1.1440835   -5.0702791   -3.7593407 
H     4.0229281    1.2631489    2.2761051 
H    -2.3392722   -1.5546675   -4.4147702 
H     7.2155949    0.9218396   -0.6273177 
H    -1.1121935   -5.7011605   -4.5632340 
H    -0.9862402   -2.6795027    5.6602305 
H    -4.4237479    3.4146905   -0.3734686 
H     6.1621128    2.1373923    1.2895991 
H    -2.8729787   -3.9554849   -4.8927947 
H    -3.6559437    3.4669575   -2.4114410 
H    -5.1299471    2.4605880   -2.2432280 
H    -4.0598402    2.2516619   -3.6507092 
H    -1.1617949    0.6550711   -1.9805962 
H    -1.3616668    2.4150754   -2.2060350 
H    -4.9143587   -0.0548342   -1.7210677 
H    -3.3045915   -0.8343850   -1.7262233 
H    -3.9734123   -0.1427392   -3.2353973 
H     1.5294737   -1.9930796    2.0326210 
H     1.1387671   -3.4863849    2.9208743 
H     2.7421960   -2.7093095    3.1304830 
H     1.4781648    0.2807877    5.0909068 
H     1.6950726    0.2872988    3.3185898 
H     2.9283446   -0.4732224    4.3673866 
H     0.9974811   -3.4539019    5.4685115 
H     1.0431227   -1.8976582    6.3554079 
H     2.5156959   -2.5321393    5.5769779 
H    -1.8414396    1.2790959   -3.5054175 
H    -5.2395273   -1.7466322    3.5418348 
H    -5.0159210   -0.1421881    2.7955435 
H    -5.1631308   -0.3050279    4.5685944 
H    -2.9428250    1.4831410    4.6194473 
H    -4.5794124    2.1633193    4.4046501 
H    -3.1659286    3.2201928    4.2793235 
H    -3.1046321   -3.1884060    6.4130820 
H    -4.3495890   -3.2467050    5.1357409 
H    -4.3028261   -1.8736059    6.2573574 
H    -5.6202078    3.8156886    2.8245142 
H    -5.1398888    4.7339646    1.3701813 
H    -4.1035787    4.7307636    2.8234661 
