125
Energy =
C     2.9650867    1.3361432   -2.0364124 
C     1.9858941    2.3205071   -1.6967574 
C     1.6278935    2.5506819   -0.3488153 
H     1.3693511    2.7574869   -2.4921843 
Pd    1.3432887    0.3574126   -0.8960025 
P    -0.3567349   -0.4690103    0.3691474 
P     1.8485553   -1.8358692   -1.3667370 
H     3.7903391    1.1760143   -1.3268344 
H     2.3337455    2.2071415    0.4246729 
C     3.6843911   -0.1859113   -6.0014672 
C     2.4328312    0.3684879   -5.6837189 
C     2.1958472    0.8886371   -4.4066928 
C     3.2064976    0.8653204   -3.4163647 
C     4.4634649    0.3156425   -3.7532990 
C     4.6997745   -0.2049827   -5.0329411 
H     3.8657993   -0.5979211   -6.9992137 
H     1.6334081    0.3823671   -6.4314509 
H     1.2054939    1.2907916   -4.1658010 
H     5.2569302    0.3035578   -2.9995486 
H     5.6818711   -0.6240880   -5.2761096 
C    -1.2593002    5.3903542    1.0834724 
C    -0.7768006    4.3753010    1.9249467 
C     0.1486128    3.4448387    1.4451150 
C     0.6087946    3.5113389    0.1097849 
C     0.1113330    4.5342693   -0.7291600 
C    -0.8167422    5.4635418   -0.2451256 
H    -1.9776164    6.1238114    1.4626754 
H    -1.1235630    4.3093401    2.9607188 
H     0.5115559    2.6456808    2.1000849 
H     0.4789180    4.6312190   -1.7558528 
H    -1.1817468    6.2588074   -0.9032049 
O    -0.4060639   -2.1098468    0.2440958 
O    -1.9567376   -0.2573676    0.0528410 
O    -0.2037338   -0.1240303    1.9692535 
C     1.9792808   -2.5671280   -3.0921133 
C     3.5441605   -2.4613998   -0.7856198 
C     4.1500706   -3.1162556   -2.0535795 
C     3.0082327   -3.7008940   -2.9011469 
C     4.3505820   -1.3615138   -0.1078334 
C     0.6228889   -2.8806360   -3.6865374 
C     0.5396143   -2.8883523   -0.4938317 
C    -0.2956268   -1.8272536   -3.8859815 
C     5.6229189   -0.9681738   -0.5601382 
C     0.2283989   -4.1907418   -4.0170298 
C     3.7972651   -0.6762347    0.9964087 
C    -3.0707511    1.6650221   -1.9061390 
C     0.8255636   -1.8644057    4.1410488 
C    -2.8158136    0.9608599    1.9349340 
C    -2.4613451   -0.1999006    2.8164337 
C    -0.6658582   -1.5252373    3.9160714 
C    -3.1154112    1.8474839   -0.3715082 
C    -2.6205173    0.8920643    0.5395046 
C    -1.1261736   -0.6435552    2.9180546 
C     6.3012600    0.1055521    0.0425077 
C    -1.5741709   -2.0766846   -4.3965979 
C     4.4706877    0.3921462    1.6010076 
C    -1.0532338   -4.4399509   -4.5350081 
C    -3.4492359   -0.8275174    3.6198074 
C    -3.4064307    2.1279083    2.4860777 
C    -1.6731576   -2.0628303    4.7400172 
C    -3.7475171    2.9569379    0.2196995 
C     5.7238051    0.7987829    1.1147411 
C    -1.9584215   -3.3871633   -4.7227620 
C    -3.8781151    3.1298384    1.6061810 
C    -3.0388187   -1.7781301    4.5848123 
C    -3.7815419    2.8294428   -2.6330001 
C    -1.6137438    1.6306886   -2.4267795 
C    -3.8039496    0.3506506   -2.2829413 
C     1.3626927   -2.7140008    2.9649100 
C     1.6535320   -0.5586994    4.2804001 
C     1.0338860   -2.6819591    5.4362582 
C    -4.9222387   -0.5274075    3.4559267 
C    -3.5265574    2.3397638    3.9784784 
C    -4.0561912   -2.4678892    5.4657269 
C    -4.5387379    4.3771385    2.1476275 
H     3.3184072   -3.2484110   -0.0403614 
H     2.4534665   -1.7567315   -3.6797333 
H     4.8976943   -3.8794203   -1.7785244 
H     4.6633562   -2.3455449   -2.6543532 
H     3.3729833   -4.0664468   -3.8768582 
H     2.5451241   -4.5603572   -2.3798863 
H    -0.0156891   -3.4536942   -1.2619493 
H     1.0282376   -3.5896048    0.2035493 
H     6.1020962   -1.4965663   -1.3891927 
H    -0.0000713   -0.8034162   -3.6313869 
H     2.8279024   -0.9868604    1.3982790 
H     0.9210193   -5.0274302   -3.8832917 
H     7.2886784    0.3963671   -0.3307967 
H    -2.2729203   -1.2467298   -4.5377109 
H     4.0152327    0.9026012    2.4562019 
H    -1.3411779   -5.4644007   -4.7928509 
H    -1.3908752   -2.7602076    5.5321439 
H    -4.1519338    3.7406079   -0.4243356 
H     6.2524018    1.6373025    1.5791518 
H    -2.9581335   -3.5848331   -5.1225459 
H    -3.2948212    3.7994155   -2.4289097 
H    -4.8455807    2.9034433   -2.3500917 
H    -3.7385153    2.6563410   -3.7222672 
H    -1.0392092    0.7911356   -2.0016430 
H    -1.0939092    2.5679933   -2.1688533 
H    -4.8402833    0.3651226   -1.9037592 
H    -3.2947055   -0.5346429   -1.8716243 
H    -3.8474407    0.2496194   -3.3825839 
H     1.3023244   -2.1551857    2.0207589 
H     0.7734120   -3.6398904    2.8494368 
H     2.4190112   -2.9864613    3.1391917 
H     1.2978564    0.0321564    5.1421765 
H     1.5829242    0.0710949    3.3800360 
H     2.7169858   -0.8057617    4.4500200 
H     0.5390660   -3.6674128    5.3901662 
H     0.6609831   -2.1433243    6.3244093 
H     2.1134758   -2.8603527    5.5804263 
H    -1.6070963    1.5179334   -3.5265077 
H    -5.4832002   -1.4643145    3.2885868 
H    -5.1188362    0.1428090    2.6064013 
H    -5.3459118   -0.0651059    4.3663482 
H    -3.0085109    1.5590625    4.5540845 
H    -4.5835940    2.3601264    4.3012211 
H    -3.0954810    3.3169348    4.2627412 
H    -3.5679119   -3.1417006    6.1878851 
H    -4.7644297   -3.0690811    4.8658233 
H    -4.6620596   -1.7388021    6.0343333 
H    -4.8418507    5.0545763    1.3333777 
H    -3.8619705    4.9356938    2.8205574 
H    -5.4384394    4.1323209    2.7415077 
