125
Energy =
C     2.8079244    1.5071256   -2.1755256 
C     1.8598524    2.4275559   -1.6324201 
C     1.7079231    2.5271610   -0.2255741 
H     1.1272343    2.9051188   -2.2940916 
Pd    1.3750379    0.4079430   -0.9046579 
P    -0.0818937   -0.4882885    0.5846150 
P     1.7834677   -1.7825252   -1.5494616 
H     3.7106234    1.3075018   -1.5780247 
H     2.5676316    2.2045481    0.3827216 
C     3.1445193    0.3363981   -6.3088360 
C     4.2317352    0.1989142   -5.4327747 
C     4.1141086    0.6036628   -4.0963154 
C     2.9055591    1.1467731   -3.6050268 
C     1.8180488    1.2803099   -4.4994957 
C     1.9403632    0.8857111   -5.8366063 
H     3.2340317    0.0226801   -7.3536816 
H     5.1783770   -0.2167061   -5.7937494 
H     4.9675556    0.5080873   -3.4173127 
H     0.8610049    1.6735078   -4.1417227 
H     1.0884897    0.9993172   -6.5153250 
C    -1.0902769    4.9141512    1.9880544 
C    -0.0560327    4.2280441    2.6412867 
C     0.8365681    3.4448619    1.9027081 
C     0.7114340    3.3313386    0.4988883 
C    -0.3549560    4.0029184   -0.1411713 
C    -1.2427968    4.7892611    0.5973052 
H    -1.7775117    5.5458216    2.5603937 
H     0.0597391    4.3096367    3.7268447 
H     1.6465306    2.9130150    2.4130535 
H    -0.4913497    3.9182490   -1.2236598 
H    -2.0588455    5.3096625    0.0866184 
O     0.2313752   -2.1125647    0.6829358 
O    -1.6913610   -0.6066984    0.2405057 
O     0.0042452    0.0258596    2.1245515 
C     1.7985654   -2.5001895   -3.2909975 
C     3.5232986   -2.3954786   -1.0976836 
C     4.0809693   -2.9368850   -2.4357988 
C     2.9219005   -3.5633166   -3.2252457 
C     4.3177163   -1.3147202   -0.3808250 
C     0.4411123   -2.9155477   -3.8152301 
C     0.5622485   -2.8057944   -0.5296943 
C    -0.1309651   -4.1674842   -3.5074402 
C     3.8264150   -0.8012960    0.8399020 
C    -0.2899283   -2.0224170   -4.6231766 
C     5.4990889   -0.7628387   -0.9071620 
C    -3.0319106    0.7000455   -2.0753691 
C     1.0748516   -1.1922424    4.6038850 
C    -2.7071013    0.8776486    1.8222188 
C    -2.2762853   -0.0458485    2.9250806 
C    -0.4277179   -0.9984909    4.2942593 
C    -3.1190792    1.1902789   -0.6124725 
C    -2.5085346    0.5259698    0.4701711 
C    -0.9185340   -0.3686977    3.1331960 
C     4.4721098    0.2563759    1.4924071 
C    -1.4012324   -4.5115822   -3.9913069 
C     6.1470029    0.3020101   -0.2570963 
C    -1.5571469   -2.3673447   -5.1108939 
C    -3.2419330   -0.5708600    3.8254835 
C    -3.4088434    2.0743182    2.1201454 
C    -1.4203298   -1.4284287    5.1953731 
C    -3.8688986    2.3286984   -0.2601866 
C     5.6299577    0.8243114    0.9362712 
C    -2.1195364   -3.6123676   -4.7933787 
C    -3.9939325    2.8006154    1.0557148 
C    -2.7966374   -1.2766704    4.9681947 
C    -1.6008993    0.9081085   -2.6252619 
C    -3.4311481   -0.7961494   -2.1695103 
C    -3.9933735    1.4899698   -2.9937863 
C     1.2954034   -1.6619652    6.0605573 
C     1.6735285   -2.2708264    3.6686050 
C     1.8356301    0.1507234    4.4393872 
C    -4.7278335   -0.4204437    3.5860188 
C    -3.5431445    2.5926221    3.5332629 
C    -3.7891588   -1.8451678    5.9576409 
C    -4.7808687    4.0620221    1.3300174 
H     3.3596584   -3.2411504   -0.4027275 
H     2.1662115   -1.6488327   -3.8954031 
H     4.8996799   -3.6541971   -2.2544814 
H     4.4943879   -2.1028291   -3.0297864 
H     3.2272917   -3.8535235   -4.2452174 
H     2.5639660   -4.4781176   -2.7182011 
H    -0.3427499   -2.9770869   -1.1405141 
H     0.9928149   -3.7747718   -0.2316843 
H     2.9318525   -1.2435436    1.2915351 
H     0.4177517   -4.8894188   -2.8924397 
H     5.9298975   -1.1595885   -1.8308011 
H     0.1517234   -1.0530832   -4.8763441 
H     4.0701803    0.6319838    2.4384060 
H    -1.8277068   -5.4897426   -3.7460183 
H     7.0633684    0.7192033   -0.6874219 
H    -2.1054152   -1.6623896   -5.7448425 
H    -1.1139046   -1.9316170    6.1153434 
H    -4.3732954    2.8939927   -1.0473880 
H     6.1352522    1.6546457    1.4398497 
H    -3.1095896   -3.8840558   -5.1732988 
H    -0.8450418    0.3397657   -2.0518184 
H    -1.3240015    1.9761318   -2.5849968 
H    -1.5414578    0.5716656   -3.6746872 
H    -4.4525007   -0.9460552   -1.7788060 
H    -2.7466949   -1.4442743   -1.6027634 
H    -3.7332482    2.5615334   -3.0484513 
H    -5.0418704    1.4009513   -2.6610429 
H    -3.9305293    1.0821945   -4.0175740 
H     0.8542021   -2.6556914    6.2491582 
H     0.8764943   -0.9473442    6.7902586 
H     2.3792899   -1.7432007    6.2518681 
H     1.5364769   -2.0107895    2.6101941 
H     1.1801588   -3.2437056    3.8354449 
H     2.7540284   -2.3899605    3.8667634 
H     1.4033204    0.9243802    5.0979337 
H     1.7968837    0.5209323    3.4043183 
H     2.8944215    0.0137433    4.7239992 
H    -3.4133797   -1.1220018   -3.2237359 
H    -5.2183300   -1.4096947    3.6210377 
H    -4.9506166    0.0347568    2.6101209 
H    -5.2049678    0.1950585    4.3706936 
H    -2.9475593    2.0072384    4.2486712 
H    -4.5957894    2.5833923    3.8705093 
H    -3.2031771    3.6418725    3.5845158 
H    -3.2760470   -2.3203032    6.8089531 
H    -4.4370532   -2.6063677    5.4845181 
H    -4.4597859   -1.0620952    6.3564102 
H    -5.1781175    4.4967360    0.3987018 
H    -4.1561598    4.8284346    1.8246349 
H    -5.6335044    3.8678021    2.0062808 
