125
Energy =
C     2.9476144    1.8654987   -1.8416053 
C     1.8108646    2.6714521   -1.5470847 
C     1.3667801    2.8153337   -0.2057665 
H     1.1753113    3.0290952   -2.3660334 
Pd    1.3972790    0.6434819   -0.7957809 
P    -0.3763054   -0.2069943    0.3413201 
P     1.6045912   -1.5124197   -1.6157515 
H     3.7050225    1.7637130   -1.0486674 
H     2.1233914    2.6919545    0.5827756 
C     4.3220823    0.7102005   -5.7575122 
C     5.1739184    0.6282303   -4.6459147 
C     4.7223558    1.0308052   -3.3821930 
C     3.4056549    1.5133665   -3.1985152 
C     2.5639436    1.6025617   -4.3328255 
C     3.0182641    1.2086311   -5.5959164 
H     4.6721327    0.3955161   -6.7456447 
H     6.1973586    0.2576630   -4.7637287 
H     5.4024734    0.9852395   -2.5247301 
H     1.5375677    1.9690126   -4.2238954 
H     2.3488640    1.2803665   -6.4592475 
C    -2.2584234    4.6809673    1.1444540 
C    -1.2164360    4.4031333    2.0407777 
C    -0.0409138    3.7968951    1.5865959 
C     0.1211522    3.4727960    0.2215986 
C    -0.9347989    3.7616292   -0.6727652 
C    -2.1128992    4.3562006   -0.2147863 
H    -3.1823141    5.1473823    1.5015542 
H    -1.3182820    4.6558118    3.0997349 
H     0.7572280    3.5608938    2.2984508 
H    -0.8462848    3.4977376   -1.7314769 
H    -2.9249693    4.5655861   -0.9187506 
O    -0.7472652   -1.7069534   -0.2426485 
O    -1.7124441    0.7212838    0.2153626 
O    -0.3610078   -0.6624274    1.9208550 
C     2.2119028   -1.9928549   -3.3454746 
C     2.5857892   -2.8007449   -0.6655981 
C     2.9396535   -3.8418665   -1.7697935 
C     3.2778591   -3.0886627   -3.0712795 
C     3.7785921   -2.2315283    0.0796111 
C     1.0172518   -2.3522969   -4.2145239 
C    -0.1559669   -2.1681524   -1.4684615 
C     0.2451256   -1.3097961   -4.7718563 
C     4.5769636   -1.2046767   -0.4605971 
C     0.5936193   -3.6803558   -4.4151480 
C     4.1248404   -2.7598449    1.3379688 
C    -3.9199024   -0.1265883   -1.7155253 
C     1.7922817    0.0616403    3.8080840 
C    -3.0421799    0.1543355    2.1298114 
C    -1.9758949    0.7676762    2.9902024 
C     0.3744217    0.6802600    3.8152771 
C    -3.9405780   -0.1987058   -0.1671509 
C    -2.9359418    0.2162048    0.7208796 
C    -0.6453360    0.2971984    2.9200424 
C     5.6892137   -0.7145522    0.2375809 
C    -0.9218690   -1.5844817   -5.4956001 
C     5.2393040   -2.2751405    2.0372146 
C    -0.5728744   -3.9567487   -5.1454609 
C    -2.2882888    1.7905629    3.9220141 
C    -4.1723611   -0.4792824    2.7015484 
C    -0.0031947    1.6502774    4.7636458 
C    -5.0746031   -0.7632156    0.4565253 
C     6.0245610   -1.2491217    1.4906058 
C    -1.3385044   -2.9120938   -5.6817658 
C    -5.2019744   -0.9379087    1.8398875 
C    -1.2831569    2.2246008    4.8199307 
C    -2.7312534    0.6447031   -2.3380677 
C    -3.9021471   -1.5763808   -2.2682718 
C    -5.2079233    0.5964037   -2.1951605 
C     1.7041292   -1.4845713    3.9051033 
C     2.5594751    0.4751778    2.5284404 
C     2.6283516    0.5499250    5.0139164 
C    -3.6535370    2.4374350    3.9695294 
C    -4.2964363   -0.7141655    4.1898392 
C    -1.5843539    3.2845820    5.8561628 
C    -6.4332323   -1.6103339    2.4050143 
H     1.8930200   -3.2426664    0.0717656 
H     2.6884573   -1.0868543   -3.7569710 
H     2.0673051   -4.5026410   -1.9264830 
H     3.7761662   -4.4803759   -1.4382827 
H     4.2618003   -2.6004803   -2.9656937 
H     3.3560181   -3.7753541   -3.9314379 
H    -0.7426788   -1.8339573   -2.3398849 
H    -0.1682127   -3.2689742   -1.4307114 
H     4.3231264   -0.7762699   -1.4365284 
H     0.5651266   -0.2728822   -4.6247972 
H     3.5106107   -3.5530587    1.7785646 
H     1.1725940   -4.5144291   -4.0061221 
H     6.2985168    0.0852413   -0.1978202 
H    -1.5066756   -0.7601081   -5.9171565 
H     5.4902714   -2.6963285    3.0162745 
H    -0.8827193   -4.9963602   -5.2942454 
H     0.7330052    1.9893477    5.4962006 
H    -5.8970273   -1.1148725   -0.1752488 
H     6.8923688   -0.8677003    2.0381463 
H    -2.2502187   -3.1307082   -6.2468456 
H    -1.7660507    0.1363428   -2.1872967 
H    -2.6439042    1.6635142   -1.9295602 
H    -2.8966085    0.7163901   -3.4278435 
H    -4.8073499   -2.1345063   -1.9747122 
H    -3.0296181   -2.1284621   -1.8802467 
H    -5.2376684    1.6324610   -1.8149348 
H    -6.1258844    0.0848613   -1.8625826 
H    -5.2286360    0.6316702   -3.2988684 
H     1.2026836   -1.9249676    3.0304726 
H     1.1472160   -1.7819483    4.8105102 
H     2.7214533   -1.9082765    3.9718439 
H     2.6710457    1.5729923    2.4848943 
H     2.0437869    0.1444174    1.6080641 
H     3.5664773    0.0249125    2.5163712 
H     2.1566183    0.2816820    5.9749634 
H     2.7890352    1.6420596    4.9949142 
H     3.6213388    0.0695279    4.9810421 
H    -3.8487654   -1.5674568   -3.3719293 
H    -3.5576387    3.5369894    3.9299122 
H    -4.1813613    2.2010023    4.9115176 
H    -4.2899501    2.1221395    3.1300159 
H    -4.4987592   -1.7813509    4.3910758 
H    -5.1419598   -0.1464239    4.6198309 
H    -3.3824116   -0.4336524    4.7331927 
H    -0.7072204    3.4821503    6.4929238 
H    -2.4209847    2.9814785    6.5117996 
H    -1.8852880    4.2412358    5.3888127 
H    -7.1497808   -1.8660107    1.6080507 
H    -6.9509469   -0.9609505    3.1344183 
H    -6.1730545   -2.5429449    2.9392861 
