125
Energy =
C     3.1264359    1.5763137   -1.6297571 
C     2.0121337    2.4414540   -1.4567102 
C     1.4891827    2.6777971   -0.1538548 
H     1.4345643    2.7619462   -2.3320402 
Pd    1.4774282    0.4812446   -0.6008928 
P    -0.3124200   -0.2680500    0.5824347 
P     1.6526293   -1.6873628   -1.4077314 
H     3.8042847    1.4496553   -0.7705628 
H     2.1986193    2.6135512    0.6836647 
C     4.7178910    0.0175886   -5.3083182 
C     5.3221315   -0.2765345   -4.0755770 
C     4.8069609    0.2651400   -2.8925119 
C     3.6696252    1.1053469   -2.9157553 
C     3.0788027    1.4062446   -4.1650227 
C     3.5998467    0.8675554   -5.3476833 
H     5.1189715   -0.4049796   -6.2350332 
H     6.1999977   -0.9295802   -4.0324917 
H     5.2769487    0.0258285   -1.9331705 
H     2.2058248    2.0648735   -4.2186519 
H     3.1297012    1.1095566   -6.3062438 
C    -2.2025438    4.6499173    0.8222396 
C    -1.2074115    4.4694700    1.7938250 
C    -0.0074198    3.8322864    1.4612919 
C     0.2255525    3.3744697    0.1456033 
C    -0.7853112    3.5634693   -0.8242615 
C    -1.9865616    4.1927109   -0.4883934 
H    -3.1447588    5.1426200    1.0833424 
H    -1.3648515    4.8230584    2.8165326 
H     0.7552301    3.6787256    2.2319053 
H    -0.6449489    3.1892797   -1.8434745 
H    -2.7626401    4.3231047   -1.2497327 
O    -0.6020206   -1.8431493    0.1814700 
O    -1.6588827    0.5992799    0.2578718 
O    -0.3844299   -0.5232965    2.2064239 
C     1.9899007   -2.0770268   -3.2309048 
C     2.8653067   -2.9613385   -0.7273267 
C     2.8591491   -4.0255702   -1.8466836 
C     2.9457482   -3.3064503   -3.2087052 
C     4.2102985   -2.3192541   -0.3988009 
C     0.7097999   -2.2011459   -4.0357564 
C    -0.0485080   -2.4093934   -1.0163488 
C     0.0333580   -3.4293158   -4.1867986 
C     5.4153399   -2.7035266   -1.0162964 
C     0.1577764   -1.0509133   -4.6339431 
C     4.2611650   -1.3097584    0.5853767 
C    -3.7555634   -0.3828278   -1.7405669 
C     1.5335818    0.4557642    4.2340060 
C    -3.1188862    0.1812977    2.1144641 
C    -2.1492191    0.9220308    2.9865228 
C     0.1013614    1.0037151    4.0430824 
C    -3.8538222   -0.3766022   -0.1954199 
C    -2.9113976    0.1215553    0.7178850 
C    -0.8036209    0.5039392    3.0833091 
C     6.6281015   -2.0810088   -0.6778985 
C    -1.1562585   -3.5047593   -4.9248119 
C     5.4665917   -0.6821597    0.9213541 
C    -1.0278134   -1.1266670   -5.3774658 
C    -2.5830409    2.0197663    3.7734444 
C    -4.2699825   -0.4338630    2.6640720 
C    -0.3992101    2.0411502    4.8523762 
C    -5.0117406   -0.9249522    0.3982052 
C     6.6587846   -1.0612811    0.2826686 
C    -1.6894865   -2.3542745   -5.5253365 
C    -5.2247428   -0.9984784    1.7799104 
C    -1.6898342    2.5761055    4.7197147 
C    -5.0189353    0.3160955   -2.3141424 
C    -2.5389236    0.3643340   -2.3344900 
C    -3.7160819   -1.8541738   -2.2283297 
C     1.5144516   -1.0854032    4.4135921 
C     2.4024464    0.8407778    3.0137581 
C     2.2108230    1.0550666    5.4882361 
C    -3.9614226    2.6196854    3.6160345 
C    -4.4946693   -0.5328901    4.1558165 
C    -2.1229918    3.7231150    5.6053387 
C    -6.4716905   -1.6637920    2.3180723 
H     2.4213699   -3.3542309    0.2061622 
H     2.5369272   -1.1916237   -3.5937624 
H     1.9175412   -4.6017430   -1.7844376 
H     3.6755087   -4.7563655   -1.7101928 
H     3.9705589   -2.9355905   -3.3719215 
H     2.7148772   -3.9910037   -4.0414764 
H    -0.7087025   -2.2158516   -1.8778906 
H     0.0069413   -3.4965681   -0.8465094 
H     5.4272648   -3.4995369   -1.7659017 
H     0.4365133   -4.3407144   -3.7313731 
H     3.3404351   -1.0181603    1.1025673 
H     0.6771823   -0.0923385   -4.5255310 
H     7.5524856   -2.3981820   -1.1716280 
H    -1.6651852   -4.4678498   -5.0354163 
H     5.4774997    0.0983602    1.6895511 
H    -1.4324802   -0.2246915   -5.8483273 
H     0.2473085    2.4708516    5.6210679 
H    -5.7843406   -1.3428896   -0.2559085 
H     7.6040545   -0.5736229    0.5411248 
H    -2.6137291   -2.4162815   -6.1087636 
H    -5.0648230    1.3689485   -1.9850153 
H    -5.9522142   -0.1797978   -2.0006971 
H    -4.9867901    0.2992217   -3.4180955 
H    -1.5805055   -0.1338993   -2.1187321 
H    -2.4743933    1.3989684   -1.9637771 
H    -4.6338004   -2.4003336   -1.9518818 
H    -2.8624417   -2.3906582   -1.7806679 
H    -3.6097830   -1.8925829   -3.3266032 
H     1.1135938   -1.6014886    3.5289880 
H     0.8949541   -1.3624835    5.2839801 
H     2.5413607   -1.4501310    4.5958937 
H     2.4844654    1.9381507    2.9257395 
H     1.9761847    0.4535996    2.0718124 
H     3.4214057    0.4297899    3.1253086 
H     1.6419853    0.8282040    6.4062453 
H     2.3347148    2.1495161    5.4142676 
H     3.2171167    0.6157895    5.6001752 
H    -2.6486800    0.3894334   -3.4320682 
H    -4.5048809    2.1917389    2.7612877 
H    -3.8847300    3.7105420    3.4592631 
H    -4.5744943    2.4733344    4.5241443 
H    -3.6298372   -0.1734519    4.7321872 
H    -4.6843064   -1.5824316    4.4436035 
H    -5.3832250    0.0453380    4.4697846 
H    -1.3204002    4.0169106    6.3005436 
H    -3.0131548    3.4569654    6.2041319 
H    -2.4014340    4.6148306    5.0125103 
H    -7.1235220   -2.0111487    1.5004984 
H    -7.0578165   -0.9740005    2.9525021 
H    -6.2212840   -2.5379492    2.9472902 
