125
Energy =
C     2.9049279    1.8343527   -1.8477345 
C     1.7643569    2.6390498   -1.5598563 
C     1.3118146    2.7721482   -0.2213492 
H     1.1396132    3.0084619   -2.3819645 
Pd    1.3445530    0.6019484   -0.8314561 
P    -0.4371053   -0.2743656    0.2731224 
P     1.6368517   -1.5658329   -1.6008735 
H     3.6576341    1.7377563   -1.0500271 
H     2.0612458    2.6163236    0.5683301 
C     4.3213450    0.7193289   -5.7606038 
C     5.1712136    0.6562564   -4.6463722 
C     4.7053159    1.0439270   -3.3831555 
C     3.3762037    1.4925452   -3.2028989 
C     2.5356267    1.5611554   -4.3394668 
C     3.0042927    1.1826295   -5.6020171 
H     4.6826660    0.4163782   -6.7483435 
H     6.2041940    0.3122869   -4.7615731 
H     5.3840305    1.0140748   -2.5239356 
H     1.4989426    1.8980820   -4.2319711 
H     2.3359813    1.2382822   -6.4673924 
C    -2.2232193    4.7744705    1.1707172 
C    -1.2106307    4.3961259    2.0641038 
C    -0.0691041    3.7391214    1.5948485 
C     0.0878754    3.4599020    0.2186924 
C    -0.9410501    3.8433793   -0.6713197 
C    -2.0839138    4.4940797   -0.1987663 
H    -3.1193360    5.2852857    1.5378232 
H    -1.3080148    4.6122550    3.1315447 
H     0.7067802    3.4291857    2.3027432 
H    -0.8580103    3.6188361   -1.7396752 
H    -2.8741453    4.7804468   -0.8999492 
O    -0.7556657   -1.7920081   -0.2911164 
O    -1.8011956    0.6218801    0.1391664 
O    -0.3913082   -0.7234525    1.8540725 
C     2.2931878   -2.0538983   -3.3120579 
C     2.6500963   -2.8045221   -0.6158937 
C     3.0318416   -3.8597222   -1.6967723 
C     3.3811072   -3.1179001   -3.0010717 
C     3.8362736   -2.2014288    0.1126294 
C     1.1357640   -2.4602311   -4.2101632 
C    -0.0998250   -2.2855541   -1.4703257 
C     0.7609664   -3.8036372   -4.4063907 
C     4.5934091   -1.1472493   -0.4328501 
C     0.3548534   -1.4504964   -4.8127895 
C     4.2250653   -2.7335806    1.3570557 
C    -4.0991502    0.1405278   -1.6609309 
C     1.7837585   -0.0059510    3.7305209 
C    -3.0690000    0.0619634    2.1123611 
C    -1.9937190    0.6826177    2.9551721 
C     0.3645514    0.6074800    3.7525098 
C    -4.0846503   -0.1816169   -0.1481523 
C    -3.0140422    0.1464678    0.7058824 
C    -0.6618542    0.2260563    2.8640182 
C     5.7035715   -0.6295759    0.2489428 
C    -0.3647742   -4.1269598   -5.1798961 
C     5.3373580   -2.2216375    2.0400080 
C    -0.7712237   -1.7721514   -5.5807763 
C    -2.3039667    1.7011598    3.8927142 
C    -4.1897875   -0.5712328    2.7106308 
C    -0.0095964    1.5695762    4.7103332 
C    -5.2001598   -0.7469398    0.4986582 
C     6.0789352   -1.1650692    1.4900498 
C    -1.1381140   -3.1145516   -5.7645768 
C    -5.2580748   -0.9881055    1.8807903 
C    -1.2918959    2.1374916    4.7816181 
C    -2.9674385   -0.5909548   -2.4239550 
C    -5.4367451   -0.2755787   -2.3132453 
C    -3.9331104    1.6724245   -1.8384929 
C     2.6248119    0.4686540    4.9383254 
C     1.7000764   -1.5534415    3.8075327 
C     2.5414971    0.4273073    2.4525884 
C    -3.6723973    2.3396579    3.9569639 
C    -4.2594011   -0.8368394    4.1976284 
C    -1.5896042    3.1882831    5.8282241 
C    -6.4718979   -1.6675047    2.4744913 
H     1.9672468   -3.2452614    0.1314779 
H     2.7544803   -1.1397459   -3.7233122 
H     2.1704650   -4.5338542   -1.8581557 
H     3.8709687   -4.4822266   -1.3420960 
H     4.3502232   -2.6044209   -2.8800959 
H     3.4949003   -3.8137817   -3.8496891 
H    -0.6682979   -2.0209805   -2.3758384 
H    -0.0657900   -3.3826939   -1.3760645 
H     4.3084505   -0.7198452   -1.4004170 
H     1.3478605   -4.6136930   -3.9619399 
H     3.6454810   -3.5513227    1.7996983 
H     0.6379067   -0.4023228   -4.6704264 
H     6.2796050    0.1927978   -0.1896831 
H    -0.6358384   -5.1778351   -5.3253256 
H     5.6209882   -2.6453839    3.0089893 
H    -1.3622277   -0.9728208   -6.0402092 
H     0.7315723    1.9075270    5.4384162 
H    -6.0681164   -1.0351746   -0.0988702 
H     6.9445222   -0.7617972    2.0252761 
H    -2.0171985   -3.3694912   -6.3650152 
H    -2.9853240   -1.6743098   -2.2149569 
H    -1.9766300   -0.1923141   -2.1559983 
H    -3.0964579   -0.4495179   -3.5116842 
H    -6.2977380    0.2380874   -1.8523244 
H    -5.6042293   -1.3652964   -2.2522077 
H    -2.9841928    2.0224297   -1.4042596 
H    -4.7583872    2.2134223   -1.3437135 
H    -3.9460321    1.9329954   -2.9126971 
H     2.1583898    0.1870267    5.8981369 
H     2.7830697    1.5612796    4.9326042 
H     3.6187325   -0.0088944    4.8938940 
H     1.2025695   -1.9841960    2.9257631 
H     1.1409369   -1.8639328    4.7071310 
H     2.7183192   -1.9745705    3.8724935 
H     2.6545433    1.5256166    2.4267620 
H     2.0160951    0.1134174    1.5310538 
H     3.5477265   -0.0232731    2.4241621 
H    -5.4191205    0.0008931   -3.3815523 
H    -3.5825772    3.4393776    3.9049684 
H    -4.1829443    2.1090845    4.9098461 
H    -4.3211100    2.0134572    3.1312345 
H    -4.4606473   -1.9070562    4.3836727 
H    -5.0845337   -0.2738640    4.6712582 
H    -3.3239035   -0.5729349    4.7122190 
H    -0.7016830    3.4022657    6.4444087 
H    -2.4032697    2.8646738    6.5029240 
H    -1.9231285    4.1395501    5.3726566 
H    -7.2252221   -1.8866217    1.7008927 
H    -6.9501468   -1.0404040    3.2491240 
H    -6.1997683   -2.6216980    2.9628142 
