125
Energy =
C     2.8421303    1.4889114   -2.1409969 
C     1.9132521    2.4183915   -1.5804828 
C     1.7609172    2.4926692   -0.1720852 
H     1.1923910    2.9251804   -2.2332867 
Pd    1.3836023    0.3952915   -0.8946413 
P    -0.0929637   -0.4991787    0.5759744 
P     1.7459025   -1.7901814   -1.5826282 
H     3.7391017    1.2574598   -1.5463260 
H     2.6124808    2.1397512    0.4308388 
C     3.1629021    0.4003123   -6.2979900 
C     4.2450994    0.2211597   -5.4232571 
C     4.1330375    0.5991180   -4.0785045 
C     2.9350876    1.1568022   -3.5776601 
C     1.8524833    1.3322514   -4.4708570 
C     1.9694083    0.9642032   -5.8159927 
H     3.2481879    0.1077034   -7.3492969 
H     5.1836420   -0.2062211   -5.7915704 
H     4.9828360    0.4709524   -3.4003122 
H     0.9031039    1.7376473   -4.1062787 
H     1.1215709    1.1103225   -6.4935388 
C    -0.9909537    4.8943401    2.0834702 
C     0.0297120    4.1770724    2.7244819 
C     0.9072795    3.3898857    1.9722131 
C     0.7802307    3.3032980    0.5666627 
C    -0.2728638    4.0064408   -0.0614109 
C    -1.1454314    4.7968578    0.6907397 
H    -1.6661347    5.5288781    2.6668806 
H     0.1469028    4.2375814    3.8112655 
H     1.7067943    2.8338001    2.4731490 
H    -0.4108997    3.9429633   -1.1451386 
H    -1.9510230    5.3418925    0.1892442 
O     0.1866548   -2.1312182    0.6428526 
O    -1.7041090   -0.5779736    0.2289031 
O     0.0023189   -0.0165274    2.1254518 
C     1.7475025   -2.4729563   -3.3381115 
C     3.4715494   -2.4499522   -1.1420761 
C     4.0179847   -2.9786663   -2.4898903 
C     2.8456132   -3.5630529   -3.2918093 
C     4.2891426   -1.4008088   -0.4046872 
C     0.3821132   -2.8454919   -3.8736622 
C     0.5023987   -2.8070701   -0.5835517 
C    -0.2216912   -4.0880987   -3.5896385 
C     3.8088815   -0.9006359    0.8258954 
C    -0.3235370   -1.9208907   -4.6686166 
C     5.4823017   -0.8645789   -0.9204829 
C    -3.0137810    0.7994603   -2.0635154 
C     1.0450389   -1.3019951    4.5818818 
C    -2.6903606    0.8975954    1.8372535 
C    -2.2800876   -0.0550478    2.9231085 
C    -0.4529323   -1.0710858    4.2755233 
C    -3.0931667    1.2636768   -0.5916807 
C    -2.4978657    0.5669261    0.4789894 
C    -0.9295733   -0.4101186    3.1259606 
C     4.4771584    0.1300053    1.4985774 
C    -1.4982181   -4.3922640   -4.0836563 
C     6.1529701    0.1732346   -0.2500881 
C    -1.5969238   -2.2259519   -5.1666339 
C    -3.2571710   -0.5760551    3.8134834 
C    -3.3675247    2.1028704    2.1566947 
C    -1.4549741   -1.4963427    5.1683296 
C    -3.8196995    2.4106161   -0.2189083 
C     5.6471346    0.6834108    0.9532801 
C    -2.1910157   -3.4619428   -4.8725390 
C    -3.9364198    2.8605715    1.1054300 
C    -2.8276069   -1.3116259    4.9433809 
C    -3.4387557   -0.6875501   -2.1864600 
C    -3.9609421    1.6230330   -2.9671736 
C    -1.5790218    0.9930809   -2.6087832 
C     1.6216001   -2.3750617    3.6265765 
C     1.8337750    0.0276561    4.4427538 
C     1.2548753   -1.8035617    6.0294781 
C    -4.7394280   -0.3901143    3.5764384 
C    -3.4927898    2.5977193    3.5790193 
C    -3.8325286   -1.8771742    5.9219720 
C    -4.6975681    4.1326029    1.4024592 
H     3.2886317   -3.3045963   -0.4631231 
H     2.1364344   -1.6183989   -3.9243651 
H     4.8196981   -3.7180364   -2.3215937 
H     4.4511795   -2.1433778   -3.0677633 
H     3.1453338   -3.8408942   -4.3169077 
H     2.4658581   -4.4786693   -2.8025099 
H    -0.4060637   -2.9463121   -1.1973462 
H     0.9117410   -3.7909572   -0.3051227 
H     2.9048617   -1.3320393    1.2691307 
H     0.3068323   -4.8339858   -2.9855871 
H     5.9044753   -1.2524750   -1.8518503 
H     0.1428384   -0.9584995   -4.9031388 
H     4.0831727    0.4959583    2.4516878 
H    -1.9497248   -5.3635826   -3.8566622 
H     7.0781443    0.5788622   -0.6725432 
H    -2.1252553   -1.4968326   -5.7900792 
H    -1.1598963   -2.0225413    6.0790721 
H    -4.3114729    3.0006387   -0.9958786 
H     6.1703278    1.4925363    1.4728527 
H    -3.1859606   -3.7025686   -5.2605481 
H    -4.4597094   -0.8288856   -1.7915489 
H    -2.7614495   -1.3590528   -1.6387295 
H    -3.4337377   -0.9909330   -3.2474838 
H    -3.6831902    2.6910048   -3.0007578 
H    -5.0111570    1.5448252   -2.6370874 
H    -0.8322913    0.4079218   -2.0400952 
H    -1.2868741    2.0565225   -2.5563254 
H    -1.5223989    0.6671633   -3.6616547 
H     1.4906749   -2.0923976    2.5731998 
H     1.1079261   -3.3403772    3.7749970 
H     2.6992551   -2.5204501    3.8226871 
H     1.4175340    0.7975936    5.1158599 
H     1.8031743    0.4180798    3.4148434 
H     2.8894273   -0.1366595    4.7246782 
H     0.7925886   -2.7910726    6.1992544 
H     0.8508587   -1.0940770    6.7724763 
H     2.3366898   -1.9113961    6.2194365 
H    -3.9034826    1.2344014   -3.9986838 
H    -5.2505998   -1.3693284    3.5933956 
H    -4.9519958    0.0873188    2.6089312 
H    -5.2040522    0.2209083    4.3720591 
H    -2.9100851    1.9872395    4.2839902 
H    -4.5457705    2.6038461    3.9152291 
H    -3.1314237    3.6386370    3.6498376 
H    -3.3300060   -2.3778448    6.7649129 
H    -4.4955234   -2.6163933    5.4350742 
H    -4.4872616   -1.0877186    6.3343371 
H    -5.0848634    4.5924135    0.4790461 
H    -4.0578113    4.8768108    1.9115536 
H    -5.5547081    3.9434692    2.0744499 
