125
Energy =
C     2.7166253    1.6748838   -2.1640197 
C     1.7284148    2.5395753   -1.6011261 
C     1.5786166    2.6066591   -0.1923633 
H     0.9711764    2.9938511   -2.2512823 
Pd    1.3425990    0.4852550   -0.9087297 
P    -0.0661931   -0.5052438    0.5671079 
P     1.8620479   -1.6707298   -1.5862420 
H     3.6301029    1.5075758   -1.5730779 
H     2.4542920    2.3103038    0.4063580 
C     3.0908885    0.5871642   -6.3164984 
C     4.1844357    0.4785706   -5.4442252 
C     4.0534279    0.8565041   -4.1012198 
C     2.8252654    1.3433849   -3.5995575 
C     1.7317559    1.4487821   -4.4904280 
C     1.8669350    1.0807772   -5.8338767 
H     3.1906958    0.2943178   -7.3664453 
H     5.1459713    0.1063433   -5.8130589 
H     4.9111878    0.7837164   -3.4248260 
H     0.7607520    1.7986959   -4.1253874 
H     1.0098951    1.1713617   -6.5095112 
C    -1.3087478    4.8234200    2.0822725 
C    -0.2503126    4.1578265    2.7177629 
C     0.6713086    3.4297187    1.9589655 
C     0.5512681    3.3511283    0.5522254 
C    -0.5387358    4.0006355   -0.0705601 
C    -1.4555900    4.7324505    0.6883458 
H    -2.0192083    5.4129197    2.6709809 
H    -0.1385952    4.2127790    3.8054071 
H     1.5001953    2.9141256    2.4553913 
H    -0.6704286    3.9425593   -1.1553765 
H    -2.2897690    5.2370572    0.1912323 
O     0.3166010   -2.1159283    0.6312787 
O    -1.6715246   -0.6849713    0.2306823 
O     0.0080036   -0.0194621    2.1171017 
C     1.9178650   -2.3662204   -3.3357863 
C     3.6282636   -2.2042769   -1.1345256 
C     4.2129009   -2.7111633   -2.4749432 
C     3.0848815   -3.3808810   -3.2737629 
C     4.3715576   -1.0925775   -0.4100265 
C     0.5793698   -2.8313884   -3.8671903 
C     0.6878267   -2.7699052   -0.5912435 
C    -0.2055890   -1.9440466   -4.6298982 
C     3.8614447   -0.6148312    0.8175457 
C     0.0755796   -4.1225894   -3.6065904 
C     5.5225566   -0.4791076   -0.9356344 
C    -3.0791978    0.6161209   -2.0485672 
C     1.1485038   -1.2472059    4.5608371 
C    -2.7385967    0.7204427    1.8505164 
C    -2.2611414   -0.2074453    2.9302147 
C    -0.3632514   -1.1100385    4.2656707 
C    -3.1784549    1.0689784   -0.5744226 
C    -2.5340570    0.4070570    0.4899196 
C    -0.8892483   -0.4760161    3.1224290 
C     4.4585988    0.4666768    1.4772863 
C    -1.4589672   -2.3332258   -5.1197838 
C     6.1212554    0.6097544   -0.2783578 
C    -1.1808412   -4.5113425   -4.0931981 
C    -3.1966820   -0.7929032    3.8250834 
C    -3.4885480    1.8793962    2.1786686 
C    -1.3298598   -1.6021649    5.1632654 
C    -3.9738700    2.1662569   -0.1928717 
C     5.5850561    1.0952417    0.9219956 
C    -1.9532367   -3.6178959   -4.8500166 
C    -4.1110671    2.6030401    1.1338652 
C    -2.7130458   -1.5041854    4.9487198 
C    -4.0804737    1.3834465   -2.9433380 
C    -1.6622899    0.8997276   -2.6012625 
C    -3.4127649   -0.8937796   -2.1747229 
C     1.7839263   -2.2813161    3.5998383 
C     1.8521186    0.1289466    4.4183422 
C     1.3998173   -1.7361846    6.0061763 
C    -4.6894729   -0.7006391    3.5993280 
C    -3.6353741    2.3607335    3.6036034 
C    -3.6730985   -2.1357273    5.9318803 
C    -4.9501519    3.8227095    1.4403561 
H     3.5027226   -3.0604529   -0.4446457 
H     2.2514510   -1.4936860   -3.9296938 
H     5.0613808   -3.3935824   -2.2961345 
H     4.5918737   -1.8556377   -3.0613186 
H     3.4066126   -3.6504332   -4.2944133 
H     2.7653386   -4.3139107   -2.7743652 
H    -0.2041389   -2.9747801   -1.2109310 
H     1.1636892   -3.7219444   -0.3077134 
H     2.9913025   -1.1036568    1.2688814 
H     0.1831900   -0.9436384   -4.8463272 
H     5.9680456   -0.8457249   -1.8647254 
H     0.6668508   -4.8397853   -3.0267252 
H     4.0437861    0.8136742    2.4286326 
H    -2.0497695   -1.6317844   -5.7184344 
H     7.0143135    1.0747522   -0.7086518 
H    -1.5539196   -5.5194869   -3.8851534 
H    -0.9952756   -2.1123609    6.0694554 
H    -4.5066643    2.7268465   -0.9645500 
H     6.0519649    1.9441086    1.4316537 
H    -2.9321178   -3.9243839   -5.2323737 
H    -3.8687928    2.4665525   -2.9741024 
H    -5.1218813    1.2398114   -2.6074937 
H    -4.0056747    1.0029522   -3.9767461 
H    -0.8780866    0.3549953   -2.0429008 
H    -1.4339554    1.9782217   -2.5410638 
H    -4.4201789   -1.0992605   -1.7732956 
H    -2.6912645   -1.5243425   -1.6347579 
H    -3.3972269   -1.1922267   -3.2370553 
H     1.6284562   -2.0061321    2.5477538 
H     1.3319488   -3.2767490    3.7501526 
H     2.8697771   -2.3598730    3.7886330 
H     1.3941821    0.8704772    5.0962553 
H     1.7891450    0.5182972    3.3915997 
H     2.9180133    0.0296654    4.6915668 
H     1.0029137   -2.7514442    6.1775084 
H     0.9563107   -1.0548745    6.7529721 
H     2.4875975   -1.7747177    6.1884506 
H    -1.5936534    0.5872842   -3.6575760 
H    -5.1369292   -1.7106093    3.6134122 
H    -4.9391346   -0.2320141    2.6363805 
H    -5.1863021   -0.1253445    4.4020384 
H    -3.0090081    1.7872891    4.3021931 
H    -4.6840188    2.2970741    3.9474696 
H    -3.3423926    3.4228399    3.6754920 
H    -3.1339929   -2.6078933    6.7686545 
H    -4.2924441   -2.9125245    5.4460861 
H    -4.3725517   -1.3904395    6.3529179 
H    -5.3736446    4.2587142    0.5213015 
H    -4.3556106    4.6054622    1.9463917 
H    -5.7878360    3.5771980    2.1185952 
