125
Energy =
C     3.0026676    1.7454976   -1.3508081 
C     1.7683724    2.4516694   -1.3406765 
C     1.0194522    2.6103351   -0.1427979 
H     1.3067142    2.7492917   -2.2910900 
Pd    1.3230472    0.4250931   -0.6183482 
P    -0.5744014   -0.5559462    0.1788319 
P     1.8395817   -1.7109932   -1.4009844 
H     3.5738179    1.7270639   -0.4105992 
H     1.5706063    2.5900674    0.8087087 
C     5.3418601    0.8046259   -4.8462505 
C     5.9318227    0.8297312   -3.5731545 
C     5.1635393    1.1532117   -2.4480823 
C     3.7855560    1.4498717   -2.5659542 
C     3.2108552    1.4386409   -3.8601361 
C     3.9804556    1.1204155   -4.9851146 
H     5.9412580    0.5522669   -5.7267603 
H     6.9970718    0.6057224   -3.4562674 
H     5.6407704    1.1948929   -1.4629634 
H     2.1497071    1.6713084   -3.9942618 
H     3.5128476    1.1149289   -5.9750036 
C    -2.7288284    4.7008723   -0.0147780 
C    -1.8074323    4.8193125    1.0357623 
C    -0.6088893    4.0964595    1.0065899 
C    -0.2965226    3.2724653   -0.0963593 
C    -1.2352106    3.1562038   -1.1458538 
C    -2.4414454    3.8599622   -1.1028991 
H    -3.6705357    5.2584328    0.0141851 
H    -2.0215237    5.4826089    1.8800087 
H     0.1062075    4.1865473    1.8305586 
H    -1.0295818    2.4829419   -1.9856583 
H    -3.1648756    3.7493811   -1.9165283 
O    -0.7625496   -2.0371407   -0.5096074 
O    -2.0122575    0.1623883   -0.0786025 
O    -0.6042772   -0.9941539    1.7674237 
C     1.9301976   -1.7490666   -3.2800661 
C     3.3102891   -2.8774525   -1.1575166 
C     3.9954279   -2.8800131   -2.5501637 
C     2.8745982   -2.9248879   -3.6001239 
C     4.1996733   -2.6027745    0.0320710 
C     0.5779846   -1.6583133   -3.9547859 
C     0.3844515   -2.8007577   -0.8847314 
C     0.0054589   -2.7383564   -4.6521374 
C     4.4380305   -3.6054971    0.9903488 
C    -0.1372061   -0.4416609   -3.8984944 
C     4.8345655   -1.3561269    0.1847785 
C    -4.4869207   -0.6774093   -1.5088265 
C     1.8744338   -0.1088086    3.3833712 
C    -3.1038763    0.0842978    2.0848113 
C    -1.9165435    0.7598399    2.7036096 
C     0.4949531    0.5894554    3.2992415 
C    -4.3407134   -0.5705316    0.0268866 
C    -3.1756289   -0.1335448    0.6895651 
C    -0.6491330    0.1384949    2.6191554 
C     5.2966738   -3.3684850    2.0744619 
C    -1.2364925   -2.5978077   -5.2933857 
C     5.6951792   -1.1175098    1.2623954 
C    -1.3726272   -0.2996993   -4.5377362 
C    -2.0460166    1.9731570    3.4189327 
C    -4.1915885   -0.3254481    2.8993711 
C     0.3086403    1.7892017    4.0219468 
C    -5.4162849   -0.8947586    0.8767916 
C     5.9289645   -2.1244852    2.2129320 
C    -1.9246325   -1.3789798   -5.2455138 
C    -5.3588520   -0.8241411    2.2760033 
C    -0.9023786    2.4911771    4.0800430 
C    -5.9445756   -0.9974661   -1.9147842 
C    -4.1126516    0.6730038   -2.1717373 
C    -3.5903566   -1.8125788   -2.0606968 
C     1.9733120   -1.4741663    2.6686381 
C     2.9569970    0.8152025    2.7743903 
C     2.1969037   -0.3598769    4.8828137 
C    -3.3552447    2.7224976    3.4928530 
C    -4.1259883   -0.2770846    4.4097044 
C    -0.9884149    3.7820336    4.8629705 
C    -6.5457490   -1.2662498    3.1022629 
H     2.8346228   -3.8675408   -1.0201764 
H     2.4855496   -0.8167529   -3.5008996 
H     4.6816483   -3.7404753   -2.6259933 
H     4.5992975   -1.9618817   -2.6752322 
H     3.2615526   -2.8384347   -4.6302414 
H     2.3410104   -3.8911827   -3.5278935 
H     0.0794388   -3.4444930   -1.7267801 
H     0.7162491   -3.4235523   -0.0333783 
H     3.9508404   -4.5820191    0.8866449 
H     0.5358333   -3.6931844   -4.7222611 
H     4.6493149   -0.5713390   -0.5541493 
H     0.2870355    0.4033256   -3.3416028 
H     5.4727285   -4.1594321    2.8107268 
H    -1.6601656   -3.4463117   -5.8404783 
H     6.1857801   -0.1433964    1.3630987 
H    -1.9072784    0.6535224   -4.4838388 
H     1.1596258    2.2019395    4.5747788 
H    -6.3491371   -1.2462601    0.4308907 
H     6.6019218   -1.9399299    3.0565333 
H    -2.8885956   -1.2696449   -5.7525491 
H    -6.6542270   -0.2355308   -1.5476099 
H    -6.2705640   -1.9867213   -1.5497810 
H    -6.0122655   -1.0152392   -3.0162336 
H    -3.0622166    0.9387763   -1.9857316 
H    -4.7506932    1.4860353   -1.7830951 
H    -3.8002071   -2.7620301   -1.5382527 
H    -2.5219559   -1.5868135   -1.9474066 
H    -3.7920934   -1.9582397   -3.1359303 
H     1.8808779   -1.3688519    1.5735127 
H     1.2067676   -2.1845866    3.0154780 
H     2.9696848   -1.9039681    2.8650854 
H     2.9419849    1.8273324    3.2130652 
H     2.8031652    0.9039418    1.6822928 
H     3.9594552    0.3823967    2.9305363 
H     1.4290013   -1.0055761    5.3423972 
H     2.2475864    0.5766389    5.4627436 
H     3.1746699   -0.8653217    4.9735584 
H    -4.2683489    0.6071371   -3.2635271 
H    -4.1031995    2.3130523    2.7985033 
H    -3.2070731    3.7867116    3.2454679 
H    -3.7769963    2.6882313    4.5143800 
H    -3.1313307    0.0146865    4.7770001 
H    -4.3658687   -1.2697018    4.8312900 
H    -4.8684842    0.4288091    4.8251261 
H    -0.0270905    4.0240921    5.3439277 
H    -1.7603223    3.7256245    5.6516745 
H    -1.2661218    4.6313863    4.2112844 
H    -7.3826149   -1.5838757    2.4599050 
H    -6.9082124   -0.4548920    3.7597695 
H    -6.2833188   -2.1148599    3.7611915 
