73
Energy =
C     1.1025910    0.7981227   -2.3047847 
C     1.3544986   -0.5975956   -2.1695873 
C     0.2902978   -1.5358555   -2.2374693 
H     2.3432387   -0.9295135   -1.8291188 
Pd   -0.0892664   -0.0401254   -0.6111995 
P    -1.2912593   -1.2319863    0.9737662 
P    -0.4756164    1.8202787    0.7224363 
H     0.2477219    1.0944167   -2.9312395 
H    -0.6016798   -1.2353304   -2.8096235 
C     3.9687362    3.9455064   -1.6341640 
C     2.8430456    4.1615221   -2.4428023 
C     1.9248421    3.1262051   -2.6626737 
C     2.1094656    1.8534618   -2.0763512 
C     3.2497094    1.6515016   -1.2620265 
C     4.1695681    2.6839193   -1.0485380 
H     4.6882050    4.7525906   -1.4632444 
H     2.6826786    5.1380346   -2.9113615 
H     1.0577424    3.2982638   -3.3103947 
H     3.4073640    0.6845674   -0.7716869 
H     5.0455727    2.5071063   -0.4158362 
C     0.4886388   -5.7774622   -1.5078080 
C     1.5901261   -4.9662733   -1.1850853 
C     1.5481979   -3.5884017   -1.4223874 
C     0.4021017   -2.9866211   -1.9926275 
C    -0.6907795   -3.8194223   -2.3295344 
C    -0.6506977   -5.1986280   -2.0859876 
H     0.5251294   -6.8551983   -1.3198196 
H     2.4882613   -5.4126942   -0.7460113 
H     2.4194065   -2.9780589   -1.1634542 
H    -1.5764238   -3.3761084   -2.7996592 
H    -1.5072946   -5.8239043   -2.3581490 
C    -2.5122636   -2.5907250    0.5578170 
C    -0.2491899   -2.2776585    2.1461619 
C     0.8612392    3.0935401    1.1017963 
C    -1.7679321    3.0550355    0.1385853 
C    -2.1423007    0.0237508    2.0637292 
C    -1.1801253    1.1934624    2.3415107 
C    -2.2196759   -3.6975140    1.5979813 
C    -0.7012675   -3.7232729    1.8294847 
C     0.2431541    4.4438255    0.6365654 
C    -1.2868027    4.3739827    0.7918248 
C    -3.9769936   -2.1577337    0.4367005 
C     1.2612150   -2.0321946    2.0584523 
C     1.3326700    3.0922117    2.5653792 
C    -1.8638533    3.1177270   -1.3941976 
H    -2.1556032   -2.9527268   -0.4249795 
H    -0.6086262   -2.0124530    3.1598656 
H     1.7151028    2.8302072    0.4554464 
H    -2.7429504    2.7376775    0.5508501 
H    -3.0386734    0.3762655    1.5213274 
H    -2.4850861   -0.4478774    3.0020179 
H    -1.6893748    2.0149098    2.8759701 
H    -0.3370986    0.8610789    2.9727032 
H    -2.5993285   -4.6703168    1.2386891 
H    -2.7468683   -3.4700650    2.5449458 
H    -0.4157455   -4.4032631    2.6513899 
H    -0.1889937   -4.0794455    0.9158154 
H     0.5078962    4.6174060   -0.4207673 
H     0.6725115    5.2804591    1.2148883 
H    -1.5559795    4.3791139    1.8649852 
H    -1.7888124    5.2445029    0.3326119 
H    -4.5943955   -3.0171443    0.1216749 
H    -4.3766913   -1.7980401    1.4009698 
H    -4.1088292   -1.3593949   -0.3150374 
H     1.5217981   -0.9904101    2.3146946 
H     1.7958899   -2.6982202    2.7583472 
H     1.6318761   -2.2370093    1.0399363 
H     1.7308266    2.1083659    2.8697109 
H     2.1472488    3.8279066    2.6833197 
H     0.5252151    3.3712585    3.2645273 
H    -0.8960388    3.3864221   -1.8510517 
H    -2.1769920    2.1451807   -1.8119773 
H    -2.6042733    3.8788568   -1.6962417 
