73
Energy =
C     1.1654154    0.7032615   -2.3110741 
C     1.5617874   -0.6323057   -2.0143928 
C     0.6077597   -1.6853188   -2.0436457 
H     2.5537318   -0.8146686   -1.5828578 
Pd   -0.0300514   -0.0848902   -0.6051959 
P    -1.2560320   -1.2220691    1.0026252 
P    -0.6450091    1.8516612    0.5170486 
H     0.3217449    0.8269816   -3.0070503 
H    -0.2659686   -1.5444317   -2.6993191 
C     3.4961138    4.2830839   -1.7586410 
C     2.3716787    4.2798428   -2.5979922 
C     1.6373500    3.1013527   -2.7855322 
C     2.0074910    1.9020968   -2.1350641 
C     3.1436723    1.9210422   -1.2919553 
C     3.8804537    3.0967167   -1.1105773 
H     4.0726410    5.2019938   -1.6122330 
H     2.0684309    5.1967823   -3.1138669 
H     0.7635977    3.1048381   -3.4472754 
H     3.4424101    1.0151599   -0.7538002 
H     4.7567321    3.0907800   -0.4540638 
C     1.1792501   -5.7801245   -0.8318123 
C     0.0351752   -5.3929893   -1.5451529 
C    -0.1253021   -4.0598111   -1.9449656 
C     0.8481856   -3.0818689   -1.6328034 
C     2.0019535   -3.4917657   -0.9244758 
C     2.1647691   -4.8242493   -0.5312395 
H     1.3097156   -6.8215074   -0.5209956 
H    -0.7302920   -6.1330290   -1.8006117 
H    -1.0119723   -3.7680587   -2.5200172 
H     2.7835676   -2.7657104   -0.6784372 
H     3.0667548   -5.1211904    0.0137112 
C    -2.3371109   -2.7037743    0.6199504 
C    -0.2446166   -2.0760325    2.3438118 
C     0.5587311    3.2310203    0.8971061 
C    -1.9359848    2.9615307   -0.3002123 
C    -2.2813905    0.0571091    1.8998625 
C    -1.4220216    1.3136494    2.1325200 
C    -2.0486873   -3.6940170    1.7729547 
C    -0.5571251   -3.5751120    2.1211263 
C    -0.3080794    4.5076507    0.8147077 
C    -1.2375965    4.3425932   -0.3973059 
C    -3.8149856   -2.3990675    0.3539394 
C     1.2449717   -1.7150110    2.3550180 
C     1.3929341    3.0580129    2.1693487 
C    -2.4841684    2.4298330   -1.6299337 
H    -1.8776116   -3.1160760   -0.2981012 
H    -0.7099280   -1.7590384    3.2978249 
H     1.2370843    3.2207693    0.0235884 
H    -2.7607267    3.0288760    0.4350393 
H    -3.1528630    0.2923783    1.2614536 
H    -2.6653458   -0.3535789    2.8508156 
H    -2.0158507    2.1381891    2.5657417 
H    -0.5983948    1.0929826    2.8357835 
H    -2.3224613   -4.7210014    1.4730375 
H    -2.6682317   -3.4340443    2.6532766 
H    -0.2901498   -4.1601051    3.0188478 
H     0.0553053   -3.9606011    1.2841057 
H     0.3326427    5.4025156    0.7220835 
H    -0.8997556    4.6252040    1.7436532 
H    -1.9887965    5.1489788   -0.4630421 
H    -0.6346598    4.3791073   -1.3241689 
H    -4.3421493   -3.3274143    0.0724673 
H    -4.3146680   -1.9925272    1.2505868 
H    -3.9434719   -1.6788212   -0.4735119 
H     1.4034043   -0.6382783    2.5396680 
H     1.7659185   -2.2763015    3.1505588 
H     1.7158032   -1.9705569    1.3910045 
H     1.9527876    2.1060780    2.1601440 
H     2.1302707    3.8761993    2.2422175 
H     0.7681998    3.0900663    3.0791859 
H    -1.6739441    2.3113382   -2.3706945 
H    -2.9785260    1.4504578   -1.5062170 
H    -3.2245069    3.1352141   -2.0465787 
