73
Energy =
C     1.3163270    0.6584506   -2.2334086 
C     1.6403161   -0.6945694   -1.9272145 
C     0.6547097   -1.7135760   -2.0170584 
H     2.6008919   -0.9162968   -1.4457147 
Pd   -0.0122812   -0.1039176   -0.6066641 
P    -1.3222754   -1.2285879    0.9415168 
P    -0.6730100    1.8390265    0.4783668 
H     0.5236441    0.8273960   -2.9777770 
H    -0.1793044   -1.5381499   -2.7149493 
C     3.8792196    4.0621596   -1.5874570 
C     4.0868854    2.8838082   -0.8503631 
C     3.2649664    1.7697688   -1.0529868 
C     2.2195384    1.8042202   -2.0069295 
C     2.0270682    2.9948922   -2.7437310 
C     2.8464998    4.1122610   -2.5355370 
H     4.5217511    4.9334042   -1.4252443 
H     4.8907588    2.8365077   -0.1084120 
H     3.4230036    0.8706595   -0.4472263 
H     1.2343191    3.0365120   -3.4992702 
H     2.6827826    5.0224255   -3.1217711 
C     1.0406264   -5.8388325   -0.8354299 
C     2.0377728   -4.9173701   -0.4720630 
C     1.9346477   -3.5755624   -0.8534582 
C     0.8307658   -3.1216156   -1.6125885 
C    -0.1546578   -4.0651800   -1.9867758 
C    -0.0541798   -5.4078232   -1.5990413 
H     1.1245811   -6.8877929   -0.5341164 
H     2.9020711   -5.2488188    0.1126116 
H     2.7244905   -2.8772189   -0.5587168 
H    -1.0024972   -3.7389024   -2.6005369 
H    -0.8274825   -6.1208275   -1.9031026 
C    -2.3962536   -2.7058973    0.5239834 
C    -0.3708522   -2.0821705    2.3269947 
C     0.5290552    3.2340073    0.8802768 
C    -1.9553695    2.9188045   -0.3736663 
C    -2.3774180    0.0569840    1.7918191 
C    -1.5316319    1.3156315    2.0595322 
C    -2.1652640   -3.6886580    1.6960312 
C    -0.6884844   -3.5802255    2.1050068 
C    -0.1042611    4.4863303    0.2076828 
C    -1.6350623    4.3247523    0.1906502 
C    -3.8591945   -2.3948180    0.1915763 
C     1.1203498   -1.7341846    2.3945079 
C     0.8130783    3.4059965    2.3815592 
C    -1.8688248    2.8278073   -1.9055841 
H    -1.9001037   -3.1289561   -0.3698445 
H    -0.8700826   -1.7528958    3.2594490 
H     1.4709641    2.9713352    0.3701418 
H    -2.9528477    2.5745758   -0.0451632 
H    -3.2204481    0.2899327    1.1158041 
H    -2.8031648   -0.3489901    2.7269439 
H    -2.1531387    2.1434002    2.4448888 
H    -0.7537749    1.1069842    2.8152774 
H    -2.4357578   -4.7156538    1.3932151 
H    -2.8185904   -3.4159091    2.5476661 
H    -0.4647510   -4.1592649    3.0182793 
H    -0.0458167   -3.9791482    1.2976108 
H     0.2775658    4.5746083   -0.8241650 
H     0.2018245    5.4030860    0.7412007 
H    -2.0336062    4.4140314    1.2188378 
H    -2.1266065    5.1099374   -0.4116053 
H    -4.3788310   -3.3225779   -0.1054368 
H    -4.3952626   -1.9787301    1.0624911 
H    -3.9474906   -1.6805476   -0.6461417 
H     1.2812344   -0.6569661    2.5749344 
H     1.6040024   -2.2922018    3.2154932 
H     1.6273736   -2.0029933    1.4526473 
H     1.2266816    2.4864329    2.8312210 
H     1.5622101    4.2052722    2.5183992 
H    -0.0903816    3.6929320    2.9472605 
H    -0.8710961    3.1210261   -2.2737431 
H    -2.0696186    1.7996380   -2.2538883 
H    -2.6123027    3.5008325   -2.3670948 
