73
Energy =
C     1.2121501    0.7327220   -2.2319427 
C     1.6268061   -0.5955765   -1.9032803 
C     0.7037589   -1.6671400   -1.9781243 
H     2.6063736   -0.7522780   -1.4339691 
Pd   -0.0331181   -0.0541219   -0.5685232 
P    -1.1590641   -1.2154058    1.0975029 
P    -0.8991762    1.8814072    0.3620303 
H     0.4397695    0.8310423   -3.0090046 
H    -0.1742538   -1.5120656   -2.6260593 
C     3.5891400    4.2754196   -1.6108487 
C     3.7595560    3.1632660   -0.7695035 
C     2.9966288    2.0063447   -0.9660396 
C     2.0486529    1.9319629   -2.0146780 
C     1.8934635    3.0565286   -2.8556314 
C     2.6544965    4.2159997   -2.6555734 
H     4.1849655    5.1803658   -1.4547818 
H     4.4876874    3.2006968    0.0475712 
H     3.1213557    1.1567811   -0.2844850 
H     1.1761807    3.0153158   -3.6829592 
H     2.5218041    5.0738983   -3.3228277 
C     1.2977291   -5.8105425   -0.9759644 
C     0.1263122   -5.3849554   -1.6204484 
C    -0.0430544   -4.0332497   -1.9445577 
C     0.9502462   -3.0764331   -1.6273762 
C     2.1327589   -3.5248783   -0.9940907 
C     2.3014441   -4.8753646   -0.6710043 
H     1.4351515   -6.8665675   -0.7228585 
H    -0.6537033   -6.1086711   -1.8782623 
H    -0.9527185   -3.7088320   -2.4632884 
H     2.9327520   -2.8161790   -0.7570341 
H     3.2246781   -5.2036665   -0.1826720 
C    -2.4397491   -2.4896181    0.5776921 
C    -0.2421859   -2.3675940    2.2671564 
C     0.3052845    2.9785652    1.2891498 
C    -1.6712778    3.2824048   -0.6336874 
C    -1.9357725    0.0448789    2.2472725 
C    -2.2685227    1.3589516    1.5273728 
C    -2.2347846   -3.6653724    1.5619443 
C    -0.7283129   -3.7732897    1.8505308 
C    -0.2407740    4.4069551    1.0680577 
C    -0.7270896    4.4833566   -0.3873562 
C    -3.8756944   -1.9757192    0.4333067 
C     1.2740731   -2.1572815    2.3023546 
C     0.5963606    2.5856665    2.7402459 
C    -1.9528861    2.9560653   -2.1033361 
H    -2.0700010   -2.8120009   -0.4138636 
H    -0.6676831   -2.1399645    3.2647472 
H     1.2339975    2.8764082    0.6946645 
H    -2.6299626    3.4814703   -0.1154708 
H    -2.8246356   -0.3859852    2.7411832 
H    -1.1802735    0.2183076    3.0344258 
H    -3.1619730    1.2365189    0.8870963 
H    -2.4883542    2.1717132    2.2432407 
H    -2.6440087   -4.5983586    1.1352674 
H    -2.7873587   -3.4665171    2.5008718 
H    -0.5091756   -4.5077408    2.6454803 
H    -0.1905766   -4.1030233    0.9422906 
H     0.5422227    5.1556295    1.2834194 
H    -1.0796074    4.6033687    1.7646409 
H    -1.2489242    5.4317708   -0.6048766 
H     0.1397489    4.4181475   -1.0713976 
H    -4.5317355   -2.7898419    0.0786042 
H    -4.2825031   -1.6218630    1.3969817 
H    -3.9428803   -1.1503189   -0.2972345 
H     1.5328111   -1.1361436    2.6336711 
H     1.7424759   -2.8694447    3.0040897 
H     1.7138830   -2.3195601    1.3050225 
H     1.0128964    1.5653144    2.8094871 
H     1.3397003    3.2784384    3.1719639 
H    -0.3089426    2.6395099    3.3708496 
H    -1.0174045    2.7322154   -2.6414024 
H    -2.6279484    2.0888908   -2.2074609 
H    -2.4312293    3.8192666   -2.5983110 
