73
Energy =
C     0.8616452    0.8651487   -2.3456209 
C     1.1224390   -0.5376008   -2.2520752 
C     0.0490695   -1.4615171   -2.2495372 
H     2.1370534   -0.8805427   -2.0127015 
Pd   -0.1535359    0.0293935   -0.5547553 
P    -1.1056179   -1.1917140    1.1759314 
P    -0.5191478    1.9166098    0.7362578 
H    -0.0185511    1.1656746   -2.9330202 
H    -0.9013129   -1.1086264   -2.6819711 
C     3.8271827    3.9557609   -1.8545577 
C     2.7185810    4.1554068   -2.6909771 
C     1.7651421    3.1412502   -2.8520634 
C     1.8980188    1.9061513   -2.1790787 
C     3.0228282    1.7187435   -1.3402733 
C     3.9769761    2.7307309   -1.1832308 
H     4.5728615    4.7472730   -1.7290034 
H     2.5985833    5.1028077   -3.2265694 
H     0.9106598    3.3018976   -3.5189521 
H     3.1386718    0.7788064   -0.7881095 
H     4.8396273    2.5662908   -0.5290135 
C     0.1794657   -5.7436214   -1.8361917 
C     1.3558012   -4.9961568   -1.6560111 
C     1.3381012   -3.6040874   -1.7924393 
C     0.1383775   -2.9249993   -2.1085658 
C    -1.0335499   -3.6934946   -2.3053787 
C    -1.0152578   -5.0868993   -2.1681094 
H     0.1988633   -6.8329493   -1.7305647 
H     2.2947095   -5.5042111   -1.4132085 
H     2.2691320   -3.0437916   -1.6593323 
H    -1.9657354   -3.1868656   -2.5814080 
H    -1.9328781   -5.6621222   -2.3286185 
C    -2.6351375   -2.2199904    0.8064374 
C    -0.1579627   -2.5915442    2.0002392 
C     0.9920206    2.7084496    1.5134423 
C    -1.2344654    3.5303100    0.0767471 
C    -1.4535929   -0.0075808    2.5868846 
C    -1.7118209    1.4225786    2.0926676 
C    -2.4190189   -3.5299203    1.6007791 
C    -0.9179569   -3.8598887    1.5538195 
C     0.6427880    4.2126432    1.5661282 
C    -0.0862142    4.5521311    0.2570179 
C    -3.9810831   -1.5196808    1.0182270 
C     1.3497347   -2.5757452    1.7333111 
C     1.4829550    2.0848474    2.8230087 
C    -1.8284709    3.4493280   -1.3325928 
H    -2.5145655   -2.4539068   -0.2681110 
H    -0.3407845   -2.4462791    3.0834982 
H     1.7670109    2.5689231    0.7348050 
H    -2.0386593    3.7797450    0.7965091 
H    -2.2895839   -0.3832338    3.2028957 
H    -0.5472189   -0.0384894    3.2175884 
H    -2.7167083    1.5016178    1.6375110 
H    -1.6694886    2.1536843    2.9205052 
H    -3.0365596   -4.3416565    1.1767991 
H    -2.7434143   -3.3880737    2.6502804 
H    -0.6595694   -4.7129217    2.2056519 
H    -0.6215327   -4.1323947    0.5239839 
H     1.5585780    4.8156206    1.6988809 
H    -0.0120535    4.4186137    2.4355913 
H    -0.4857285    5.5814634    0.2552105 
H     0.6186405    4.4694266   -0.5915386 
H    -4.8048013   -2.1942995    0.7261820 
H    -4.1384936   -1.2476350    2.0767659 
H    -4.0663760   -0.6041935    0.4065900 
H     1.8166432   -1.6473294    2.1067688 
H     1.8368812   -3.4269967    2.2403593 
H     1.5554590   -2.6568390    0.6535663 
H     1.7420982    1.0191309    2.6939550 
H     2.3914986    2.6087894    3.1678040 
H     0.7297173    2.1686710    3.6265412 
H    -1.0534060    3.1841258   -2.0700005 
H    -2.6355112    2.6987439   -1.3937002 
H    -2.2520498    4.4270096   -1.6218605 
