109
Energy =
C     1.3723768   -2.2690017   -1.7768828 
C     2.3255179   -1.7370354   -0.8698363 
C     2.2433768   -2.0145610    0.5156696 
H     3.0710356   -1.0230665   -1.2419363 
Pd    0.3667243   -0.9243631   -0.2429570 
P    -0.1524907    0.2607996    1.7273699 
P    -1.5102179   -0.5183151   -1.6222001 
H     0.8568047   -3.1939499   -1.4781599 
H     1.6438799   -2.8917062    0.8020496 
C     1.5690930   -1.6568413   -6.0289526 
C     1.8963088   -0.6017528   -5.1603987 
C     1.8324312   -0.7865469   -3.7760898 
C     1.4232319   -2.0245754   -3.2311057 
C     1.0863901   -3.0720906   -4.1148091 
C     1.1699592   -2.8929978   -5.5007202 
H     1.6230002   -1.5125664   -7.1129777 
H     2.1992853    0.3694901   -5.5650055 
H     2.0824167    0.0444378   -3.1094332 
H     0.7505438   -4.0317596   -3.7082117 
H     0.9084138   -3.7187714   -6.1700465 
C     5.1211575   -0.9449173    3.5333590 
C     4.0825681   -1.8461708    3.8144676 
C     3.1562129   -2.1790554    2.8197021 
C     3.2319778   -1.6062938    1.5279902 
C     4.2923540   -0.7098584    1.2571362 
C     5.2274308   -0.3895794    2.2473709 
H     5.8527575   -0.6875319    4.3057458 
H     4.0014332   -2.2997004    4.8076348 
H     2.3631579   -2.9028908    3.0363856 
H     4.3968001   -0.2626542    0.2637971 
H     6.0474330    0.2976389    2.0153897 
O    -4.5974132    2.3501375   -1.7111033 
N    -2.9894215    1.9484808   -0.1406222 
N    -3.0291861    3.9842347   -1.2973885 
C    -1.7709254    1.1942417    1.7706017 
C     1.0453337    1.6674091    2.1652991 
C    -0.2222458   -0.8619555    3.2297025 
C    -3.0228388    0.3075909    1.5549319 
C    -3.5562145    0.6305358    0.1472693 
C    -1.8538098    2.3127830    0.6941759 
C     1.8064318    2.1439396    0.9066510 
C     2.0348926    1.3704786    3.3130412 
C    -0.7722371   -2.2731196    2.9143242 
C    -0.9383088   -0.2692491    4.4639545 
C     2.6858801    3.3696274    1.2089231 
C     2.9143798    2.6001968    3.6107807 
C    -0.6173943   -3.2023796    4.1326855 
C    -0.7675158   -1.1968013    5.6821215 
C     3.6619412    3.0900083    2.3611947 
C    -1.2898216   -2.6114779    5.3830717 
C    -3.2487682   -0.4126693   -0.9435972 
C    -3.6051660    2.7527442   -1.0948497 
C    -1.2959147    0.9993695   -2.6300622 
C    -1.8078218   -1.9041973   -2.8031857 
C    -3.5907504    4.9453731   -2.2334897 
C    -0.1032393    1.7362939   -2.4870681 
C    -2.0051810   -3.1867112   -2.2455652 
C    -2.2755047    1.4448382   -3.5436733 
C    -1.8806171   -1.7412192   -4.1975763 
C     0.1167586    2.8948614   -3.2444139 
C    -2.3021777   -4.2799258   -3.0684326 
C    -2.0468829    2.5962391   -4.3075776 
C    -2.1833569   -2.8392750   -5.0176006 
C    -0.8528792    3.3200071   -4.1643253 
C    -2.4013794   -4.1050852   -4.4587406 
H    -1.8016965    1.6538437    2.7722939 
H     0.3849365    2.4928899    2.4999818 
H     0.8503841   -0.9824497    3.4759647 
H    -2.8110207   -0.7674189    1.6693480 
H    -3.7858975    0.5677367    2.3069396 
H    -4.6556914    0.7248827    0.1603256 
H    -2.0140042    3.3006357    1.1689405 
H    -0.9240888    2.3793703    0.0910128 
H     2.4333707    1.3090005    0.5379507 
H     1.0954238    2.3841809    0.0970343 
H     1.4962282    1.0805640    4.2303068 
H     2.6795586    0.5204747    3.0347355 
H    -1.8435739   -2.2084848    2.6458581 
H    -0.2557064   -2.6947375    2.0326016 
H    -0.5574758    0.7414568    4.6973800 
H    -2.0178501   -0.1620798    4.2444295 
H     3.2341768    3.6669054    0.2964103 
H     2.0324692    4.2236495    1.4769781 
H     3.6301019    2.3452004    4.4129485 
H     2.2769039    3.4177285    4.0023892 
H     0.4608031   -3.3547698    4.3374179 
H    -1.0379102   -4.1968658    3.8991396 
H    -1.2929082   -0.7662827    6.5531015 
H     0.3062851   -1.2457532    5.9504736 
H     4.2489885    3.9956906    2.5957992 
H     4.3835369    2.3138211    2.0442602 
H    -2.3849419   -2.5675778    5.2206482 
H    -1.1269988   -3.2726313    6.2524969 
H    -3.8841351   -0.1957730   -1.8200021 
H    -3.5130143   -1.4262010   -0.5936779 
H    -2.1758067    4.2327711   -0.8057465 
H    -3.9701165    5.8440202   -1.7130984 
H    -4.4273012    4.4499159   -2.7481078 
H    -2.8373212    5.2537971   -2.9797610 
H     0.6533556    1.3863712   -1.7749386 
H    -1.9270794   -3.3309759   -1.1600191 
H    -3.2279296    0.9183404   -3.6469698 
H    -1.6801567   -0.7679766   -4.6537073 
H     1.0482558    3.4578205   -3.1221192 
H    -2.4603478   -5.2684471   -2.6247334 
H    -2.8160826    2.9369821   -5.0076009 
H    -2.2337997   -2.7007532   -6.1023511 
H    -0.6829239    4.2197036   -4.7650844 
H    -2.6390098   -4.9577123   -5.1030508 
