109
Energy =
C     1.5345586   -1.3967537   -2.2122692 
C     2.4538918   -0.9250898   -1.2290326 
C     2.4053460   -1.3826994    0.1043805 
H     3.1454856   -0.1184294   -1.5041429 
Pd    0.4255575   -0.3502355   -0.5752845 
P    -0.3154699    0.6451749    1.4361744 
P    -1.6570313   -0.5163508   -1.6929365 
H     1.1440446   -2.4178258   -2.0879705 
H     1.8107730   -2.2889981    0.2957043 
C     1.8736904   -0.0627189   -6.2838916 
C     1.9033480    0.8764940   -5.2401322 
C     1.7661169    0.4583431   -3.9122680 
C     1.5947094   -0.9111821   -3.6064552 
C     1.5390085   -1.8420290   -4.6650004 
C     1.6866701   -1.4217164   -5.9919364 
H     1.9826938    0.2669093   -7.3222786 
H     2.0244035    1.9403697   -5.4652583 
H     1.7564137    1.1991472   -3.1038051 
H     1.3844974   -2.9030559   -4.4427134 
H     1.6455336   -2.1575193   -6.8014238 
C     5.3746615   -0.7531204    3.1523605 
C     4.2380634   -1.5358513    3.4084685 
C     3.2676048   -1.7072259    2.4148461 
C     3.3996216   -1.0876689    1.1483510 
C     4.5447254   -0.2899818    0.9124526 
C     5.5235498   -0.1347961    1.8995200 
H     6.1437349   -0.6295053    3.9213989 
H     4.1163601   -2.0276063    4.3790449 
H     2.3961973   -2.3416354    2.6111600 
H     4.6901539    0.1901099   -0.0600821 
H     6.4102755    0.4723299    1.6910901 
O    -1.2193663    2.8453424   -3.4681162 
N    -1.1127238    2.6854868   -1.1784191 
N     0.6047121    3.7288037   -2.3920812 
C    -1.2825569    2.2196256    1.1321104 
C     1.0617412    1.1506313    2.6157835 
C    -1.4699391   -0.4834753    2.3960550 
C    -2.6721332    1.9885321    0.4833434 
C    -2.4945160    2.1928609   -1.0446224 
C    -0.5646818    3.1159245    0.1015672 
C     0.6206121    1.6306222    4.0165855 
C     2.0394598    2.1665673    1.9808512 
C    -2.4423227    0.1580077    3.4142946 
C    -0.6642945   -1.6485248    3.0192854 
C     1.8383061    1.9163431    4.9181187 
C     3.2478560    2.4332755    2.8953279 
C    -3.3667024   -0.9184497    4.0144519 
C    -1.5894234   -2.6874373    3.6777150 
C     2.8005296    2.9262925    4.2784884 
C    -2.5538384   -2.0387020    4.6824165 
C    -2.7845390    0.9510065   -1.8972559 
C    -0.6176173    3.0881183   -2.4151863 
C    -1.6800116   -1.1892226   -3.4113050 
C    -2.5825443   -1.7929993   -0.7285124 
C     1.1828369    4.2863929   -3.6089236 
C    -1.8888067   -2.5579738   -3.6740973 
C    -1.8629370   -2.9355366   -0.3088708 
C    -1.4750117   -0.2985870   -4.4890140 
C    -3.9538921   -1.7077879   -0.4188725 
C    -1.9269551   -3.0228064   -4.9973227 
C    -2.5044380   -3.9756239    0.3745576 
C    -1.5276872   -0.7721927   -5.8058341 
C    -4.5890341   -2.7379347    0.2919327 
C    -1.7587008   -2.1310131   -6.0654314 
C    -3.8707563   -3.8768563    0.6815041 
H    -1.3766948    2.7332180    2.1033905 
H     1.6202546    0.2030887    2.7400960 
H    -2.0889974   -0.9232068    1.5909328 
H    -3.0867608    0.9901916    0.7007213 
H    -3.3885668    2.7236643    0.8855497 
H    -3.1968928    2.9715059   -1.4025484 
H    -0.7772638    4.1872496    0.3111815 
H     0.5262523    2.9729456    0.1066986 
H     0.0087682    2.5496434    3.9249968 
H    -0.0119484    0.8718446    4.5027292 
H     2.3727639    1.8026816    0.9897244 
H     1.5165564    3.1289681    1.8244518 
H    -1.8860318    0.6469106    4.2313221 
H    -3.0486274    0.9445033    2.9338289 
H    -0.0506965   -2.1289882    2.2335466 
H     0.0372161   -1.2553814    3.7793043 
H     1.4872103    2.2763425    5.9017908 
H     2.3766414    0.9652402    5.0994911 
H     3.9185299    3.1675727    2.4134142 
H     3.8266649    1.5009754    3.0100373 
H    -3.9942870   -1.3490807    3.2090468 
H    -4.0546062   -0.4502304    4.7409992 
H    -0.9781565   -3.4657886    4.1693773 
H    -2.1767181   -3.1908159    2.8884565 
H     3.6774042    3.0873689    4.9304522 
H     2.2941683    3.9073190    4.1802288 
H    -1.9791760   -1.6168103    5.5309755 
H    -3.2288519   -2.8023313    5.1081328 
H    -2.6974042    1.2404842   -2.9531617 
H    -3.8263132    0.6256918   -1.7376379 
H     0.9754796    4.0575255   -1.5044828 
H     2.2492628    4.0133490   -3.6911690 
H     1.0918314    5.3879383   -3.6375501 
H     0.6286497    3.8649249   -4.4599006 
H    -2.0534628   -3.2646546   -2.8552629 
H    -0.7899567   -3.0062582   -0.5227124 
H    -1.2771733    0.7646084   -4.3106670 
H    -4.5456417   -0.8421096   -0.7308877 
H    -2.1066582   -4.0858578   -5.1894526 
H    -1.9339769   -4.8591439    0.6786543 
H    -1.3751129   -0.0702487   -6.6314363 
H    -5.6544210   -2.6522948    0.5291914 
H    -1.8013009   -2.4950488   -7.0971882 
H    -4.3717701   -4.6830983    1.2267398 
