109
Energy =
C     1.4390699   -2.4314249   -1.6910065 
C     2.3996145   -1.8716548   -0.8120275 
C     2.3055015   -2.0823398    0.5886612 
H     3.1499901   -1.1801458   -1.2157295 
Pd    0.4702806   -0.9976291   -0.1971202 
P     0.0316677    0.2173139    1.7733078 
P    -1.3380192   -0.4487014   -1.6149835 
H     0.8996560   -3.3251142   -1.3418219 
H     1.7282862   -2.9627054    0.9083521 
C     1.5949913   -2.0236716   -5.9677755 
C     1.9387217   -0.9307939   -5.1541336 
C     1.8872583   -1.0484006   -3.7618787 
C     1.4761514   -2.2565804   -3.1549198 
C     1.1181786   -3.3414657   -3.9836683 
C     1.1891112   -3.2293312   -5.3773143 
H     1.6398120   -1.9322090   -7.0579637 
H     2.2443920    0.0179276   -5.6071780 
H     2.1450303   -0.1870249   -3.1383378 
H     0.7799875   -4.2781393   -3.5282153 
H     0.9133108   -4.0832725   -6.0042750 
C     5.0307969   -0.6926969    3.6190130 
C     5.1601804   -0.2212722    2.3022586 
C     4.2844850   -0.6586823    1.3022828 
C     3.2611732   -1.5888826    1.5959736 
C     3.1684287   -2.0830634    2.9186524 
C     4.0340835   -1.6332865    3.9219866 
H     5.7151075   -0.3429533    4.3984849 
H     5.9521086    0.4924506    2.0532118 
H     4.4017699   -0.2698218    0.2861912 
H     2.4083350   -2.8358981    3.1543764 
H     3.9393553   -2.0264999    4.9394648 
O    -2.3014056    4.0517117   -1.3019544 
N    -2.7280853    2.1740809   -0.0754481 
N    -4.2402849    2.8779405   -1.7300142 
C    -1.4956240    1.2800952    1.7557673 
C     1.4562693    1.3730196    2.1929813 
C    -0.1586539   -0.8904638    3.2853805 
C    -2.7868750    0.4466366    1.5245772 
C    -3.3330004    0.8629611    0.1417564 
C    -1.4588140    2.3392515    0.6269336 
C     1.1430920    2.4457946    3.2599542 
C     2.0617588    2.0201784    0.9243813 
C    -0.6884565   -2.2988425    2.9229464 
C    -0.9754301   -0.3075086    4.4622733 
C     2.3969645    3.2799400    3.5858041 
C     3.2941867    2.8796216    1.2575094 
C    -0.6399819   -3.2402998    4.1399488 
C    -0.9147255   -1.2474499    5.6821742 
C     2.9741791    3.9384025    2.3237481 
C    -1.4145078   -2.6581216    5.3333119 
C    -3.0821087   -0.1681167   -0.9827487 
C    -3.0530875    3.1094824   -1.0556588 
C    -0.9939189    1.0335305   -2.6360903 
C    -1.7313761   -1.8274126   -2.7758025 
C    -4.7443655    3.8663263   -2.6757500 
C     0.2226030    1.7183318   -2.4451169 
C    -2.0502824   -3.0769564   -2.1999378 
C    -1.9218015    1.5288634   -3.5775044 
C    -1.7387566   -1.6915231   -4.1752084 
C     0.5077544    2.8813938   -3.1708138 
C    -2.4068454   -4.1611436   -3.0111000 
C    -1.6291654    2.6871637   -4.3068037 
C    -2.1005461   -2.7804387   -4.9833356 
C    -0.4189386    3.3666678   -4.1026691 
C    -2.4427867   -4.0106803   -4.4071867 
H    -1.5476474    1.7782628    2.7366778 
H     2.2147553    0.6807786    2.6086458 
H     0.8902846   -1.0043349    3.6217338 
H    -2.6143033   -0.6417532    1.5681200 
H    -3.5259794    0.6889320    2.3048412 
H    -4.4335262    0.9674745    0.2150102 
H    -1.3686899    3.3707350    1.0043461 
H    -0.6103482    2.1816430   -0.0667638 
H     0.3524735    3.1228987    2.8836049 
H     0.7577363    1.9789257    4.1823014 
H     2.3277618    1.2277401    0.1991647 
H     1.3052977    2.6596930    0.4335087 
H    -1.7342563   -2.2204071    2.5675734 
H    -0.1079014   -2.7198510    2.0826213 
H    -0.6089161    0.6937982    4.7434058 
H    -2.0314207   -0.1879520    4.1539916 
H     2.1428205    4.0434917    4.3425542 
H     3.1610065    2.6193686    4.0410853 
H     3.6702208    3.3563656    0.3341506 
H     4.1004553    2.2222365    1.6315574 
H     0.4172045   -3.3980301    4.4327749 
H    -1.0411174   -4.2313052    3.8614858 
H    -1.5102567   -0.8185070    6.5077154 
H     0.1316244   -1.3036917    6.0418573 
H     3.8816965    4.5166389    2.5726448 
H     2.2386035    4.6611126    1.9185763 
H    -2.4919092   -2.6102825    5.0791702 
H    -1.3266121   -3.3248519    6.2093140 
H    -3.6599178    0.1155340   -1.8802073 
H    -3.4578851   -1.1563653   -0.6636565 
H    -4.9265361    2.2635099   -1.2956742 
H    -5.2321685    3.3615961   -3.5271153 
H    -3.8831875    4.4481855   -3.0355518 
H    -5.4656249    4.5648907   -2.2104624 
H     0.9390703    1.3364042   -1.7087771 
H    -2.0167294   -3.2033070   -1.1098324 
H    -2.8800878    1.0251432   -3.7367374 
H    -1.4383763   -0.7497163   -4.6423498 
H     1.4495286    3.4127194   -3.0001770 
H    -2.6580855   -5.1239742   -2.5539950 
H    -2.3577235    3.0690998   -5.0289221 
H    -2.0974338   -2.6646809   -6.0718797 
H    -0.2048914    4.2817305   -4.6637909 
H    -2.7248083   -4.8563658   -5.0427129 
