109
Energy =
C     1.7418568   -0.6538512   -2.3957387 
C     2.5745015   -0.2608193   -1.3060453 
C     2.5984317   -0.9899321   -0.0988890 
H     3.1293661    0.6829121   -1.3848628 
Pd    0.4800545   -0.1570756   -0.6185115 
P    -0.4119348    0.2769219    1.5276253 
P    -1.5502204   -0.4068619   -1.8139500 
H     1.5195868   -1.7266534   -2.4974727 
H     2.1541966   -1.9967856   -0.1196601 
C     1.8624861    1.5324367   -6.0942944 
C     1.8897915    0.1301858   -6.0933896 
C     1.8118959   -0.5737983   -4.8860868 
C     1.7236599    0.1143730   -3.6577209 
C     1.6786773    1.5273209   -3.6705662 
C     1.7473032    2.2278275   -4.8795275 
H     1.9172380    2.0832298   -7.0389564 
H     1.9622529   -0.4191078   -7.0375157 
H     1.8252235   -1.6687511   -4.8911644 
H     1.5543656    2.0742471   -2.7282773 
H     1.7011114    3.3210117   -4.8779068 
C     5.4185377   -0.5596863    3.1205461 
C     4.4138279   -1.5385571    3.1726561 
C     3.4871462   -1.6466918    2.1295894 
C     3.5300041   -0.7695421    1.0187309 
C     4.5408204    0.2207211    0.9894767 
C     5.4784131    0.3158155    2.0232119 
H     6.1552550   -0.4823324    3.9264130 
H     4.3630520   -2.2299715    4.0200298 
H     2.7220833   -2.4302337    2.1624575 
H     4.6166179    0.9045665    0.1385513 
H     6.2632063    1.0773246    1.9731757 
O    -1.6768693    3.2831389   -2.8548503 
N    -1.5255204    2.6668444   -0.6468615 
N    -0.0021328    4.1922355   -1.5757242 
C    -1.6103661    1.7153144    1.5156491 
C     0.8677756    0.7343591    2.8300641 
C    -1.3789971   -1.1864242    2.1991630 
C    -2.9502843    1.4145504    0.7950621 
C    -2.8104988    1.9474708   -0.6551991 
C    -1.0393671    2.8992147    0.7072423 
C     0.3563747    0.8419791    4.2841009 
C     1.6724525    1.9979650    2.4463957 
C    -2.4382968   -0.9232370    3.2956484 
C    -0.4040611   -2.3204483    2.5975529 
C     1.5135061    1.1219099    5.2638668 
C     2.8231229    2.2556126    3.4349070 
C    -3.1877488   -2.2265588    3.6322781 
C    -1.1596459   -3.6001637    2.9980429 
C     2.3031697    2.3786547    4.8739455 
C    -2.2132822   -3.3266713    4.0822746 
C    -2.9003873    0.8736426   -1.7473808 
C    -1.1103470    3.3903629   -1.7606717 
C    -1.4666508   -0.7014215   -3.6338503 
C    -2.2579652   -1.9866594   -1.1653071 
C     0.4687123    5.0760006   -2.6355518 
C    -1.4098477    0.4149960   -4.4981029 
C    -3.6265146   -2.1888096   -0.9011323 
C    -1.4517694   -2.0009390   -4.1789571 
C    -1.3623180   -3.0613176   -0.9598731 
C    -1.3872540    0.2236507   -5.8851701 
C    -4.0874164   -3.4329084   -0.4433938 
C    -1.4165120   -2.1801463   -5.5699836 
C    -1.8274834   -4.3102379   -0.5306125 
C    -1.3962293   -1.0704208   -6.4258817 
C    -3.1933837   -4.4979747   -0.2663445 
H    -1.7795895    2.0018642    2.5669896 
H     1.5688544   -0.1204499    2.7775904 
H    -1.9224077   -1.5381805    1.3014221 
H    -3.2074330    0.3424531    0.7964690 
H    -3.7688929    1.9379105    1.3160969 
H    -3.6288410    2.6622200   -0.8724200 
H    -1.4060316    3.8619837    1.1262152 
H     0.0609663    2.9182503    0.7092835 
H    -0.3934274    1.6538599    4.3613673 
H    -0.1476060   -0.0894199    4.5853784 
H     2.0598882    1.9012511    1.4136628 
H     1.0035055    2.8789412    2.4704151 
H    -1.9630376   -0.5376551    4.2130020 
H    -3.1571239   -0.1532920    2.9682420 
H     0.2777445   -2.5301232    1.7514567 
H     0.2271816   -1.9919427    3.4449376 
H     1.1098627    1.2131714    6.2881898 
H     2.1959924    0.2492851    5.2658983 
H     3.3687437    3.1682285    3.1339525 
H     3.5421850    1.4208182    3.3770196 
H    -3.7419985   -2.5697245    2.7360666 
H    -3.9394557   -2.0273511    4.4168827 
H    -0.4368871   -4.3633242    3.3391111 
H    -1.6618658   -4.0105658    2.1032023 
H     3.1433257    2.5368030    5.5732690 
H     1.6474192    3.2680815    4.9599999 
H    -1.7110044   -3.0092243    5.0177056 
H    -2.7636415   -4.2544599    4.3195036 
H    -2.8673305    1.3824345   -2.7203652 
H    -3.8753356    0.3617192   -1.6851837 
H     0.3189232    4.3833652   -0.6302941 
H     0.1892660    6.1289142   -2.4459056 
H    -0.0057565    4.7495929   -3.5721455 
H     1.5660641    5.0093565   -2.7343659 
H    -1.3867058    1.4355438   -4.0987716 
H    -4.3509122   -1.3832669   -1.0531446 
H    -1.4985096   -2.8792856   -3.5283301 
H    -0.2911261   -2.9131020   -1.1410412 
H    -1.3513911    1.0970989   -6.5435384 
H    -5.1539071   -3.5705101   -0.2375988 
H    -1.4227603   -3.1946228   -5.9824122 
H    -1.1208800   -5.1346354   -0.3906042 
H    -1.3808912   -1.2138047   -7.5112825 
H    -3.5579449   -5.4700137    0.0808012 
