109
Energy =
C     1.3633504   -2.3164019   -1.7217370 
C     2.3366933   -1.7766685   -0.8444568 
C     2.2623654   -2.0058831    0.5523244 
H     3.0958060   -1.0956433   -1.2493294 
Pd    0.4167042   -0.8891614   -0.2091340 
P    -0.0488372    0.3170896    1.7696399 
P    -1.4202998   -0.3957310   -1.6292002 
H     0.8205723   -3.2110152   -1.3808354 
H     1.6558557   -2.8663940    0.8721850 
C     1.5564861   -1.8841809   -5.9947401 
C     1.8808361   -0.7921437   -5.1722600 
C     1.8157158   -0.9172765   -3.7811127 
C     1.4087021   -2.1318861   -3.1847891 
C     1.0722456   -3.2168140   -4.0224290 
C     1.1571912   -3.0970654   -5.4145462 
H     1.6117415   -1.7867982   -7.0839321 
H     2.1826695    0.1614743   -5.6175280 
H     2.0604812   -0.0575854   -3.1501255 
H     0.7399293   -4.1594249   -3.5751925 
H     0.8977002   -3.9509152   -6.0485283 
C     5.2244036   -0.9142896    3.4788797 
C     5.2967824   -0.3722251    2.1848446 
C     4.3327336   -0.6982775    1.2249169 
C     3.2773459   -1.5877948    1.5347825 
C     3.2335490   -2.1451071    2.8345210 
C     4.1893691   -1.8064127    3.7991460 
H     5.9780123   -0.6516309    4.2279672 
H     6.1115259    0.3105609    1.9233922 
H     4.4082145   -0.2582717    0.2257563 
H     2.4428107   -2.8619592    3.0814430 
H     4.1334268   -2.2478039    4.7994870 
O    -2.6243240    4.0403076   -1.2318082 
N    -2.9596053    2.1279073   -0.0286689 
N    -4.5119402    2.7871770   -1.6648714 
C    -1.6646674    1.2434045    1.7600882 
C     1.1497813    1.7225086    2.1986364 
C    -0.1274485   -0.7838639    3.2848092 
C    -2.8960834    0.3352713    1.5038355 
C    -3.4865403    0.7767934    0.1473627 
C    -1.6858194    2.3294034    0.6548449 
C     1.8784689    2.2207953    0.9288442 
C     2.1646669    1.4119481    3.3203032 
C    -0.7157852   -2.1855999    3.0018858 
C    -0.8209340   -0.1510585    4.5121649 
C     2.7689547    3.4388252    1.2297612 
C     3.0522258    2.6368427    3.6132855 
C    -0.5650563   -3.0956842    4.2352671 
C    -0.6587874   -1.0570001    5.7475611 
C     3.7722909    3.1400116    2.3530309 
C    -1.2105774   -2.4672629    5.4817636 
C    -3.1828317   -0.1961258   -1.0126011 
C    -3.3314422    3.0626206   -0.9934011 
C    -1.1221480    1.1134003   -2.6255876 
C    -1.7709474   -1.7598010   -2.8224712 
C    -5.0667458    3.7715298   -2.5868244 
C     0.0925510    1.8051983   -2.4505492 
C    -2.0583601   -3.0314428   -2.2800153 
C    -2.0774124    1.6202340   -3.5324782 
C    -1.7923603   -1.5843832   -4.2172911 
C     0.3473327    2.9897070   -3.1525310 
C    -2.3964293   -4.1002204   -3.1192451 
C    -1.8165967    2.8012028   -4.2371613 
C    -2.1341682   -2.6582664   -5.0536404 
C    -0.6095704    3.4897967   -4.0454934 
C    -2.4447808   -3.9116714   -4.5102396 
H    -1.7511104    1.7220163    2.7494717 
H     0.4903634    2.5379165    2.5581114 
H     0.9438012   -0.9255351    3.5258963 
H    -2.6424404   -0.7375764    1.4858621 
H    -3.6381527    0.4794896    2.3053703 
H    -4.5904031    0.8145544    0.2323640 
H    -1.6297719    3.3551921    1.0522595 
H    -0.8430505    2.2194677   -0.0561463 
H     2.4933282    1.3906955    0.5285138 
H     1.1472421    2.4826212    0.1460466 
H     1.6472108    1.1117883    4.2465741 
H     2.8021564    0.5650661    3.0181008 
H    -1.7895257   -2.0980483    2.7500864 
H    -0.2233231   -2.6362293    2.1206630 
H    -0.4194267    0.8568533    4.7211540 
H    -1.8998229   -0.0270690    4.2969558 
H     3.2944367    3.7486969    0.3081657 
H     2.1240251    4.2896459    1.5251511 
H     3.7845439    2.3710539    4.3968895 
H     2.4247287    3.4506777    4.0277868 
H     0.5123325   -3.2664155    4.4295740 
H    -1.0089328   -4.0855421    4.0261506 
H    -1.1684543   -0.5992597    6.6140383 
H     0.4160285   -1.1212216    6.0084381 
H     4.3684825    4.0402076    2.5858761 
H     4.4833947    2.3651805    2.0089922 
H    -2.3065806   -2.4056244    5.3308159 
H    -1.0503869   -3.1145217    6.3621251 
H    -3.7585979    0.0999372   -1.9071923 
H    -3.5253275   -1.2092407   -0.7370499 
H    -5.1718870    2.1476256   -1.2253749 
H    -5.7907514    4.4492276   -2.0954762 
H    -5.5666088    3.2609530   -3.4274095 
H    -4.2313015    4.3778774   -2.9663393 
H     0.8325495    1.4087656   -1.7451749 
H    -2.0168647   -3.1872067   -1.1940016 
H    -3.0335798    1.1098053   -3.6820085 
H    -1.5202669   -0.6218065   -4.6588336 
H     1.2887165    3.5254927   -2.9937694 
H    -2.6236394   -5.0807371   -2.6878692 
H    -2.5677879    3.1935389   -4.9298410 
H    -2.1414690   -2.5119755   -6.1384938 
H    -0.4205852    4.4221197   -4.5868702 
H    -2.7122849   -4.7453252   -5.1675582 
