109
Energy =
C     1.4131381   -2.4519758   -1.7125932 
C     2.3612409   -1.8800543   -0.8259968 
C     2.2685641   -2.1007735    0.5720075 
H     3.0987043   -1.1710011   -1.2231907 
Pd    0.4071099   -1.0510549   -0.2230730 
P    -0.0749221    0.1590054    1.7349403 
P    -1.4248970   -0.5554205   -1.6231090 
H     0.8957048   -3.3627380   -1.3745908 
H     1.7027910   -2.9903265    0.8866532 
C     1.5701793   -1.9944607   -5.9849496 
C     1.8901576   -0.9041541   -5.1583422 
C     1.8387217   -1.0386268   -3.7676330 
C     1.4515905   -2.2616380   -3.1748670 
C     1.1185099   -3.3443326   -4.0165252 
C     1.1887564   -3.2147734   -5.4087094 
H     1.6140010   -1.8896081   -7.0739540 
H     2.1769987    0.0556298   -5.6003932 
H     2.0783604   -0.1795089   -3.1336929 
H     0.7992028   -4.2929511   -3.5725357 
H     0.9310115   -4.0669612   -6.0455770 
C     4.9538824   -0.6757719    3.6223770 
C     5.0862740   -0.2023691    2.3065915 
C     4.2235188   -0.6508668    1.3001779 
C     3.2102092   -1.5945202    1.5859154 
C     3.1157927   -2.0910272    2.9077632 
C     3.9681098   -1.6302761    3.9175383 
H     5.6282907   -0.3177481    4.4067088 
H     5.8716523    0.5205346    2.0630071 
H     4.3446476   -0.2620189    0.2844784 
H     2.3654701   -2.8554255    3.1374245 
H     3.8721350   -2.0263803    4.9337803 
O    -4.3879806    2.4379168   -1.7441289 
N    -2.8130246    1.9871848   -0.1537322 
N    -2.7640532    4.0148543   -1.3244340 
C    -1.6244489    1.1965843    1.7620418 
C     1.3318520    1.3354413    2.1698133 
C    -0.2397811   -0.9685112    3.2371407 
C    -2.9066397    0.3490569    1.5407039 
C    -3.4262555    0.6902351    0.1318200 
C    -1.6566310    2.3024266    0.6723732 
C     0.9934394    2.4146838    3.2222316 
C     1.9550916    1.9770420    0.9073383 
C    -0.7554190   -2.3793302    2.8627451 
C    -1.0436977   -0.4117985    4.4351001 
C     2.2349315    3.2606156    3.5639702 
C     3.1722123    2.8529068    1.2529912 
C    -0.6781804   -3.3361941    4.0661453 
C    -0.9542405   -1.3691251    5.6397930 
C     2.8263143    3.9159095    2.3068493 
C    -1.4438611   -2.7798221    5.2772729 
C    -3.1614898   -0.3648064   -0.9606407 
C    -3.3877549    2.8071103   -1.1199659 
C    -1.1241250    0.9604787   -2.6127881 
C    -1.7612741   -1.9174994   -2.8194182 
C    -3.2822221    4.9915039   -2.2693560 
C     0.0882474    1.6556597   -2.4291423 
C    -2.0335048   -3.1912036   -2.2733960 
C    -2.0610817    1.4451925   -3.5508696 
C    -1.7823681   -1.7472163   -4.2147925 
C     0.3699697    2.8095422   -3.1732878 
C    -2.3567955   -4.2666605   -3.1096311 
C    -1.7701689    2.5912084   -4.3016061 
C    -2.1096815   -2.8278609   -5.0480717 
C    -0.5560729    3.2716795   -4.1199266 
C    -2.4052797   -4.0832950   -4.5012531 
H    -1.6530873    1.6633021    2.7591851 
H     2.0901166    0.6535978    2.6029025 
H     0.8155150   -1.0739529    3.5556352 
H    -2.7295217   -0.7329703    1.6528239 
H    -3.6628113    0.6317571    2.2911438 
H    -4.5215809    0.8247489    0.1457672 
H    -1.7626379    3.3026250    1.1369907 
H    -0.7287044    2.3139761    0.0644493 
H     0.2052568    3.0845216    2.8267757 
H     0.5923306    1.9535830    4.1406222 
H     2.2405287    1.1820389    0.1930243 
H     1.1990583    2.6027890    0.3964799 
H    -1.8065780   -2.3119389    2.5219983 
H    -0.1801357   -2.7803899    2.0088751 
H    -0.6813037    0.5882983    4.7266256 
H    -2.1057312   -0.2976929    4.1465867 
H     1.9635498    4.0263555    4.3124242 
H     2.9970973    2.6088865    4.0344190 
H     3.5597058    3.3257452    0.3322393 
H     3.9780690    2.2059288    1.6448448 
H     0.3845410   -3.4849255    4.3430959 
H    -1.0708484   -4.3280788    3.7792189 
H    -1.5421374   -0.9587609    6.4800753 
H     0.0979762   -1.4190233    5.9830618 
H     3.7244237    4.5043706    2.5654360 
H     2.0905466    4.6302449    1.8860657 
H    -2.5247927   -2.7400062    5.0375928 
H    -1.3375083   -3.4577555    6.1425128 
H    -3.7802179   -0.1132003   -1.8396643 
H    -3.4785876   -1.3642219   -0.6138676 
H    -1.9114954    4.2379391   -0.8194681 
H    -3.6444735    5.9010857   -1.7556670 
H    -4.1240699    4.5202697   -2.7979349 
H    -2.5076224    5.2776066   -3.0026400 
H     0.8096671    1.2804848   -1.6939985 
H    -1.9924651   -3.3429007   -1.1868978 
H    -3.0275768    0.9521388   -3.6845247 
H    -1.5231361   -0.7831358   -4.6603831 
H     1.3159434    3.3397724   -3.0198000 
H    -2.5739616   -5.2480796   -2.6752045 
H    -2.5060679    2.9619782   -5.0218939 
H    -2.1189257   -2.6845284   -6.1332827 
H    -0.3369625    4.1672211   -4.7108916 
H    -2.6623168   -4.9220194   -5.1562734 
