109
Energy =
C     1.8065076   -1.3199624   -2.3895411 
C     2.5596176   -0.4280822   -1.5910134 
C     2.8678861   -0.6913604   -0.2316892 
H     2.8228214    0.5505568   -2.0127726 
Pd    0.6194402   -0.5652971   -0.5645402 
P    -0.1439995    0.3131949    1.4971413 
P    -1.4591560   -0.6635243   -1.6643284 
H     1.7991792   -2.3833772   -2.1076775 
H     2.8707423   -1.7415782    0.0963442 
C     0.9455242   -0.4532173   -6.5134116 
C     0.9651443    0.5861341   -5.5690532 
C     1.2379317    0.3056858   -4.2273260 
C     1.4849866   -1.0165531   -3.7970878 
C     1.4501159   -2.0537945   -4.7537384 
C     1.1898336   -1.7720309   -6.1002565 
H     0.7317373   -0.2384576   -7.5656424 
H     0.7564711    1.6192045   -5.8649622 
H     1.2245233    1.1263737   -3.5068306 
H     1.6338307   -3.0861478   -4.4388957 
H     1.1688991   -2.5885081   -6.8291836 
C     5.4454958    1.9195409    2.0248582 
C     4.5957377    2.4541065    1.0407261 
C     3.7480444    1.6162769    0.3096893 
C     3.7180308    0.2219680    0.5562750 
C     4.5743139   -0.3005728    1.5488834 
C     5.4373734    0.5386257    2.2675730 
H     6.1136241    2.5753018    2.5921037 
H     4.6029206    3.5311507    0.8397658 
H     3.0964033    2.0436214   -0.4603566 
H     4.5714734   -1.3777597    1.7489067 
H     6.1045582    0.1112139    3.0231287 
O     0.0659576    3.1350593   -3.2419870 
N    -0.2024671    2.5853883   -1.0274339 
N     1.6965661    3.7693275   -1.7555441 
C    -0.9088428    1.9929938    1.1426998 
C     1.1724218    0.7432240    2.7890554 
C    -1.5342109   -0.6367456    2.3220108 
C    -2.1454727    1.9961790    0.2168180 
C    -1.6226000    2.2160075   -1.2298909 
C     0.0929580    2.8724482    0.3789494 
C     1.5700807   -0.4935148    3.6291251 
C     0.8802203    1.9673835    3.6904773 
C    -2.0853568    0.0068382    3.6145350 
C    -1.1942831   -2.1342921    2.5213483 
C     2.7130282   -0.1887846    4.6141436 
C     2.0592446    2.2426317    4.6440444 
C    -3.2828870   -0.7911240    4.1624675 
C    -2.3839231   -2.9068732    3.1199848 
C     2.3844351    1.0154947    5.5067148 
C    -2.8973377   -2.2566933    4.4136940 
C    -1.8310119    1.0569631   -2.2361878 
C     0.4862930    3.1850747   -2.0815833 
C    -1.5301215   -1.7031577   -3.1893716 
C    -3.0184310   -1.2966202   -0.8775796 
C     2.4700843    4.4711970   -2.7773270 
C    -1.1624477   -3.0608190   -3.0786783 
C    -3.0282561   -2.6216298   -0.3940523 
C    -2.0309853   -1.2259198   -4.4142284 
C    -4.2246379   -0.5658785   -0.8655465 
C    -1.3369394   -3.9354709   -4.1570020 
C    -4.2126163   -3.2041498    0.0737336 
C    -2.1822211   -2.1017438   -5.4998230 
C    -5.4038950   -1.1413885   -0.3687881 
C    -1.8535893   -3.4575589   -5.3707854 
C    -5.4039966   -2.4633469    0.0958855 
H    -1.1608038    2.4368649    2.1176742 
H     2.0456635    1.0044594    2.1625282 
H    -2.3328021   -0.5954149    1.5538660 
H    -2.7523047    1.0842921    0.3156801 
H    -2.7978694    2.8368630    0.5065652 
H    -2.1413099    3.0786530   -1.6892440 
H    -0.0753214    3.9441527    0.6241675 
H     1.1429568    2.6256830    0.6151328 
H     0.6964853   -0.8343593    4.2131687 
H     1.8550488   -1.3257516    2.9584156 
H     0.7041077    2.8688298    3.0786434 
H    -0.0359447    1.8001377    4.2853339 
H    -1.2933713    0.0281679    4.3854679 
H    -2.3823750    1.0550817    3.4310729 
H    -0.8903386   -2.5715498    1.5522384 
H    -0.3293261   -2.2412828    3.1961537 
H     2.9134516   -1.0878584    5.2243547 
H     3.6344609    0.0273123    4.0467370 
H     1.8179773    3.1152686    5.2772744 
H     2.9502749    2.5156767    4.0446307 
H    -4.1151699   -0.7484741    3.4321999 
H    -3.6473809   -0.3162430    5.0908772 
H    -2.0858369   -3.9556267    3.3000350 
H    -3.2078869   -2.9286629    2.3851137 
H     3.2304548    1.2333654    6.1826136 
H     1.5155107    0.7785932    6.1526876 
H    -2.1111409   -2.3004486    5.1936814 
H    -3.7624694   -2.8204618    4.8056382 
H    -1.1721274    1.2500043   -3.0989378 
H    -2.8670905    1.0920498   -2.6158325 
H     1.8571268    4.0461939   -0.7894455 
H     2.1557838    5.5256040   -2.8908165 
H     2.3142390    3.9603634   -3.7383766 
H     3.5391654    4.4370863   -2.5120106 
H    -0.7265610   -3.4356467   -2.1457010 
H    -2.1069812   -3.2114854   -0.3897933 
H    -2.3027794   -0.1747762   -4.5410696 
H    -4.2667558    0.4554190   -1.2550223 
H    -1.0555358   -4.9886174   -4.0537882 
H    -4.2024764   -4.2401956    0.4270536 
H    -2.5628577   -1.7160419   -6.4510137 
H    -6.3289261   -0.5555940   -0.3647604 
H    -1.9856236   -4.1379821   -6.2181745 
H    -6.3281119   -2.9168799    0.4680145 
