73
Energy =
C     1.1354131   -0.5153912   -2.3712811 
C     1.3745171    0.8564267   -2.0607950 
C     2.2341408    1.2010988   -0.9859423 
H     0.7591909    1.6323489   -2.5329838 
Pd    0.5384841   -0.1050585   -0.2718134 
P     0.1323690    0.5663099    1.9140945 
P    -0.9475959   -1.8376831    0.1484530 
H     1.9539760   -1.2193962   -2.1589422 
H     2.9889775    0.4512362   -0.7003470 
C    -1.8322898   -2.0621730   -5.0836432 
C    -1.9624678   -0.7561730   -4.5810367 
C    -0.9982386   -0.2336160   -3.7119859 
C     0.1263713   -1.0036383   -3.3315565 
C     0.2470474   -2.3128986   -3.8504705 
C    -0.7225629   -2.8378438   -4.7152925 
H    -2.5899820   -2.4697204   -5.7604164 
H    -2.8256652   -0.1444959   -4.8632887 
H    -1.1342802    0.7743684   -3.3054054 
H     1.1144370   -2.9223272   -3.5721847 
H    -0.6077546   -3.8536140   -5.1076048 
C     3.1211717    5.1269939    0.5440411 
C     3.8913485    4.0161636    0.9192177 
C     3.5901680    2.7482831    0.4061396 
C     2.5120222    2.5613308   -0.4902349 
C     1.7531445    3.6936555   -0.8687336 
C     2.0547341    4.9598948   -0.3560288 
H     3.3543855    6.1197075    0.9418768 
H     4.7328369    4.1380689    1.6089048 
H     4.2036428    1.8862416    0.6928793 
H     0.9203830    3.5875768   -1.5714262 
H     1.4570182    5.8244221   -0.6628013 
C    -2.3375576   -2.2811493   -1.0208058 
C    -0.2468145   -3.5885827    0.2615671 
C     1.4510760    1.3263753    3.0177867 
C    -1.1375723    1.9500672    2.1205120 
C    -1.7047180   -1.5113500    1.8287750 
C    -0.6549929   -0.8963988    2.7734511 
C    -2.4816376   -3.8106269   -0.8560794 
C    -1.0603914   -4.3901952   -0.7877473 
C     1.0015559    2.8093561    3.0878559 
C    -0.5299010    2.8358243    3.2394314 
C    -3.6204459   -1.4576679   -0.8786223 
C     1.2742265   -3.6846722    0.0947953 
C     1.5984005    0.6556391    4.3938119 
C    -1.3958664    2.7063896    0.8074994 
H    -1.8982102   -2.0840072   -2.0167610 
H    -0.5253360   -3.9385155    1.2740847 
H     2.4055537    1.2472448    2.4699506 
H    -2.0791436    1.4807343    2.4591358 
H    -2.5412880   -0.8055019    1.6748916 
H    -2.1302945   -2.4411860    2.2459710 
H    -1.1108803   -0.5820566    3.7287793 
H     0.1418853   -1.6257332    3.0066990 
H    -3.0582850   -4.2360153   -1.6966301 
H    -3.0403617   -4.0415727    0.0720145 
H    -1.0571581   -5.4651396   -0.5360609 
H    -0.5780830   -4.2831967   -1.7774631 
H     1.2974291    3.3272959    2.1572655 
H     1.5106444    3.3275574    3.9195669 
H    -0.8172571    2.4390252    4.2299610 
H    -0.9285256    3.8638731    3.1781768 
H    -4.3266985   -1.7318448   -1.6813157 
H    -4.1243402   -1.6432849    0.0860745 
H    -3.4190023   -0.3754755   -0.9680485 
H     1.8083661   -3.1001085    0.8639804 
H     1.6001824   -4.7363765    0.1780381 
H     1.5861886   -3.3109202   -0.8957548 
H     1.8826455   -0.4067695    4.3070777 
H     2.3936864    1.1669709    4.9642400 
H     0.6708366    0.7149649    4.9887897 
H    -0.4765091    3.1913680    0.4390547 
H    -1.7595325    2.0251256    0.0177828 
H    -2.1568165    3.4904376    0.9668765 
