73
Energy =
C     1.1704617   -0.5480126   -2.3073194 
C     1.3087560    0.8510936   -2.0463856 
C     2.1314958    1.2990596   -0.9843397 
H     0.6469673    1.5609217   -2.5590550 
Pd    0.5173064   -0.1034335   -0.2309143 
P    -0.0230450    0.7193012    1.8720110 
P    -0.7822021   -1.9473135    0.2883573 
H     2.0456043   -1.1794676   -2.0942091 
H     2.9096138    0.5990469   -0.6392366 
C    -1.6405896   -2.2612238   -5.0913559 
C    -1.9428767   -1.0482722   -4.4502141 
C    -1.0347042   -0.4812400   -3.5487077 
C     0.2024403   -1.1111763   -3.2723409 
C     0.4943232   -2.3269446   -3.9301033 
C    -0.4175858   -2.8965171   -4.8287261 
H    -2.3528512   -2.7050733   -5.7941719 
H    -2.8945718   -0.5448578   -4.6502961 
H    -1.2969301    0.4509105   -3.0347790 
H     1.4530278   -2.8235431   -3.7434838 
H    -0.1688270   -3.8371906   -5.3308223 
C     2.8078611    5.3218771    0.3877790 
C     3.5694236    4.2528844    0.8837865 
C     3.3386775    2.9528911    0.4172968 
C     2.3388030    2.6909103   -0.5493412 
C     1.5924793    3.7820559   -1.0521514 
C     1.8242918    5.0805520   -0.5865979 
H     2.9865087    6.3399682    0.7478905 
H     4.3503987    4.4332397    1.6295992 
H     3.9479968    2.1237558    0.7955012 
H     0.8285400    3.6196405   -1.8193727 
H     1.2379882    5.9126161   -0.9897161 
C    -2.4328852   -2.0819825   -0.5895331 
C    -0.2719788   -3.7317175   -0.0375354 
C     1.3770108    1.0814873    3.0731531 
C    -0.8487445    2.3978396    2.0668746 
C    -1.0763912   -1.9005256    2.1369835 
C    -1.2489641   -0.4650412    2.6520749 
C    -2.6635232   -3.6036971   -0.7253009 
C    -1.3068143   -4.2357526   -1.0719856 
C     0.9589164    2.4004733    3.7652143 
C     0.2476971    3.2708985    2.7159993 
C    -3.5866660   -1.2769278    0.0148982 
C     1.1963593   -3.9266368   -0.4267658 
C     1.7766296   -0.0686913    4.0028817 
C    -1.4790790    2.9445074    0.7829976 
H    -2.2044017   -1.6837659   -1.5973246 
H    -0.4640123   -4.2444735    0.9254252 
H     2.2218938    1.3095199    2.3963575 
H    -1.6419743    2.2272155    2.8216758 
H    -1.9425721   -2.5346978    2.3996472 
H    -0.1801167   -2.3695804    2.5841190 
H    -2.2435592   -0.0734023    2.3728760 
H    -1.1796515   -0.4159080    3.7532053 
H    -3.4261736   -3.8097877   -1.4972594 
H    -3.0467752   -4.0148316    0.2293102 
H    -1.3459168   -5.3392210   -1.0681317 
H    -0.9994267   -3.9191607   -2.0862688 
H     1.8428353    2.9053501    4.1938772 
H     0.2706518    2.1798012    4.6043405 
H    -0.1963803    4.1785983    3.1611693 
H     0.9689834    3.6023002    1.9461360 
H    -4.4936692   -1.4048527   -0.6014410 
H    -3.8329250   -1.6149327    1.0372222 
H    -3.3561893   -0.1972943    0.0473657 
H     1.8798248   -3.5418742    0.3499217 
H     1.4118068   -5.0004144   -0.5663812 
H     1.4229021   -3.4094060   -1.3732620 
H     2.0757606   -0.9678102    3.4357569 
H     2.6361246    0.2342985    4.6260673 
H     0.9556209   -0.3455990    4.6873901 
H    -1.9357441    3.9318196    0.9717769 
H    -0.7180554    3.0642148   -0.0052178 
H    -2.2692095    2.2732019    0.4031082 
