73
Energy =
C     1.2201711   -0.5506555   -2.3246911 
C     1.4018825    0.8364266   -2.0572144 
C     2.2082706    1.2555132   -0.9645257 
H     0.7717199    1.5699525   -2.5751539 
Pd    0.5509621   -0.0799921   -0.2526581 
P     0.1268720    0.6456482    1.9096479 
P    -0.9968227   -1.7569224    0.1713709 
H     2.0433150   -1.2228264   -2.0381529 
H     3.0015730    0.5639423   -0.6397899 
C    -1.5805823   -2.3168648   -5.0794920 
C    -0.4868974   -3.0513603   -4.5966560 
C     0.4286748   -2.4550139   -3.7195528 
C     0.2686732   -1.1139896   -3.3018069 
C    -0.8387333   -0.3860580   -3.7976395 
C    -1.7485950   -0.9802080   -4.6791648 
H    -2.2960955   -2.7799157   -5.7663929 
H    -0.3422593   -4.0908517   -4.9087352 
H     1.2839675   -3.0330358   -3.3511644 
H    -1.0050641    0.6471490   -3.4747256 
H    -2.5989759   -0.3999073   -5.0520286 
C     2.7369492    5.2656235    0.5197648 
C     3.5667644    4.2214556    0.9542738 
C     3.3902721    2.9271083    0.4478281 
C     2.3748257    2.6446520   -0.4958894 
C     1.5556084    3.7116490   -0.9333113 
C     1.7365563    5.0050839   -0.4323611 
H     2.8742835    6.2788568    0.9103821 
H     4.3612446    4.4168049    1.6819412 
H     4.0557609    2.1199587    0.7758240 
H     0.7695583    3.5341659   -1.6744570 
H     1.0934647    5.8173182   -0.7865473 
C    -2.3232819   -2.2471063   -1.0519079 
C    -0.3394710   -3.5076268    0.4328121 
C     1.4593034    1.2754087    3.0666712 
C    -0.9755443    2.1669144    2.0560785 
C    -1.8435055   -1.3127070    1.7801345 
C    -0.8124383   -0.7267435    2.7623460 
C    -2.5002560   -3.7635055   -0.8128423 
C    -1.0952868   -4.3554770   -0.6230698 
C     0.8253392    2.5161620    3.7389917 
C    -0.0356229    3.2245138    2.6821988 
C    -3.5997921   -1.4020994   -1.0270493 
C     1.1878633   -3.6303152    0.3733909 
C     2.0626638    0.2355191    4.0165317 
C    -1.6604036    2.5931053    0.7528573 
H    -1.8260570   -2.1105641   -2.0304385 
H    -0.6909315   -3.7965246    1.4419223 
H     2.2421695    1.6343535    2.3723458 
H    -1.7434486    1.8924928    2.8058650 
H    -2.6221345   -0.5640943    1.5456798 
H    -2.3513374   -2.1976920    2.2031947 
H    -1.2959598   -0.3503126    3.6815483 
H    -0.0776623   -1.4963660    3.0625830 
H    -3.0300828   -4.2281351   -1.6633256 
H    -3.1188680   -3.9357063    0.0896440 
H    -1.1242918   -5.4153547   -0.3153527 
H    -0.5492658   -4.3074121   -1.5840048 
H     1.6127256    3.1776311    4.1416787 
H     0.1964701    2.1984840    4.5934390 
H    -0.6240599    4.0546532    3.1112521 
H     0.6136191    3.6544775    1.8961638 
H    -4.2676219   -1.7164431   -1.8477451 
H    -4.1552289   -1.5227528   -0.0804452 
H    -3.3783910   -0.3297478   -1.1710579 
H     1.6779635   -3.0164695    1.1491687 
H     1.4922580   -4.6805715    0.5268372 
H     1.5708814   -3.3061803   -0.6100964 
H     2.4869472   -0.6243946    3.4684266 
H     2.8794841    0.6940565    4.6009451 
H     1.3137648   -0.1434905    4.7336945 
H    -0.9120703    2.8154610   -0.0263025 
H    -2.3334918    1.8071721    0.3684148 
H    -2.2622915    3.5036807    0.9198999 
