73
Energy =
C     1.2203965   -0.7547682   -2.2215253 
C     1.5509522    0.6119086   -1.9610176 
C     2.3624998    0.9480311   -0.8502809 
H     1.0377234    1.4045887   -2.5201495 
Pd    0.5114697   -0.1840428   -0.1951224 
P    -0.0374408    0.7478327    1.8600922 
P    -1.0809593   -1.8047263    0.2497880 
H     1.9753906   -1.5065941   -1.9480751 
H     3.0019920    0.1443437   -0.4504789 
C    -1.6340269   -2.0708801   -5.1726409 
C    -0.5418627   -2.8798227   -4.8242158 
C     0.3862960   -2.4393875   -3.8712251 
C     0.2417784   -1.1816703   -3.2440072 
C    -0.8644058   -0.3762833   -3.6069198 
C    -1.7885431   -0.8149154   -4.5623077 
H    -2.3585351   -2.4137050   -5.9181881 
H    -0.4073378   -3.8558165   -5.3018818 
H     1.2435719   -3.0726908   -3.6169704 
H    -1.0138286    0.5940987   -3.1192212 
H    -2.6374522   -0.1766406   -4.8289934 
C     3.5512097    4.8444057    0.5387966 
C     2.6105275    4.7386832   -0.4999310 
C     2.2151922    3.4826844   -0.9720477 
C     2.7499074    2.2995737   -0.4110450 
C     3.7102013    2.4231192    0.6211343 
C     4.1050243    3.6807434    1.0937295 
H     3.8587203    5.8295486    0.9035543 
H     2.1869605    5.6431570   -0.9483840 
H     1.4897361    3.4251235   -1.7899199 
H     4.1585384    1.5176319    1.0464074 
H     4.8522346    3.7530213    1.8906645 
C    -2.6708291   -1.7102881   -0.7386951 
C    -0.8214884   -3.6509016   -0.0242555 
C     1.3154953    0.9169700    3.1542175 
C    -0.6114077    2.5345645    1.9836858 
C    -1.4888210   -1.6791785    2.0728964 
C    -1.4788292   -0.2240366    2.5611950 
C    -3.1161470   -3.1833612   -0.8761786 
C    -1.8486632   -4.0161064   -1.1226610 
C     1.0558539    2.2964273    3.8046763 
C     0.5575037    3.2444417    2.7013794 
C    -3.7294098   -0.7316391   -0.2225361 
C     0.6240808   -4.0685285   -0.3100487 
C     1.4712833   -0.2625678    4.1192017 
C    -1.0625131    3.1466657    0.6545985 
H    -2.3191929   -1.3697517   -1.7320956 
H    -1.1511738   -4.1112573    0.9279269 
H     2.2296573    1.0024099    2.5371146 
H    -1.4710711    2.4987743    2.6820514 
H    -2.4559292   -2.1722167    2.2804471 
H    -0.7051498   -2.2673715    2.5859944 
H    -2.3812858    0.3062498    2.2078642 
H    -1.4789949   -0.1638831    3.6638666 
H    -3.8475000   -3.2889023   -1.6970894 
H    -3.6195966   -3.5148436    0.0533913 
H    -2.0520620   -5.1012940   -1.1113490 
H    -1.4302682   -3.7684550   -2.1163482 
H     1.9747866    2.6705763    4.2901080 
H     0.2868183    2.1972529    4.5954799 
H     0.2267274    4.2166741    3.1072012 
H     1.3712096    3.4496385    1.9813471 
H    -4.6019584   -0.7353744   -0.8989711 
H    -4.0913574   -1.0095693    0.7833529 
H    -3.3430317    0.3021960   -0.1839296 
H     1.3043169   -3.7737422    0.5077795 
H     0.6860891   -5.1649780   -0.4239377 
H     0.9872598   -3.6093987   -1.2438676 
H     1.6691004   -1.2070288    3.5821344 
H     2.3217653   -0.0810016    4.7994731 
H     0.5724704   -0.3998484    4.7457284 
H    -1.3779472    4.1942031    0.8036502 
H    -0.2395781    3.1378380   -0.0785271 
H    -1.9161429    2.5940911    0.2241105 
