77
Energy =
C     1.2773835   -1.2346038   -2.0397884 
C     2.0535287   -0.1696823   -1.5295658 
C     2.6148020   -0.2367625   -0.2176597 
H     2.1090211    0.7715502   -2.0911946 
Pd    0.3957908   -0.3936045   -0.0967427 
P     0.0562142    0.0827301    2.1597629 
P    -1.9388090   -0.4385431   -0.2732669 
H     1.4235783   -2.2204951   -1.5703895 
H     2.8874755   -1.2358966    0.1521230 
C    -0.5583645   -1.4772295   -5.9217923 
C    -0.2348232   -0.2180296   -5.3863877 
C     0.3655428   -0.1186623   -4.1277776 
C     0.6496777   -1.2792620   -3.3710232 
C     0.3249855   -2.5391081   -3.9254151 
C    -0.2703161   -2.6379482   -5.1890462 
H    -1.0282460   -1.5503929   -6.9077477 
H    -0.4528578    0.6909052   -5.9566235 
H     0.6004855    0.8708405   -3.7237611 
H     0.5486129   -3.4492542   -3.3572819 
H    -0.5095698   -3.6229831   -5.6024079 
C     4.6869797    3.0145877    1.7127945 
C     3.7351167    3.2857595    0.7157967 
C     3.0646873    2.2374871    0.0766137 
C     3.3314037    0.8901840    0.4161875 
C     4.3055053    0.6334523    1.4076401 
C     4.9730904    1.6832601    2.0515228 
H     5.2078315    3.8358086    2.2153894 
H     3.5107457    4.3213216    0.4394335 
H     2.3079339    2.4694228   -0.6807417 
H     4.5469934   -0.4022971    1.6683966 
H     5.7257982    1.4605434    2.8148990 
C    -1.7896505    0.1804242    2.4759562 
C    -2.5896783   -0.6579996    1.4654674 
C     0.6326249   -1.2507902    3.3437318 
C     0.7544850    1.7048915    2.7681629 
C    -2.5711509    1.2743877   -0.7235042 
C    -2.8802035   -1.7468061   -1.2275465 
C     2.1647732   -1.3446101    3.3918826 
C    -0.0043088   -2.6065862    2.9865019 
C     0.5504527    1.9526774    4.2723487 
C     0.2053566    2.8559079    1.9039219 
C    -4.1038185    1.3759850   -0.8175577 
C    -1.8491919    1.8467857   -1.9568016 
C    -2.2255416   -3.1141365   -0.9484300 
C    -2.9678457   -1.4599922   -2.7365475 
H    -2.0020560   -0.1339352    3.5132656 
H    -2.0727716    1.2450383    2.4023176 
H    -2.5061829   -1.7339251    1.6938251 
H    -3.6639988   -0.4029881    1.4998765 
H     0.2571897   -0.9294746    4.3346383 
H     1.8359001    1.6088648    2.5540190 
H    -2.2380271    1.8657815    0.1520066 
H    -3.9011605   -1.7387758   -0.7977605 
H     2.4654148   -2.0725104    4.1657873 
H     2.5640248   -1.6970419    2.4261148 
H     2.6431323   -0.3802845    3.6299827 
H    -1.1017954   -2.5944463    3.0930076 
H     0.3823201   -3.3883526    3.6634252 
H     0.2428098   -2.9004953    1.9495117 
H     0.9962512    2.9248722    4.5477866 
H    -0.5213588    1.9925345    4.5374769 
H     1.0340335    1.1806127    4.8938690 
H     0.2857759    2.6271568    0.8268386 
H     0.7845361    3.7743243    2.0993514 
H    -0.8527347    3.0734048    2.1373534 
H    -4.3949200    2.4350401   -0.9338769 
H    -4.4984738    0.8266069   -1.6881754 
H    -4.6080548    0.9934621    0.0864771 
H    -0.7546832    1.8326646   -1.8100455 
H    -2.1619359    2.8932331   -2.1199393 
H    -2.0758952    1.2775814   -2.8728814 
H    -2.8126925   -3.9150658   -1.4307860 
H    -1.2021979   -3.1432001   -1.3609014 
H    -2.1675862   -3.3452370    0.1294934 
H    -3.4609965   -2.3104736   -3.2389254 
H    -3.5598536   -0.5577618   -2.9559266 
H    -1.9705137   -1.3404470   -3.1867379 
