77
Energy =
C     1.1574087   -0.9308926   -2.3558417 
C     2.0850222   -0.0653826   -1.7070201 
C     2.6789458   -0.4129846   -0.4678187 
H     2.2106353    0.9553156   -2.0891209 
Pd    0.4222602   -0.4007519   -0.3052686 
P     0.0058674    0.3156467    1.8748415 
P    -1.8792731   -0.7396785   -0.4645928 
H     1.2823726   -2.0125176   -2.1967130 
H     2.7403558   -1.4860820   -0.2267924 
C    -1.1241180    0.1171289   -5.8619010 
C    -0.8537262   -1.2259522   -5.5592654 
C    -0.0972138   -1.5546832   -4.4270850 
C     0.3999347   -0.5499740   -3.5667541 
C     0.1290632    0.8001242   -3.8931939 
C    -0.6216435    1.1289928   -5.0267178 
H    -1.7153318    0.3753027   -6.7462679 
H    -1.2266445   -2.0217442   -6.2123872 
H     0.1190802   -2.6057584   -4.2075083 
H     0.4888119    1.6029347   -3.2409328 
H    -0.8211518    2.1805817   -5.2581063 
C     5.2612539    2.0420170    1.9527934 
C     5.1221806    0.6698196    2.2119638 
C     4.2945949   -0.1166984    1.4018760 
C     3.5780660    0.4493577    0.3213650 
C     3.7472159    1.8292677    0.0603421 
C     4.5775934    2.6142803    0.8670387 
H     5.9083876    2.6599187    2.5834433 
H     5.6668565    0.2090284    3.0424638 
H     4.2026053   -1.1896686    1.6024843 
H     3.2196264    2.3006760   -0.7746657 
H     4.6939902    3.6807046    0.6474550 
C    -1.7621096    0.9072734    1.8362467 
C    -2.6611973   -0.1205161    1.1270857 
C     0.0574758   -1.0687013    3.1421396 
C     1.0355469    1.7707656    2.4337504 
C    -2.7040552    0.2200422   -1.8403666 
C    -2.4618304   -2.5138158   -0.6047323 
C    -0.7679621   -0.8528417    4.4228286 
C     1.5191644   -1.4607515    3.4237195 
C     0.8035037    2.2462123    3.8780192 
C     0.8579729    2.9156487    1.4159896 
C    -2.4144649    1.7217812   -1.6574532 
C    -4.2054703   -0.0677435   -2.0052277 
C    -1.8701264   -3.3727362    0.5276186 
C    -2.1047932   -3.0988708   -1.9810248 
H    -2.1286349    1.1299823    2.8535678 
H    -1.7504112    1.8579306    1.2761714 
H    -2.8274167   -1.0001184    1.7733090 
H    -3.6563089    0.3054841    0.9082991 
H    -0.4045629   -1.9009323    2.5780951 
H     2.0706784    1.3907175    2.3398420 
H    -2.1653222   -0.1230762   -2.7438826 
H    -3.5629894   -2.4756889   -0.4932526 
H    -0.7216076   -1.7689130    5.0385548 
H    -0.3849498   -0.0214325    5.0351383 
H    -1.8321633   -0.6589488    4.2059330 
H     2.0593782   -1.6751506    2.4865963 
H     1.5491441   -2.3678255    4.0521930 
H     2.0649347   -0.6632802    3.9568918 
H     1.4285672    3.1362408    4.0709641 
H    -0.2481069    2.5341251    4.0534812 
H     1.0843853    1.4803814    4.6182762 
H     0.9280944    2.5499305    0.3757581 
H     1.6512000    3.6673919    1.5651828 
H    -0.1151624    3.4227454    1.5419520 
H    -2.7061835    2.2702658   -2.5694891 
H    -2.9901678    2.1448343   -0.8144580 
H    -1.3410370    1.9087254   -1.4764444 
H    -4.4083022   -1.1265908   -2.2361413 
H    -4.6023857    0.5346536   -2.8415895 
H    -4.7793083    0.2064842   -1.1017814 
H    -2.2122210   -4.4168054    0.4201063 
H    -0.7652909   -3.3706260    0.4860604 
H    -2.1814094   -3.0292065    1.5289543 
H    -2.5152287   -4.1200980   -2.0676506 
H    -2.5021167   -2.5020704   -2.8182634 
H    -1.0097749   -3.1632042   -2.0990810 
