77
Energy =
C     1.3079642   -1.1559022   -2.1690180 
C     2.1170269   -0.1315654   -1.6162533 
C     2.6580233   -0.2692407   -0.3041378 
H     2.1975480    0.8298220   -2.1390919 
Pd    0.4387620   -0.3605929   -0.2173874 
P     0.1897281    0.1723923    2.0395535 
P    -1.8835724   -0.5912882   -0.2583102 
H     1.4588654   -2.1706867   -1.7688651 
H     2.8456276   -1.2957668    0.0468152 
C    -0.6132091   -1.1161060   -6.0186367 
C    -0.3308320    0.0996417   -5.3714640 
C     0.2987393    0.1052791   -4.1231276 
C     0.6565104   -1.1074984   -3.4902616 
C     0.3705881   -2.3221515   -4.1547411 
C    -0.2552444   -2.3267531   -5.4077467 
H    -1.1075961   -1.1166594   -6.9953073 
H    -0.6068467    1.0478965   -5.8443224 
H     0.4941298    1.0602793   -3.6246048 
H     0.6462541   -3.2712728   -3.6811120 
H    -0.4645083   -3.2779198   -5.9077768 
C     4.7699972    2.7354881    1.9511508 
C     4.0198875    3.1112641    0.8237187 
C     3.3460366    2.1460845    0.0680911 
C     3.4053904    0.7778497    0.4214647 
C     4.1886346    0.4125678    1.5415303 
C     4.8584199    1.3798078    2.3019947 
H     5.2927862    3.4937906    2.5426292 
H     3.9586454    4.1653776    0.5337547 
H     2.7550867    2.4641955   -0.7969200 
H     4.2823641   -0.6467434    1.8082207 
H     5.4597107    1.0731451    3.1641270 
C    -1.6207924    0.0104510    2.4894546 
C    -2.3679879   -0.9222061    1.5196026 
C     1.1312574   -1.0725888    3.0764953 
C     0.6935106    1.9137106    2.5093428 
C    -2.7357128    1.0438415   -0.6183939 
C    -2.7374970   -1.9705032   -1.1929548 
C     0.6726443   -2.4949838    2.6953072 
C     1.1153010   -0.8563912    4.5983894 
C     0.2001870    2.4049470    3.8832660 
C     0.2415132    2.8762108    1.3927574 
C    -4.2724958    0.9635560   -0.6259175 
C    -2.1539667    1.7279766   -1.8687580 
C    -1.9448857   -3.2750104   -0.9794775 
C    -2.9152878   -1.6589210   -2.6897186 
H    -1.7216072   -0.3339095    3.5339991 
H    -2.0476028    1.0284884    2.4511633 
H    -2.1141177   -1.9771631    1.7191513 
H    -3.4619143   -0.8231421    1.6388713 
H     2.1662046   -0.9299160    2.7130705 
H     1.7997263    1.8652203    2.5037232 
H    -2.4265988    1.6492457    0.2560975 
H    -3.7346586   -2.0700051   -0.7207242 
H     1.3571441   -3.2385050    3.1393995 
H    -0.3395405   -2.7086555    3.0829558 
H     0.6645200   -2.6451755    1.5998616 
H     1.6386733    0.0678228    4.8889428 
H     1.6353090   -1.6986280    5.0888459 
H     0.0885439   -0.8233755    5.0041829 
H     0.5825278    3.4263655    4.0574230 
H    -0.9022780    2.4585926    3.9200814 
H     0.5409955    1.7745862    4.7169557 
H     0.5527941    2.5217290    0.3957488 
H     0.6849444    3.8731014    1.5593357 
H    -0.8574111    2.9976150    1.3895245 
H    -4.6932112    1.9824961   -0.6930087 
H    -4.6491950    0.3927362   -1.4907854 
H    -4.6739978    0.5003326    0.2917068 
H    -1.0597509    1.8411427   -1.7778383 
H    -2.5969684    2.7330403   -1.9835519 
H    -2.3598363    1.1586060   -2.7896400 
H    -2.4775369   -4.1168268   -1.4553481 
H    -0.9446047   -3.1989482   -1.4398639 
H    -1.8143148   -3.5239976    0.0880820 
H    -3.3377437   -2.5439092   -3.1969629 
H    -3.6055792   -0.8183842   -2.8618783 
H    -1.9536203   -1.4254029   -3.1728817 
