77
Energy =
C     1.0335862   -0.5597360   -2.5038640 
C     2.0484136    0.1133554   -1.7705604 
C     2.6108533   -0.4878113   -0.6112691 
H     2.2666576    1.1648288   -1.9932911 
Pd    0.4022492   -0.2634524   -0.3645423 
P     0.2482987   -0.1342691    1.9600475 
P    -1.9295817   -0.3096667   -0.4170908 
H     1.0225893   -1.6586190   -2.4376943 
H     2.6022866   -1.5877276   -0.5761664 
C    -1.1405265    0.9500275   -5.9008299 
C    -1.2150544   -0.4044473   -5.5416906 
C    -0.4948722   -0.8788010   -4.4385497 
C     0.3079297   -0.0094052   -3.6643319 
C     0.3736157    1.3528194   -4.0391786 
C    -0.3391179    1.8240429   -5.1471869 
H    -1.6984876    1.3227917   -6.7655955 
H    -1.8289829   -1.0952250   -6.1288855 
H    -0.5460249   -1.9406501   -4.1703015 
H     0.9806204    2.0557180   -3.4591476 
H    -0.2724540    2.8812100   -5.4241009 
C     5.2827285    1.2837876    2.2628702 
C     5.0118159   -0.0935724    2.2830292 
C     4.1615913   -0.6553590    1.3229193 
C     3.5566616    0.1464310    0.3263624 
C     3.8516803    1.5288355    0.3096303 
C     4.7051016    2.0889543    1.2670339 
H     5.9479556    1.7260591    3.0112349 
H     5.4697078   -0.7324364    3.0453305 
H     3.9546603   -1.7316935    1.3422700 
H     3.4031313    2.1788485   -0.4484484 
H     4.9213620    3.1619141    1.2371874 
C    -1.5472906    0.2048764    2.3490429 
C    -2.4755004   -0.5281279    1.3646054 
C     0.7465943   -1.7067920    2.8753010 
C     1.2306553    1.2525736    2.7382699 
C    -2.8102732    1.2474586   -0.9983452 
C    -2.7129447   -1.7350908   -1.3393237 
C     0.7399008   -2.9275033    1.9361377 
C    -0.0730412   -1.9892315    4.1477405 
C     1.0624114    1.3937669    4.2606478 
C     0.9563083    2.5717182    1.9942220 
C    -3.0407907    1.2564092   -2.5198657 
C    -2.0226215    2.4938252   -0.5521572 
C    -4.2288125   -1.8586303   -1.0997918 
C    -1.9705741   -3.0498764   -1.0405986 
H    -1.7829960   -0.0638789    3.3924060 
H    -1.6755029    1.2978808    2.2637353 
H    -2.4569478   -1.6156837    1.5630440 
H    -3.5217976   -0.1941947    1.4819625 
H     1.7953443   -1.4913288    3.1586288 
H     2.2729096    0.9506735    2.5223594 
H    -3.7904061    1.2354988   -0.4828321 
H    -2.5269465   -1.4704038   -2.3977216 
H     1.1276934   -3.8133439    2.4694379 
H    -0.2823042   -3.1645178    1.5935620 
H     1.3651719   -2.7623857    1.0432258 
H    -0.1076798   -1.1316019    4.8383024 
H     0.3771578   -2.8388961    4.6909568 
H    -1.1103933   -2.2745667    3.8975350 
H     1.6787270    2.2382029    4.6171169 
H     0.0153767    1.6059529    4.5415547 
H     1.3964119    0.4933769    4.8016206 
H     1.0384413    2.4434502    0.9005661 
H     1.6946526    3.3303147    2.3061315 
H    -0.0481234    2.9709969    2.2228189 
H    -3.5118824    2.2132661   -2.8060557 
H    -2.0920626    1.1723820   -3.0733518 
H    -3.7102253    0.4472854   -2.8529429 
H    -1.8883100    2.5408218    0.5407962 
H    -2.5618444    3.4063221   -0.8614485 
H    -1.0219794    2.5091218   -1.0203720 
H    -4.6450162   -2.6460897   -1.7529681 
H    -4.4473731   -2.1456409   -0.0562673 
H    -4.7695326   -0.9227423   -1.3195937 
H    -2.3534783   -3.8523504   -1.6950462 
H    -0.8841134   -2.9529876   -1.2112981 
H    -2.1253872   -3.3770615    0.0030621 
