77
Energy =
C     1.0506712   -0.7384039   -2.2650613 
C     1.9231739    0.1960917   -1.6523790 
C     2.5534976   -0.0983666   -0.4139711 
H     2.0018900    1.2070379   -2.0703368 
Pd    0.3194038   -0.1765836   -0.1829416 
P     0.1032867    0.2135027    2.1145187 
P    -1.9849240   -0.6232711   -0.1936141 
H     1.2040651   -1.7973782   -2.0093058 
H     2.6915462   -1.1633998   -0.1728751 
C    -1.0018046   -0.1666685   -6.0045805 
C    -0.6062685    0.9524257   -5.2521851 
C     0.0584160    0.7842196   -4.0332244 
C     0.3433165   -0.5098679   -3.5383810 
C    -0.0553004   -1.6260504   -4.3089752 
C    -0.7207187   -1.4565971   -5.5296093 
H    -1.5238650   -0.0318922   -6.9571862 
H    -0.8215452    1.9617269   -5.6179033 
H     0.3452405    1.6679922   -3.4533421 
H     0.1653769   -2.6356075   -3.9449483 
H    -1.0180395   -2.3337992   -6.1133173 
C     5.2678002    2.4727445    1.7238119 
C     5.1643964    1.1105292    2.0438506 
C     4.2762549    0.2893172    1.3382992 
C     3.4641979    0.8126380    0.3058354 
C     3.5796239    2.1877952   -0.0049009 
C     4.4752889    3.0052445    0.6929003 
H     5.9654661    3.1158515    2.2694962 
H     5.7858042    0.6842973    2.8381916 
H     4.2149282   -0.7786315    1.5783089 
H     2.9612333    2.6283229   -0.7937502 
H     4.5536284    4.0663696    0.4350341 
C    -1.6412635   -0.2811720    2.5810291 
C    -2.6331175    0.0036393    1.4459548 
C     1.1872245   -0.8238491    3.2299203 
C     0.2439746    1.9967574    2.7034407 
C    -3.1506139    0.2081879   -1.4064413 
C    -2.3731211   -2.4613190   -0.0994039 
C     1.2389053   -2.2765216    2.7214486 
C     0.7854256   -0.7450118    4.7145674 
C    -0.2799530    2.9452221    1.6078259 
C     1.6686938    2.3804078    3.1380210 
C    -3.2290156   -0.4829282   -2.7775357 
C    -2.7400973    1.6867526   -1.5495497 
C    -1.6079059   -3.2682205   -1.1638429 
C    -3.8786030   -2.7833841   -0.0740135 
H    -1.6122333   -1.3635222    2.8032437 
H    -1.9393813    0.2303731    3.5130301 
H    -3.6184420   -0.4501879    1.6533867 
H    -2.7977045    1.0886661    1.3320932 
H     2.1888586   -0.3736561    3.0957067 
H    -0.4269341    2.0565241    3.5824406 
H    -4.1435655    0.1525848   -0.9180167 
H    -1.9446545   -2.7275658    0.8876564 
H     1.9571544   -2.8598181    3.3238115 
H     0.2564363   -2.7753219    2.8089363 
H     1.5525779   -2.3277921    1.6644235 
H     0.7284782    0.2929495    5.0829816 
H     1.5325815   -1.2776852    5.3292686 
H    -0.1916887   -1.2272127    4.8923259 
H    -0.2492353    3.9879234    1.9695534 
H     0.3461957    2.8754470    0.7002421 
H    -1.3206815    2.7219348    1.3201941 
H     2.0240813    1.7894833    3.9972537 
H     1.6758804    3.4420688    3.4418662 
H     2.3893169    2.2644835    2.3144444 
H    -3.9179117    0.0851131   -3.4268929 
H    -2.2481603   -0.5095751   -3.2743111 
H    -3.6136783   -1.5124803   -2.7087368 
H    -2.7303038    2.2216070   -0.5845963 
H    -3.4538540    2.2080202   -2.2111669 
H    -1.7349571    1.7673656   -1.9980726 
H    -1.8073459   -4.3458113   -1.0286743 
H    -1.9100351   -2.9937674   -2.1878414 
H    -0.5201907   -3.1085227   -1.0736178 
H    -4.0196489   -3.8578530    0.1386236 
H    -4.4190787   -2.2197468    0.7055172 
H    -4.3584498   -2.5721756   -1.0439518 
