77
Energy =
C     1.0770822   -0.7977883   -2.2954892 
C     2.0261270    0.0492002   -1.6517306 
C     2.6375603   -0.3309532   -0.4326252 
H     2.1587084    1.0739283   -2.0201376 
Pd    0.3762096   -0.2902399   -0.2294907 
P    -0.0032739    0.2902965    2.0004956 
P    -1.9008678   -0.7445884   -0.3888236 
H     1.1997926   -1.8814249   -2.1514465 
H     2.6567540   -1.4077484   -0.2013118 
C    -1.2435436    0.2778668   -5.7658288 
C    -0.7251296    1.2838027   -4.9334553 
C     0.0383636    0.9470650   -3.8108477 
C     0.3055997   -0.4052075   -3.4932742 
C    -0.2064545   -1.4047099   -4.3515857 
C    -0.9754367   -1.0679218   -5.4728698 
H    -1.8450147    0.5427154   -6.6412642 
H    -0.9225339    2.3371661   -5.1582444 
H     0.4131372    1.7453507   -3.1612727 
H     0.0088937   -2.4572691   -4.1394281 
H    -1.3599914   -1.8590886   -6.1248386 
C     5.4344394    1.9550809    1.9100176 
C     5.1016980    0.6394062    2.2672165 
C     4.2004140   -0.0928901    1.4852314 
C     3.5994174    0.4772312    0.3388243 
C     3.9572140    1.7985865   -0.0167611 
C     4.8656322    2.5262307    0.7594722 
H     6.1433897    2.5283570    2.5157976 
H     5.5548877    0.1787498    3.1511350 
H     3.9575169   -1.1261735    1.7587373 
H     3.5249229    2.2667454   -0.9068512 
H     5.1333345    3.5462819    0.4654397 
C    -1.7668564   -0.2017801    2.4052762 
C    -2.7104616   -0.1413357    1.1891020 
C     1.0422938   -0.5575467    3.2975326 
C     0.0738010    2.1225549    2.4023775 
C    -2.8229049    0.0941204   -1.7833634 
C    -2.3556822   -2.5611969   -0.4796603 
C     1.1369892   -2.0676643    3.0176590 
C     0.5991516   -0.2568785    4.7404746 
C    -0.6563041    2.9379521    1.3201933 
C     1.5214009    2.6072922    2.5856335 
C    -2.6105449    1.6172391   -1.7158932 
C    -4.3125280   -0.2814395   -1.8674792 
C    -1.7553550   -3.3457599    0.6999697 
C    -1.9387248   -3.1741528   -1.8255359 
H    -1.7075425   -1.2333215    2.7932143 
H    -2.1466994    0.4293502    3.2280681 
H    -3.6320193   -0.7209365    1.3765260 
H    -3.0207142    0.8996024    0.9957613 
H     2.0425344   -0.1169501    3.1247452 
H    -0.4720415    2.2297368    3.3600328 
H    -2.2984544   -0.2782270   -2.6841089 
H    -3.4595799   -2.5811652   -0.3964592 
H     1.8705053   -2.5290110    3.7019129 
H     0.1708490   -2.5773434    3.1797817 
H     1.4599667   -2.2678714    1.9809806 
H     0.5781069    0.8243909    4.9570734 
H     1.3057299   -0.7240171    5.4493552 
H    -0.4022258   -0.6720040    4.9511463 
H    -0.6325222    4.0103648    1.5817500 
H    -0.1647432    2.8133022    0.3386541 
H    -1.7140897    2.6462890    1.2135214 
H     2.0314265    2.1152764    3.4298546 
H     1.5196472    3.6930127    2.7872879 
H     2.1217831    2.4332276    1.6777459 
H    -2.9532655    2.0784608   -2.6577571 
H    -3.1861642    2.0748892   -0.8915442 
H    -1.5460156    1.8716689   -1.5806535 
H    -4.4667787   -1.3611891   -2.0294783 
H    -4.7751457    0.2488780   -2.7186671 
H    -4.8599307    0.0161538   -0.9552274 
H    -2.0148520   -4.4147064    0.6049618 
H    -0.6538653   -3.2627915    0.7111161 
H    -2.1409021   -3.0001931    1.6734454 
H    -2.2912487   -4.2190846   -1.8806159 
H    -2.3550342   -2.6309067   -2.6896600 
H    -0.8398378   -3.1843473   -1.9238401 
