77
Energy =
C     1.1160389   -0.7655789   -2.2448114 
C     2.0158950    0.1454995   -1.6268756 
C     2.5861260   -0.1432559   -0.3604624 
H     2.1509809    1.1440156   -2.0597976 
Pd    0.3324756   -0.1365332   -0.2309410 
P    -0.0350732    0.3223345    2.0329915 
P    -1.9221851   -0.7275259   -0.3862701 
H     1.2258753   -1.8268629   -1.9758926 
H     2.6540812   -1.2059076   -0.0805221 
C    -0.9386354   -0.1673063   -5.9824227 
C    -0.8366254   -1.4460604   -5.4144682 
C    -0.1584724   -1.6237734   -4.2020618 
C     0.4225723   -0.5269890   -3.5251207 
C     0.3139280    0.7555210   -4.1120057 
C    -0.3543505    0.9306189   -5.3284230 
H    -1.4642207   -0.0260825   -6.9321196 
H    -1.2775664   -2.3096415   -5.9230950 
H    -0.0641896   -2.6285113   -3.7736393 
H     0.7426893    1.6288649   -3.6095180 
H    -0.4259593    1.9308047   -5.7679841 
C     5.3125920    2.3411333    1.8579695 
C     5.1668830    0.9797964    2.1647739 
C     4.2726710    0.1880102    1.4336584 
C     3.5029303    0.7399647    0.3837226 
C     3.6600593    2.1139278    0.0867058 
C     4.5571837    2.9028303    0.8143596 
H     6.0125492    2.9622026    2.4258053 
H     5.7565078    0.5322084    2.9714071 
H     4.1706665   -0.8778059    1.6693248 
H     3.0720149    2.5749036   -0.7137241 
H     4.6671617    3.9642571    0.5695461 
C    -1.8808639    0.1657595    2.3118927 
C    -2.5455775   -0.8566476    1.3770610 
C     0.7995109   -0.8925455    3.1906805 
C     0.3123660    2.0402700    2.7173086 
C    -3.1314176    0.4340134   -1.2310433 
C    -2.2456899   -2.4166896   -1.1259988 
C     0.7060277   -2.3323791    2.6538995 
C     0.3180396   -0.7940361    4.6490790 
C     0.0121712    3.0802402    1.6213901 
C     1.7324894    2.2131854    3.2797539 
C    -3.0833507    0.3025990   -2.7625801 
C    -2.8817967    1.8863270   -0.7874022 
C    -3.7156119   -2.8611911   -1.0171523 
C    -1.2824862   -3.4658836   -0.5426063 
H    -2.0794112   -0.0744388    3.3710248 
H    -2.2914597    1.1752200    2.1347193 
H    -2.3162806   -1.8848001    1.7088646 
H    -3.6448919   -0.7497499    1.3920098 
H     1.8585536   -0.5733823    3.1334169 
H    -0.4173038    2.1644986    3.5419149 
H    -4.1286989    0.1161285   -0.8693638 
H    -1.9871836   -2.2683791   -2.1916641 
H     1.3240655   -3.0046435    3.2745636 
H    -0.3303832   -2.7112902    2.6905698 
H     1.0591897   -2.4034060    1.6105146 
H     0.3465468    0.2368843    5.0396694 
H     0.9643708   -1.4146678    5.2946755 
H    -0.7128908   -1.1747654    4.7572296 
H     0.1299167    4.0994491    2.0291540 
H     0.7135862    2.9631630    0.7761255 
H    -1.0141404    2.9929471    1.2278869 
H     1.9351624    1.5484658    4.1345753 
H     1.8520077    3.2520338    3.6342265 
H     2.4979442    2.0341434    2.5099814 
H    -3.8060115    1.0084932   -3.2084449 
H    -2.0845074    0.5489508   -3.1566709 
H    -3.3499129   -0.7078560   -3.1120952 
H    -3.0155948    2.0212269    0.2989914 
H    -3.5976669    2.5580629   -1.2926113 
H    -1.8599428    2.2087432   -1.0555747 
H    -3.8473066   -3.8295295   -1.5318807 
H    -4.0171612   -3.0036897    0.0355656 
H    -4.4100923   -2.1415896   -1.4817243 
H    -1.3933902   -4.4184455   -1.0895761 
H    -0.2298245   -3.1440165   -0.6216976 
H    -1.4957027   -3.6718416    0.5212316 
