77
Energy =
C     1.1535429   -0.9156941   -2.3715669 
C     2.0804392   -0.0447612   -1.7249770 
C     2.6943394   -0.4076433   -0.4995950 
H     2.1733503    0.9871138   -2.0865429 
Pd    0.4623939   -0.4297690   -0.2928675 
P     0.1821178    0.3485752    1.8881284 
P    -1.8333395   -0.8081651   -0.3468383 
H     1.3090312   -1.9980385   -2.2483842 
H     2.7736044   -1.4845036   -0.2816035 
C    -1.1960578    0.2004722   -5.8105500 
C    -0.7842058    1.1837324   -4.8952932 
C    -0.0165194    0.8309607   -3.7803886 
C     0.3615652   -0.5137466   -3.5540050 
C    -0.0512173   -1.4884242   -4.4892888 
C    -0.8231132   -1.1361559   -5.6039310 
H    -1.7997328    0.4763487   -6.6810655 
H    -1.0682698    2.2300974   -5.0492359 
H     0.2720112    1.6059816   -3.0617728 
H     0.2451721   -2.5331836   -4.3439768 
H    -1.1287035   -1.9079093   -6.3180010 
C     5.1153029    2.0634298    2.0635736 
C     4.8818709    0.7139026    2.3735385 
C     4.1176027   -0.0814061    1.5118099 
C     3.5597359    0.4548623    0.3270443 
C     3.8233675    1.8086264    0.0169444 
C     4.5909899    2.6023868    0.8771883 
H     5.7143348    2.6876852    2.7341712 
H     5.3033280    0.2789171    3.2856831 
H     3.9400380   -1.1344090    1.7584579 
H     3.4250079    2.2520477   -0.9008156 
H     4.7848879    3.6485776    0.6188520 
C    -1.6496706    0.6760960    2.0690292 
C    -2.4994855   -0.3900273    1.3563637 
C     0.7405727   -0.7783436    3.2931886 
C     1.0131011    1.9945594    2.2060849 
C    -2.7523053    0.2796157   -1.5599036 
C    -2.4278416   -2.5582878   -0.6517506 
C     0.9670000   -2.2173275    2.7950228 
C    -0.1773191   -0.7546587    4.5283806 
C     0.7091262    2.6095090    3.5830241 
C     0.7164887    2.9679527    1.0516434 
C    -2.4453884    1.7622346   -1.2788903 
C    -4.2637704    0.0074864   -1.6397023 
C    -1.7508164   -3.5452858    0.3156010 
C    -2.1859034   -2.9737604   -2.1123070 
H    -1.9335488    0.7647217    3.1312707 
H    -1.8102239    1.6666743    1.6089066 
H    -2.4944331   -1.3308252    1.9347041 
H    -3.5535934   -0.0692895    1.2769422 
H     1.7240141   -0.3466205    3.5633681 
H     2.0870892    1.7322475    2.1635305 
H    -2.2810905    0.0154377   -2.5260561 
H    -3.5160910   -2.5397937   -0.4469115 
H     1.4217497   -2.8256487    3.5966193 
H     0.0147667   -2.6957540    2.5106424 
H     1.6354002   -2.2465263    1.9180296 
H    -0.3503043    0.2627073    4.9150083 
H     0.2834252   -1.3469259    5.3386583 
H    -1.1579613   -1.2118795    4.3055656 
H     1.2514197    3.5666337    3.6819006 
H    -0.3669883    2.8237323    3.7098678 
H     1.0377026    1.9598065    4.4107203 
H     0.9230732    2.5029097    0.0714216 
H     1.3570475    3.8616430    1.1471166 
H    -0.3346942    3.3079669    1.0588803 
H    -2.7953655    2.3805590   -2.1235345 
H    -2.9645919    2.1173033   -0.3705621 
H    -1.3627493    1.9369084   -1.1528482 
H    -4.4915088   -1.0276519   -1.9429606 
H    -4.7164344    0.6788543   -2.3909770 
H    -4.7677932    0.2059548   -0.6767773 
H    -2.1152683   -4.5680885    0.1165421 
H    -0.6544940   -3.5404659    0.1775569 
H    -1.9675562   -3.3208107    1.3736520 
H    -2.6018710   -3.9820804   -2.2830584 
H    -2.6506086   -2.2892680   -2.8404970 
H    -1.1051815   -3.0121025   -2.3271975 
