77
Energy =
C     1.0159256   -0.6353582   -2.3506334 
C     1.9931862    0.0447192   -1.5821637 
C     2.5492405   -0.5197414   -0.4039759 
H     2.2245047    1.0885810   -1.8268632 
Pd    0.3079319   -0.3319194   -0.2010255 
P     0.1093388   -0.1171184    2.1084318 
P    -2.0423522   -0.3529801   -0.2722340 
H     0.9992634   -1.7334643   -2.2813811 
H     2.5516073   -1.6178816   -0.3285849 
C    -0.7824482    0.9223036   -5.9412971 
C    -0.1922803    1.8038578   -5.0199216 
C     0.3885688    1.3128726   -3.8464262 
C     0.4001680   -0.0748994   -3.5689167 
C    -0.1868347   -0.9495253   -4.5111818 
C    -0.7753934   -0.4565861   -5.6825169 
H    -1.2407752    1.3091536   -6.8569685 
H    -0.1918115    2.8811370   -5.2155797 
H     0.8216083    2.0201459   -3.1311817 
H    -0.1733197   -2.0285062   -4.3232564 
H    -1.2231960   -1.1522153   -6.3996702 
C     5.4210549    1.4122379    2.1645802 
C     4.6417313    2.1844069    1.2869938 
C     3.7117815    1.5705555    0.4416575 
C     3.5362027    0.1667059    0.4532877 
C     4.3461114   -0.5978521    1.3242607 
C     5.2746374    0.0167755    2.1734420 
H     6.1456240    1.8952492    2.8278901 
H     4.7589293    3.2728516    1.2633688 
H     3.1050139    2.1947441   -0.2219670 
H     4.2500489   -1.6886852    1.3274478 
H     5.8917042   -0.5964598    2.8382194 
C    -1.6290424    0.4721665    2.4518187 
C    -2.6663445   -0.1350583    1.4940386 
C     0.3080009   -1.6862437    3.1125381 
C     1.2077145    1.1724611    2.8991423 
C    -2.8859276    1.0645106   -1.1718438 
C    -2.8719924   -1.9698037   -0.7506401 
C     1.7686917   -2.1644014    3.0958294 
C    -0.6410016   -2.7917771    2.6151988 
C     1.0624999    1.2734041    4.4273991 
C     0.9935192    2.5291132    2.2009406 
C    -3.0183949    0.8545567   -2.6884103 
C    -2.1327946    2.3668114   -0.8377172 
C    -2.3022998   -2.5695685   -2.0464069 
C    -4.4100253   -1.8856708   -0.7499179 
H    -1.8940852    0.2684385    3.5048762 
H    -1.5974137    1.5688810    2.3334617 
H    -2.9641079   -1.1397288    1.8379908 
H    -3.5837326    0.4791674    1.4775488 
H     0.0244935   -1.4086582    4.1459981 
H     2.2277006    0.8228994    2.6530262 
H    -3.8995705    1.1113062   -0.7283934 
H    -2.5590502   -2.6265367    0.0848623 
H     1.8761800   -3.0496736    3.7468925 
H     2.0677325   -2.4580061    2.0749181 
H     2.4738083   -1.3952522    3.4513056 
H    -1.7024572   -2.5258386    2.7474015 
H    -0.4619393   -3.7191405    3.1868829 
H    -0.4640309   -3.0136318    1.5464048 
H     1.7497066    2.0494262    4.8087102 
H     0.0385129    1.5639514    4.7227675 
H     1.3174808    0.3292402    4.9370944 
H     0.9854439    2.4232289    1.1016861 
H     1.8120181    3.2172797    2.4716471 
H     0.0439008    3.0017978    2.5095407 
H    -3.4558964    1.7619077   -3.1408833 
H    -2.0423038    0.6821366   -3.1650629 
H    -3.6812544    0.0104457   -2.9349682 
H    -2.0735021    2.5514188    0.2490629 
H    -2.6506009    3.2278588   -1.2955306 
H    -1.1029664    2.3323787   -1.2359490 
H    -2.7513240   -3.5630869   -2.2219659 
H    -2.5154878   -1.9418330   -2.9262230 
H    -1.2092382   -2.6968604   -1.9753912 
H    -4.8329880   -2.8958914   -0.8926654 
H    -4.8091342   -1.4901180    0.1997594 
H    -4.7842693   -1.2511116   -1.5706089 
