77
Energy =
C     1.1645747   -0.9193665   -2.3648477 
C     2.0923133   -0.0559677   -1.7095380 
C     2.6947569   -0.4252656   -0.4803688 
H     2.1946899    0.9760184   -2.0682097 
Pd    0.4614999   -0.4329247   -0.2898564 
P     0.1704188    0.3432871    1.8905697 
P    -1.8365251   -0.7947207   -0.3616600 
H     1.3117132   -2.0029796   -2.2425900 
H     2.7654372   -1.5030162   -0.2638313 
C    -1.1504003    0.2190923   -5.8199786 
C    -0.7377933    1.1980652   -4.9004760 
C     0.0184615    0.8380297   -3.7800949 
C     0.3842520   -0.5098674   -3.5523922 
C    -0.0291917   -1.4802496   -4.4918667 
C    -0.7897444   -1.1206906   -5.6119654 
H    -1.7452949    0.5006715   -6.6946992 
H    -1.0126559    2.2467679   -5.0552280 
H     0.3073784    1.6099929   -3.0583672 
H     0.2580917   -2.5274235   -4.3456772 
H    -1.0958847   -1.8892273   -6.3292595 
C     5.1142201    2.0255286    2.1036839 
C     4.8692518    0.6772277    2.4100757 
C     4.1057521   -0.1116387    1.5417622 
C     3.5600685    0.4300832    0.3538017 
C     3.8353132    1.7823929    0.0475009 
C     4.6022301    2.5696689    0.9142941 
H     5.7125529    2.6447786    2.7795261 
H     5.2807695    0.2382383    3.3248382 
H     3.9188142   -1.1636024    1.7858904 
H     3.4470622    2.2296992   -0.8727135 
H     4.8054860    3.6147364    0.6586160 
C    -1.6601786    0.6842009    2.0579801 
C    -2.5125234   -0.3743199    1.3371073 
C     0.7096963   -0.7904170    3.2977471 
C     1.0109559    1.9824244    2.2185824 
C    -2.7378088    0.3020590   -1.5799225 
C    -2.4416258   -2.5398306   -0.6739221 
C     0.9320832   -2.2295505    2.7981785 
C    -0.2191283   -0.7641337    4.5246547 
C     0.7010567    2.5960946    3.5947937 
C     0.7300446    2.9607503    1.0644032 
C    -2.4217728    1.7818259   -1.2939636 
C    -4.2506389    0.0416418   -1.6718039 
C    -1.7788208   -3.5332861    0.2966589 
C    -2.1920176   -2.9546513   -2.1334019 
H    -1.9515471    0.7732550    3.1181558 
H    -1.8097269    1.6766783    1.5982691 
H    -2.5189858   -1.3160917    1.9138432 
H    -3.5635493   -0.0454954    1.2502255 
H     1.6932407   -0.3652499    3.5777254 
H     2.0833382    1.7125199    2.1834450 
H    -2.2611629    0.0358944   -2.5428663 
H    -3.5312034   -2.5138899   -0.4771170 
H     1.3761634   -2.8423018    3.6023862 
H    -0.0203380   -2.7017242    2.5041898 
H     1.6080965   -2.2607169    1.9271322 
H    -0.3889912    0.2533375    4.9123887 
H     0.2304751   -1.3614971    5.3374492 
H    -1.2006411   -1.2144473    4.2918249 
H     1.2497623    3.5488420    3.7003342 
H    -0.3743541    2.8180902    3.7139641 
H     1.0183475    1.9418066    4.4232806 
H     0.9407014    2.4966682    0.0846053 
H     1.3762959    3.8495394    1.1669360 
H    -0.3186865    3.3083175    1.0645544 
H    -2.7601204    2.4041420   -2.1404041 
H    -2.9456002    2.1393816   -0.3892740 
H    -1.3388628    1.9480606   -1.1588775 
H    -4.4839087   -0.9912852   -1.9783762 
H    -4.6923783    0.7175671   -2.4254801 
H    -4.7605272    0.2424956   -0.7124656 
H    -2.1492628   -4.5530945    0.0933354 
H    -0.6815224   -3.5363035    0.1665037 
H    -2.0016006   -3.3088540    1.3534589 
H    -2.6139634   -3.9596745   -2.3088596 
H    -2.6463840   -2.2656744   -2.8638653 
H    -1.1100433   -3.0004420   -2.3404523 
