77
Energy =
C     0.9568803   -0.7389120   -2.2896164 
C     1.9044562    0.0937205   -1.6322372 
C     2.5025659   -0.3062669   -0.4123186 
H     2.0705071    1.1113808   -2.0069186 
Pd    0.2347405   -0.2051420   -0.2149523 
P    -0.0366819    0.3021268    2.0481170 
P    -2.0585100   -0.6772334   -0.2644863 
H     1.0488546   -1.8208273   -2.1179249 
H     2.4916260   -1.3850544   -0.1911672 
C    -1.0271340    0.2823287   -5.9738067 
C    -0.6406023    1.3002514   -5.0855997 
C     0.0023264    0.9817152   -3.8848973 
C     0.2742367   -0.3635604   -3.5440428 
C    -0.1110987   -1.3759174   -4.4519473 
C    -0.7557619   -1.0564308   -5.6540536 
H    -1.5337570    0.5332570   -6.9111054 
H    -0.8473174    2.3475171   -5.3293631 
H     0.2809171    1.7856298   -3.1944938 
H     0.1075912   -2.4228019   -4.2142451 
H    -1.0435393   -1.8553464   -6.3451389 
C     5.4607669    1.8307820    1.8708095 
C     5.1252101    0.5059027    2.1882403 
C     4.1655781   -0.1746664    1.4288279 
C     3.5101882    0.4564382    0.3454533 
C     3.8755000    1.7848277    0.0263426 
C     4.8390737    2.4619519    0.7801718 
H     6.2137023    2.3648505    2.4591349 
H     5.6209199   -0.0023862    3.0217363 
H     3.9238290   -1.2171783    1.6665545 
H     3.4023325    2.2990260   -0.8164792 
H     5.1093154    3.4895190    0.5161572 
C    -1.7563971   -0.2412047    2.5479210 
C    -2.7623962   -0.1423201    1.3900875 
C     1.1123604   -0.5750177    3.2337156 
C     0.0438061    2.1140276    2.5208524 
C    -3.2435398    0.2071609   -1.4304983 
C    -2.4723109   -2.5086729   -0.4008974 
C     1.1426670   -2.0854170    2.9377793 
C     0.8276912   -0.2788703    4.7165730 
C    -0.9685378    2.9446765    1.7133533 
C     1.4686211    2.6643381    2.3537722 
C    -3.3690181   -0.4297230   -2.8234463 
C    -2.8576420    1.6944327   -1.5216333 
C    -2.2411893   -3.2651344    0.9189742 
C    -1.6753455   -3.1659538   -1.5417742 
H    -1.6590378   -1.2865326    2.8869610 
H    -2.0940398    0.3512670    3.4170041 
H    -3.6767381   -0.7259510    1.6012152 
H    -3.0808891    0.9042024    1.2476425 
H     2.1007106   -0.1561320    2.9662119 
H    -0.2426466    2.1434180    3.5899764 
H    -4.2217943    0.1190869   -0.9158747 
H    -3.5531325   -2.5325237   -0.6427956 
H     1.9585438   -2.5619652    3.5088416 
H     0.2017497   -2.5798656    3.2380990 
H     1.3093367   -2.2882065    1.8649891 
H     0.9037418    0.7957841    4.9514415 
H     1.5662247   -0.8071162    5.3455606 
H    -0.1747111   -0.6318811    5.0174350 
H    -0.8771123    4.0098021    1.9894120 
H    -0.7754749    2.8564558    0.6291798 
H    -2.0112819    2.6443087    1.9104371 
H     2.2249389    2.0894175    2.9140753 
H     1.5061987    3.7075539    2.7134578 
H     1.7645155    2.6603254    1.2921699 
H    -4.0949199    0.1539856   -3.4163152 
H    -2.4111195   -0.4179717   -3.3662948 
H    -3.7406417   -1.4664897   -2.7793621 
H    -2.8378481    2.1874383   -0.5355607 
H    -3.5918104    2.2314173   -2.1474620 
H    -1.8637541    1.8088736   -1.9861225 
H    -2.4617965   -4.3365043    0.7679785 
H    -1.1877621   -3.1862292    1.2424614 
H    -2.8911373   -2.9095822    1.7354893 
H    -2.0547826   -4.1872338   -1.7210960 
H    -1.7395190   -2.6059142   -2.4872484 
H    -0.6094954   -3.2450612   -1.2634368 
