77
Energy =
C     1.1050156   -0.6216594   -2.4004905 
C     2.1085433    0.0180264   -1.6202424 
C     2.6810011   -0.6065887   -0.4837789 
H     2.3259166    1.0767476   -1.8079377 
Pd    0.4325947   -0.4297066   -0.2601531 
P     0.1432872   -0.0855254    2.0205647 
P    -1.9021404   -0.4546594   -0.4259785 
H     1.1239586   -1.7213271   -2.4391253 
H     2.6544470   -1.7068939   -0.4488426 
C    -1.0389905    1.2509545   -5.6394865 
C    -0.4212250    2.0453855   -4.6591327 
C     0.2848031    1.4488392   -3.6093362 
C     0.3946463    0.0407899   -3.5139306 
C    -0.2174875   -0.7429255   -4.5182938 
C    -0.9293343   -0.1458482   -5.5664687 
H    -1.5946931    1.7189272   -6.4583063 
H    -0.4944756    3.1367584   -4.7114734 
H     0.7364330    2.0868659   -2.8424803 
H    -0.1255972   -1.8336419   -4.4796544 
H    -1.3930048   -0.7739824   -6.3341565 
C     5.5374024    1.1412966    2.2275379 
C     4.8593493    1.9610463    1.3099642 
C     3.9389147    1.4081423    0.4136434 
C     3.6699062    0.0191576    0.4146966 
C     4.3808020   -0.7951606    1.3263442 
C     5.3000891   -0.2417513    2.2256151 
H     6.2557681    1.5769960    2.9292637 
H     5.0511486    3.0389631    1.2924551 
H     3.4192428    2.0695750   -0.2865026 
H     4.2103851   -1.8770117    1.3238446 
H     5.8388866   -0.8929503    2.9216404 
C    -1.5899566    0.5896516    2.2173452 
C    -2.6055293   -0.0780647    1.2728171 
C     0.2532084   -1.5709902    3.1550176 
C     1.2541801    1.2274835    2.7561930 
C    -2.5188504    0.8859911   -1.5734746 
C    -2.6609700   -2.1178406   -0.8576406 
C     1.6978886   -2.0956554    3.2056896 
C    -0.7226871   -2.6805244    2.7243894 
C     1.0455110    1.4609848    4.2623097 
C     1.1303822    2.5283940    1.9409602 
C    -1.9826589    2.2395032   -1.0654672 
C    -4.0345675    0.9283393   -1.8259920 
C    -2.2640657   -2.5426904   -2.2804018 
C    -4.1735423   -2.2671966   -0.6037455 
H    -1.9142891    0.5041469    3.2700508 
H    -1.5103172    1.6660428    1.9870051 
H    -2.9341302   -1.0454045    1.6871526 
H    -3.5119780    0.5440946    1.1677465 
H    -0.0411882   -1.2037604    4.1569146 
H     2.2692488    0.8207477    2.5873973 
H    -2.0041124    0.6513209   -2.5241577 
H    -2.1304763   -2.7773410   -0.1426864 
H     1.7622884   -2.9386413    3.9158798 
H     2.0093682   -2.4641351    2.2127117 
H     2.4204582   -1.3272448    3.5261987 
H    -1.7770398   -2.3684164    2.8025217 
H    -0.5926350   -3.5621656    3.3760607 
H    -0.5253029   -2.9980898    1.6839486 
H     1.7457709    2.2401208    4.6122363 
H     0.0217615    1.8121422    4.4834353 
H     1.2388702    0.5536054    4.8583682 
H     1.1925905    2.3326975    0.8558203 
H     1.9516710    3.2136411    2.2111151 
H     0.1784191    3.0504336    2.1442898 
H    -2.1409736    3.0130655   -1.8365619 
H    -2.5098042    2.5653341   -0.1504132 
H    -0.9009726    2.1932643   -0.8455186 
H    -4.3864846    0.0408263   -2.3742928 
H    -4.2725199    1.8132802   -2.4427223 
H    -4.6135581    1.0129904   -0.8890751 
H    -2.6309006   -3.5643533   -2.4816828 
H    -2.6968782   -1.8725955   -3.0433950 
H    -1.1696677   -2.5411159   -2.4059661 
H    -4.4426726   -3.3353094   -0.6852720 
H    -4.4760386   -1.9278349    0.4008839 
H    -4.7724424   -1.7175703   -1.3457923 
