77
Energy =
C     1.1729404   -0.7761856   -2.3534429 
C     2.0515999    0.1222410   -1.6883165 
C     2.6571858   -0.2342985   -0.4560142 
H     2.1326708    1.1548863   -2.0492126 
Pd    0.4263052   -0.3001484   -0.2623056 
P     0.2201301    0.3429540    1.9706134 
P    -1.8601234   -0.8183246   -0.1997775 
H     1.3384100   -1.8500488   -2.1825534 
H     2.7647976   -1.3112433   -0.2529392 
C    -0.9683239    0.1211790   -5.9808037 
C    -0.5404293    1.1686367   -5.1476291 
C     0.1528983    0.8910311   -3.9652086 
C     0.4423639   -0.4427196   -3.5912740 
C     0.0116380   -1.4849926   -4.4429000 
C    -0.6883956   -1.2064148   -5.6236054 
H    -1.5149424    0.3402392   -6.9035231 
H    -0.7559432    2.2072863   -5.4190295 
H     0.4545564    1.7198926   -3.3155813 
H     0.2345548   -2.5235996   -4.1753681 
H    -1.0111916   -2.0286147   -6.2705976 
C     5.0835895    2.2307363    2.1060753 
C     4.9041697    0.8650063    2.3783167 
C     4.1324065    0.0746557    1.5185030 
C     3.5148738    0.6318094    0.3736123 
C     3.7224547    2.0033854    0.1014613 
C     4.4971706    2.7921931    0.9596291 
H     5.6874578    2.8515842    2.7754805 
H     5.3729525    0.4141722    3.2590963 
H     3.9972570   -0.9917416    1.7336475 
H     3.2709297    2.4647103   -0.7821746 
H     4.6463760    3.8528050    0.7323814 
C    -1.6020634    0.5958963    2.2683351 
C    -2.4335585   -0.4863402    1.5639534 
C     0.8413492   -0.9118973    3.2317838 
C     1.0264188    1.9772166    2.3856734 
C    -3.0369297    0.2177930   -1.2338108 
C    -2.3035594   -2.6341058   -0.3951406 
C     0.9553283   -2.3128746    2.6003630 
C     0.0293727   -0.9578287    4.5390703 
C     0.7840311    2.4746412    3.8208731 
C     0.6366711    3.0249291    1.3264374 
C    -3.1234442   -0.2376481   -2.6998086 
C    -2.6227728    1.6984513   -1.1283851 
C    -1.6494496   -3.2795896   -1.6284015 
C    -3.8178633   -2.9003082   -0.3049443 
H    -1.8263106    0.6318423    3.3479904 
H    -1.8331040    1.5941425    1.8577085 
H    -2.3412123   -1.4463827    2.1041154 
H    -3.5053622   -0.2196648    1.5609484 
H     1.8628325   -0.5446420    3.4512629 
H     2.1028408    1.7551102    2.2669816 
H    -4.0271711    0.0845481   -0.7562671 
H    -1.8193176   -3.0704460    0.5013625 
H     1.4060987   -3.0162790    3.3225302 
H    -0.0375405   -2.7108393    2.3234993 
H     1.5804454   -2.3033782    1.6916338 
H    -0.0812970    0.0311892    5.0115349 
H     0.5376471   -1.6197017    5.2624087 
H    -0.9793578   -1.3741249    4.3681296 
H     1.2949141    3.4440604    3.9595022 
H    -0.2891196    2.6331701    4.0285634 
H     1.1895795    1.7799752    4.5744811 
H     0.7805018    2.6360666    0.3025631 
H     1.2682794    3.9221735    1.4445317 
H    -0.4167665    3.3418377    1.4293546 
H    -3.7771137    0.4578824   -3.2549924 
H    -2.1372482   -0.2301788   -3.1880990 
H    -3.5552641   -1.2459505   -2.7987997 
H    -2.6337582    2.0665367   -0.0885053 
H    -3.3233266    2.3236598   -1.7092682 
H    -1.6075320    1.8488519   -1.5368619 
H    -1.8616419   -4.3632653   -1.6329906 
H    -2.0286119   -2.8569362   -2.5724704 
H    -0.5552051   -3.1459539   -1.6106418 
H    -3.9993831   -3.9895457   -0.2841584 
H    -4.2651952   -2.4714266    0.6080552 
H    -4.3561697   -2.4917382   -1.1766612 
