77
Energy =
C     1.0763334   -0.8510584   -2.3536026 
C     1.9717607    0.0287352   -1.6912731 
C     2.5514523   -0.3251077   -0.4415157 
H     2.0981302    1.0501522   -2.0715234 
Pd    0.3223333   -0.3151191   -0.2733643 
P     0.1340099    0.2082107    1.9898403 
P    -2.0014369   -0.5798681   -0.2867631 
H     1.1787619   -1.9237895   -2.1309408 
H     2.6624760   -1.4011566   -0.2363488 
C    -0.9372839   -0.0429606   -6.0735689 
C    -0.4810737    1.0260043   -5.2837278 
C     0.1743184    0.7795960   -4.0731210 
C     0.3910277   -0.5438650   -3.6231767 
C    -0.0631729   -1.6089010   -4.4344604 
C    -0.7218760   -1.3615567   -5.6456316 
H    -1.4530284    0.1525417   -7.0190456 
H    -0.6415070    2.0577722   -5.6132132 
H     0.5102783    1.6266172   -3.4654610 
H     0.1115962   -2.6412837   -4.1119045 
H    -1.0633480   -2.2010861   -6.2598248 
C     5.0670714    2.1423516    2.0388315 
C     5.0542525    0.7478191    2.1895859 
C     4.2418921   -0.0401272    1.3637759 
C     3.4211837    0.5473243    0.3726753 
C     3.4610964    1.9527795    0.2205272 
C     4.2726680    2.7392420    1.0448085 
H     5.7005642    2.7610829    2.6823596 
H     5.6841552    0.2708545    2.9475727 
H     4.2457692   -1.1305009    1.4777762 
H     2.8465499    2.4408069   -0.5424946 
H     4.2883213    3.8259683    0.9112223 
C    -1.6175088   -0.1685992    2.5119147 
C    -2.6100010    0.0776987    1.3638001 
C     1.2430438   -0.7896830    3.1161101 
C     0.4721294    2.0253707    2.3393399 
C    -3.0764635    0.4053505   -1.4763694 
C    -2.6111516   -2.3567044   -0.3949741 
C     1.1235164   -2.2862306    2.7703882 
C     1.0733589   -0.5344210    4.6237570 
C    -0.2158777    2.5869216    3.5972438 
C     0.1365407    2.8922836    1.1105521 
C    -3.2621162   -0.2539134   -2.8528874 
C    -2.5165613    1.8330503   -1.6070210 
C    -2.5075895   -3.1115077    0.9412513 
C    -1.8450619   -3.1066890   -1.5004504 
H    -1.6201187   -1.2310071    2.8089415 
H    -1.8906812    0.4164146    3.4067220 
H    -3.6028236   -0.3518034    1.5900726 
H    -2.7576766    1.1624304    1.2156279 
H     2.2483231   -0.4433848    2.8089133 
H     1.5710222    2.0335262    2.4797378 
H    -4.0619132    0.4470138   -0.9698900 
H    -3.6795698   -2.2744998   -0.6748802 
H     1.9214566   -2.8512955    3.2830939 
H     0.1585652   -2.7062469    3.1061446 
H     1.2174934   -2.4648610    1.6842143 
H     1.3373997    0.4979399    4.9022454 
H     1.7463188   -1.2078073    5.1841418 
H     0.0426292   -0.7394633    4.9637653 
H     0.1527223    3.6108538    3.7856656 
H    -1.3090234    2.6564471    3.4538879 
H    -0.0246669    1.9910482    4.5026507 
H     0.5662189    2.4775856    0.1829499 
H     0.5330704    3.9126851    1.2535573 
H    -0.9552357    2.9757670    0.9706919 
H    -3.9070120    0.3929166   -3.4731820 
H    -2.3032175   -0.3717682   -3.3817667 
H    -3.7537912   -1.2380156   -2.7847225 
H    -2.4492133    2.3509440   -0.6356368 
H    -3.1744143    2.4338872   -2.2589835 
H    -1.5098737    1.8147708   -2.0577017 
H    -2.8558239   -4.1497713    0.7995182 
H    -1.4612727   -3.1593138    1.2917427 
H    -3.1292949   -2.6634474    1.7341376 
H    -2.2982782   -4.1006312   -1.6615982 
H    -1.8484187   -2.5691119   -2.4612969 
H    -0.7924332   -3.2562069   -1.1994319 
