77
Energy =
C     0.9410822   -0.8560754   -2.3515046 
C     1.8654251   -0.0175478   -1.6903321 
C     2.4570644   -0.4222191   -0.4539547 
H     2.0316203    1.0017267   -2.0611621 
Pd    0.2465553   -0.3098917   -0.2188673 
P     0.0866633   -0.3300196    2.1032316 
P    -2.0863233   -0.1044057   -0.2593412 
H     0.9621730   -1.9216562   -2.0727078 
H     2.5971596   -1.5036156   -0.3101829 
C    -0.9704786   -0.1726453   -6.1429251 
C    -0.8651455   -1.4670992   -5.6128573 
C    -0.2454130   -1.6677410   -4.3736131 
C     0.2862498   -0.5809220   -3.6403121 
C     0.1875119    0.7155259   -4.1966109 
C    -0.4377952    0.9161277   -5.4309363 
H    -1.4581134   -0.0110097   -7.1095276 
H    -1.2660344   -2.3225003   -6.1660186 
H    -0.1646338   -2.6814424   -3.9648940 
H     0.5918895    1.5768353   -3.6557036 
H    -0.5097764    1.9275554   -5.8439751 
C     5.0630459    2.0332614    1.9468177 
C     4.1299260    2.6370660    1.0877055 
C     3.2854466    1.8500825    0.2975130 
C     3.3558649    0.4381696    0.3435003 
C     4.3128843   -0.1542204    1.1989261 
C     5.1543686    0.6337916    1.9946100 
H     5.7198075    2.6504920    2.5681106 
H     4.0563575    3.7285477    1.0389169 
H     2.5469104    2.3385666   -0.3476931 
H     4.4018841   -1.2451129    1.2320387 
H     5.8899246    0.1534196    2.6481664 
C    -1.6997042   -0.0140646    2.5704385 
C    -2.6855809   -0.4673791    1.4791352 
C     0.4726098   -1.9920573    2.8830466 
C     1.0872957    0.9371890    3.0459749 
C    -2.7119366    1.6270966   -0.6609937 
C    -3.1533053   -1.2831613   -1.2645748 
C     1.9716693   -2.3203927    2.8099001 
C    -0.3750431   -3.1097747    2.2498379 
C     0.9806121    0.8083997    4.5754759 
C     0.7385778    2.3549808    2.5579792 
C    -1.9319189    2.1967450   -1.8588047 
C    -2.6502406    2.5905267    0.5358310 
C    -2.5354756   -2.6922647   -1.2092667 
C    -3.3951860   -0.8255396   -2.7125866 
H    -1.9207179   -0.5091162    3.5329571 
H    -1.7848162    1.0721477    2.7397773 
H    -2.8247115   -1.5615888    1.5160827 
H    -3.6828151   -0.0151223    1.6282128 
H     0.1775221   -1.8781968    3.9441988 
H     2.1248024    0.7182210    2.7298892 
H    -3.7733649    1.4843526   -0.9425493 
H    -4.1247584   -1.2934334   -0.7306709 
H     2.1702190   -3.2590950    3.3562911 
H     2.2876367   -2.4683096    1.7635582 
H     2.6034179   -1.5324790    3.2517254 
H    -1.4560384   -2.9536351    2.4016807 
H    -0.1157466   -4.0791200    2.7103380 
H    -0.1816874   -3.1855185    1.1641788 
H     1.6050771    1.5849748    5.0516874 
H    -0.0566932    0.9571637    4.9253431 
H     1.3346742   -0.1692263    4.9423560 
H     0.7337601    2.4134460    1.4561179 
H     1.4925060    3.0687942    2.9307492 
H    -0.2469979    2.6837423    2.9330894 
H    -2.3565300    3.1722304   -2.1547757 
H    -0.8725616    2.3513186   -1.5833901 
H    -1.9561596    1.5335108   -2.7366589 
H    -3.2779264    2.2632606    1.3812771 
H    -3.0192856    3.5821438    0.2197830 
H    -1.6139895    2.7216332    0.8911873 
H    -3.1974181   -3.4137017   -1.7195687 
H    -1.5561174   -2.7054319   -1.7181371 
H    -2.3877716   -3.0483543   -0.1752810 
H    -4.0121662   -1.5815884   -3.2295476 
H    -3.9382446    0.1321134   -2.7648031 
H    -2.4515717   -0.7284834   -3.2729079 
