77
Energy =
C     1.0603169   -0.7542712   -2.3261095 
C     2.0081325    0.0137920   -1.6145272 
C     2.5589910   -0.4490338   -0.3808735 
H     2.2165534    1.0413385   -1.9375217 
Pd    0.3448322   -0.2849362   -0.1948172 
P     0.1175597   -0.2838546    2.1253961 
P    -1.9783914    0.0125092   -0.2757632 
H     1.0251516   -1.8319069   -2.1008892 
H     2.6684675   -1.5370600   -0.2621533 
C    -0.8083271    0.2380845   -6.0718914 
C    -0.8790255   -1.0644561   -5.5546390 
C    -0.2639145   -1.3685581   -4.3345016 
C     0.4316487   -0.3776900   -3.6031321 
C     0.5044403    0.9277045   -4.1439915 
C    -0.1098054    1.2303224   -5.3632951 
H    -1.2881686    0.4788546   -7.0258204 
H    -1.4111186   -1.8464687   -6.1059075 
H    -0.3191416   -2.3879408   -3.9367696 
H     1.0433239    1.7167546   -3.6096008 
H    -0.0428709    2.2460652   -5.7663466 
C     5.1414025    1.9083932    2.1430421 
C     5.2198770    0.5074319    2.1510380 
C     4.3883902   -0.2497198    1.3155997 
C     3.4541731    0.3753955    0.4591526 
C     3.3971246    1.7893037    0.4531671 
C     4.2311860    2.5456328    1.2832618 
H     5.7900445    2.5010072    2.7960120 
H     5.9376598    0.0014428    2.8050056 
H     4.4680824   -1.3418907    1.3191494 
H     2.6737282    2.3033453   -0.1890733 
H     4.1670856    3.6386672    1.2653834 
C    -1.6846817    0.0323735    2.5376425 
C    -2.4121858    0.7465414    1.3894709 
C     0.4821755   -1.9157296    2.9708415 
C     1.0760280    1.0437920    3.0254548 
C    -2.7085397    1.2850059   -1.4453411 
C    -2.9864662   -1.5688931   -0.3323671 
C     1.9893488   -2.2160915    2.9934135 
C    -0.2962276   -3.0578091    2.2914041 
C     0.9891762    0.9595769    4.5584473 
C     0.6462319    2.4233651    2.4912228 
C    -2.9860093    0.7495609   -2.8597893 
C    -1.7676390    2.5058155   -1.4828895 
C    -2.5010919   -2.5054740   -1.4542017 
C    -4.5100499   -1.3514466   -0.3406203 
H    -2.1492689   -0.9476414    2.7426296 
H    -1.7506700    0.6139696    3.4741174 
H    -3.5071620    0.7283884    1.5357245 
H    -2.1094544    1.8068397    1.3411776 
H     0.1161870   -1.7942853    4.0091597 
H     2.1205463    0.8640510    2.7092323 
H    -3.6681803    1.5805824   -0.9771941 
H    -2.7092893   -2.0400614    0.6310792 
H     2.1737273   -3.1372117    3.5734043 
H     2.3651354   -2.3827107    1.9700694 
H     2.5824510   -1.4054484    3.4469944 
H    -1.3893131   -2.9159737    2.3411040 
H    -0.0676526   -4.0142829    2.7929019 
H    -0.0088935   -3.1512958    1.2278961 
H     1.5914675    1.7721720    5.0019892 
H    -0.0472681    1.0839883    4.9204169 
H     1.3805357    0.0065464    4.9509987 
H     0.6539242    2.4508935    1.3872049 
H     1.3447209    3.1963889    2.8547686 
H    -0.3658874    2.6946775    2.8419280 
H    -3.3629920    1.5738238   -3.4901580 
H    -2.0724056    0.3594315   -3.3327591 
H    -3.7480162   -0.0453834   -2.8646783 
H    -1.5750757    2.9265249   -0.4806234 
H    -2.2166073    3.3038843   -2.0996285 
H    -0.7975489    2.2301034   -1.9318969 
H    -3.0281155   -3.4733955   -1.3868268 
H    -2.6918227   -2.0849162   -2.4551563 
H    -1.4173412   -2.6966217   -1.3672185 
H    -5.0212377   -2.3240895   -0.2293808 
H    -4.8469469   -0.7052870    0.4882045 
H    -4.8550233   -0.9025063   -1.2867530 
