77
Energy =
C     1.1721200   -0.9113862   -2.2167780 
C     1.9418692    0.0947595   -1.5932691 
C     2.5354499   -0.0907174   -0.3092110 
H     1.9709953    1.0948353   -2.0432163 
Pd    0.3186185   -0.3306835   -0.1552394 
P     0.0206480    0.0193263    2.1304866 
P    -2.0169499   -0.4479482   -0.3329531 
H     1.3190513   -1.9458965   -1.8686931 
H     2.8367892   -1.1132352   -0.0378243 
C    -0.6723013   -0.6616533   -6.0988251 
C    -0.1903017    0.5064260   -5.4841572 
C     0.4092228    0.4447493   -4.2224124 
C     0.5419293   -0.7898461   -3.5432371 
C     0.0720132   -1.9589942   -4.1854467 
C    -0.5330697   -1.8960351   -5.4464584 
H    -1.1438300   -0.6095897   -7.0852922 
H    -0.2832218    1.4712503   -5.9931939 
H     0.7756195    1.3687989   -3.7641975 
H     0.1909220   -2.9276218   -3.6878467 
H    -0.8898577   -2.8138222   -5.9248767 
C     4.6379953    3.0468086    1.7750924 
C     3.6045181    3.3704607    0.8801821 
C     2.9215970    2.3587236    0.1968850 
C     3.2555112    0.9969276    0.3895033 
C     4.3092019    0.6898410    1.2789347 
C     4.9904837    1.7023807    1.9667924 
H     5.1692153    3.8383867    2.3131452 
H     3.3259207    4.4171881    0.7192640 
H     2.1003127    2.6283228   -0.4759697 
H     4.6039844   -0.3548816    1.4241391 
H     5.8056416    1.4405265    2.6492920 
C    -1.8185827   -0.0384158    2.4858225 
C    -2.6636243    0.3151279    1.2525091 
C     0.7395025   -1.2529821    3.3057381 
C     0.6058072    1.6882264    2.7395280 
C    -2.8369267    0.6740560   -1.6056204 
C    -2.8733261   -2.1143716   -0.5041236 
C     2.2725391   -1.1626558    3.3631892 
C     0.2902621   -2.6751244    2.9265141 
C     0.4632675    1.8957020    4.2567580 
C    -0.0847355    2.8041403    1.9344364 
C    -3.0551526    0.0236053   -2.9814695 
C    -2.0345799    1.9834366   -1.7154081 
C    -3.0349609   -2.8601819    0.8300341 
C    -2.1184771   -2.9797005   -1.5282469 
H    -2.0396814   -1.0634301    2.8262319 
H    -2.0494657    0.6353200    3.3300581 
H    -3.7225523    0.0329447    1.3952373 
H    -2.6438748    1.4048904    1.0768160 
H     0.3191292   -0.9949197    4.2973598 
H     1.6789459    1.6909860    2.4718763 
H    -3.8286230    0.8953931   -1.1620700 
H    -3.8807479   -1.8726655   -0.8953870 
H     2.6527335   -1.8523456    4.1369409 
H     2.7119305   -1.4651950    2.3984140 
H     2.6390177   -0.1511967    3.6016147 
H    -0.8007693   -2.8095760    3.0075490 
H     0.7610300   -3.4059213    3.6069272 
H     0.5956320   -2.9238432    1.8935847 
H     0.8412974    2.8986842    4.5230964 
H    -0.5912265    1.8458380    4.5828303 
H     1.0415150    1.1602951    4.8399625 
H    -0.0210239    2.6178987    0.8481135 
H     0.4053525    3.7707495    2.1429245 
H    -1.1498030    2.9032513    2.2113017 
H    -3.5372106    0.7574834   -3.6509974 
H    -2.1043357   -0.2765246   -3.4488593 
H    -3.7174345   -0.8559351   -2.9290484 
H    -1.9167883    2.4892340   -0.7414938 
H    -2.5500970    2.6842379   -2.3952359 
H    -1.0281352    1.7868045   -2.1233199 
H    -3.5487319   -3.8204495    0.6477176 
H    -2.0540507   -3.0919288    1.2783888 
H    -3.6389289   -2.2998144    1.5629950 
H    -2.6680199   -3.9213708   -1.7033391 
H    -1.9934643   -2.4725473   -2.4972664 
H    -1.1127296   -3.2346106   -1.1472030 
