77
Energy =
C     1.0510360   -0.7342989   -2.3296575 
C     2.0171142    0.0808004   -1.6600145 
C     2.6363420   -0.3539534   -0.4665104 
H     2.1496480    1.1203044   -1.9857040 
Pd    0.3784803   -0.3236606   -0.2473014 
P    -0.0216829    0.4218485    1.9349518 
P    -1.8671791   -0.9258698   -0.3659402 
H     1.1974867   -1.8233592   -2.2871013 
H     2.6230308   -1.4375587   -0.2658491 
C    -1.3584377    0.6693804   -5.6204068 
C    -0.9099737    1.5736834   -4.6431683 
C    -0.1195555    1.1262104   -3.5793327 
C     0.2449448   -0.2366139   -3.4666551 
C    -0.2003483   -1.1298905   -4.4661698 
C    -0.9957451   -0.6829604   -5.5294072 
H    -1.9809638    1.0188036   -6.4502725 
H    -1.1841008    2.6319358   -4.7076895 
H     0.1973552    1.8388060   -2.8095024 
H     0.0886910   -2.1850652   -4.4136014 
H    -1.3270947   -1.3927942   -6.2944145 
C     5.5144679    1.7534977    1.9373356 
C     5.1142917    0.4497220    2.2700866 
C     4.1797822   -0.2207802    1.4727528 
C     3.6181840    0.3995922    0.3319795 
C     4.0364667    1.7103949    0.0050637 
C     4.9755197    2.3772749    0.7996516 
H     6.2493473    2.2787003    2.5556106 
H     5.5382719   -0.0475257    3.1485171 
H     3.8745685   -1.2416880    1.7309481 
H     3.6340933    2.2137661   -0.8797603 
H     5.2926368    3.3895148    0.5288798 
C    -1.8880350    0.4759979    2.1044646 
C    -2.6053511   -0.6429788    1.3338600 
C     0.6574854   -0.6087089    3.3431050 
C     0.4315416    2.2067711    2.3308289 
C    -2.8997953    0.0630556   -1.5727130 
C    -2.2461202   -2.7310159   -0.7095037 
C     0.5272762   -2.1128989    3.0505259 
C     0.0840226   -0.2362152    4.7213816 
C     0.2665811    3.0581839    1.0575214 
C     1.8333729    2.3717321    2.9396988 
C    -2.7677538    1.5663708   -1.2709219 
C    -4.3695484   -0.3812688   -1.6608722 
C    -1.4347141   -3.6505987    0.2198493 
C    -1.9992618   -3.0948307   -2.1823475 
H    -2.1693534    0.4695023    3.1722400 
H    -2.1804634    1.4631731    1.7049243 
H    -2.5167376   -1.6010112    1.8744413 
H    -3.6849273   -0.4291915    1.2388090 
H     1.7336454   -0.3491732    3.3136849 
H    -0.3222063    2.5286229    3.0765119 
H    -2.3983120   -0.1320415   -2.5401121 
H    -3.3235092   -2.8439658   -0.4784667 
H     1.0699982   -2.6934025    3.8171399 
H    -0.5270161   -2.4390161    3.0773128 
H     0.9434269   -2.3718602    2.0614154 
H     0.1468575    0.8449029    4.9307738 
H     0.6463142   -0.7637577    5.5121393 
H    -0.9729178   -0.5435114    4.8117354 
H     0.4399182    4.1230251    1.2921713 
H     0.9984730    2.7508460    0.2889279 
H    -0.7435059    2.9717483    0.6220668 
H     1.9315914    1.8723715    3.9168027 
H     2.0322848    3.4463414    3.0977855 
H     2.6158300    1.9836197    2.2699626 
H    -3.2105587    2.1511673   -2.0955572 
H    -3.3009229    1.8420579   -0.3431780 
H    -1.7104157    1.8651204   -1.1727219 
H    -4.4766722   -1.4347803   -1.9673079 
H    -4.8922639    0.2365387   -2.4124901 
H    -4.8973751   -0.2444399   -0.7000162 
H    -1.6837591   -4.7048434    0.0070788 
H    -0.3502434   -3.5159392    0.0551109 
H    -1.6444313   -3.4719871    1.2870450 
H    -2.3206684   -4.1356681   -2.3619825 
H    -2.5433526   -2.4467229   -2.8880857 
H    -0.9251049   -3.0295377   -2.4203572 
