77
Energy =
C     1.1971385   -1.0734176   -2.0930700 
C     2.0204204   -0.0463073   -1.5663909 
C     2.5949839   -0.1682621   -0.2715400 
H     2.1032860    0.9037127   -2.1092253 
Pd    0.3534271   -0.2623725   -0.1460606 
P     0.0290634    0.2315009    2.1243352 
P    -1.9502736   -0.6700145   -0.2293142 
H     1.3621760   -2.0871722   -1.6969075 
H     2.7545868   -1.1909392    0.1026708 
C    -0.6841072   -1.0193216   -5.9625502 
C    -0.4824428    0.1879749   -5.2709820 
C     0.1297031    0.1868255   -4.0138855 
C     0.5488226   -1.0243341   -3.4171953 
C     0.3442817   -2.2301404   -4.1255833 
C    -0.2631408   -2.2274189   -5.3878266 
H    -1.1656034   -1.0153368   -6.9456271 
H    -0.8089978    1.1340281   -5.7151346 
H     0.2608221    1.1322631   -3.4773910 
H     0.6708963   -3.1772758   -3.6815000 
H    -0.4091351   -3.1711428   -5.9231746 
C     5.1554236    2.7413621    1.6036462 
C     5.1629517    1.4023227    2.0219939 
C     4.3203109    0.4692296    1.4046472 
C     3.4489996    0.8554056    0.3605833 
C     3.4498803    2.2099282   -0.0478332 
C     4.2971990    3.1395615    0.5642291 
H     5.8155071    3.4718954    2.0818866 
H     5.8334556    1.0818706    2.8259841 
H     4.3431525   -0.5793929    1.7238438 
H     2.7737632    2.5445580   -0.8417086 
H     4.2857075    4.1833667    0.2339892 
C    -1.7706438   -0.1220711    2.5236553 
C    -2.4078347   -1.1038154    1.5304594 
C     1.0327484   -0.8949645    3.2348876 
C     0.2369112    1.9829691    2.7722193 
C    -2.9369880    0.8981926   -0.5391405 
C    -2.7099950   -2.0816504   -1.2011466 
C     0.9268034   -2.3556122    2.7561781 
C     0.7029890   -0.7613341    4.7320672 
C    -0.2944293    2.9685732    1.7141472 
C     1.6765626    2.3290257    3.1846527 
C    -4.4622773    0.6946580   -0.5416212 
C    -2.4177082    1.6638613   -1.7695305 
C    -1.8313819   -3.3362582   -1.0349068 
C    -2.9488660   -1.7494846   -2.6846534 
H    -1.8509324   -0.4923670    3.5603989 
H    -2.2948270    0.8500519    2.4979311 
H    -2.0414996   -2.1303775    1.7044666 
H    -3.5068808   -1.1271885    1.6416239 
H     2.0671987   -0.5418694    3.0559627 
H    -0.4144925    2.0267857    3.6676361 
H    -2.6745951    1.5016583    0.3513679 
H    -3.6875007   -2.2602307   -0.7110376 
H     1.6386494   -2.9874436    3.3155465 
H    -0.0843990   -2.7636012    2.9335888 
H     1.1503184   -2.4523831    1.6786504 
H     0.7603963    0.2793979    5.0908693 
H     1.4211007   -1.3586997    5.3213795 
H    -0.3057876   -1.1489719    4.9592408 
H    -0.2466748    4.0004349    2.1034542 
H     0.3159267    2.9161506    0.7948967 
H    -1.3444988    2.7668215    1.4387587 
H     2.0611648    1.6732547    3.9818721 
H     1.6997012    3.3643092    3.5678332 
H     2.3649956    2.2739936    2.3288513 
H    -4.9629352    1.6785408   -0.5743115 
H    -4.8001064    0.1226971   -1.4214510 
H    -4.8181782    0.1735360    0.3637680 
H    -1.3388855    1.8752791   -1.6692738 
H    -2.9508019    2.6266383   -1.8611434 
H    -2.5686751    1.1015076   -2.7053368 
H    -2.3245880   -4.2015487   -1.5111529 
H    -0.8529919   -3.1912523   -1.5226510 
H    -1.6532763   -3.5946771    0.0234292 
H    -3.3242201   -2.6505272   -3.2006954 
H    -3.7000524   -0.9555846   -2.8184255 
H    -2.0208011   -1.4393816   -3.1882238 
