77
Energy =
C     0.5064985   -0.6650814   -2.5915832 
C     1.4898412    0.2405045   -2.1137453 
C     2.3777642   -0.1344460   -1.0679695 
H     1.4645363    1.2851517   -2.4485306 
Pd    0.2611121   -0.2787536   -0.3623015 
P     0.6033437    0.1371803    1.9051791 
P    -1.9738482   -0.7127188    0.1737934 
H     0.7199650   -1.7378273   -2.4712187 
H     2.5892650   -1.2099058   -0.9633872 
C    -2.4078851    0.1834941   -5.6466336 
C    -1.8339722    1.2409307   -4.9205940 
C    -0.8862110    0.9812609   -3.9254767 
C    -0.4879256   -0.3441494   -3.6328556 
C    -1.0656592   -1.3964922   -4.3796728 
C    -2.0165970   -1.1360173   -5.3746518 
H    -3.1520486    0.3890741   -6.4226194 
H    -2.1312387    2.2737156   -5.1299896 
H    -0.4609186    1.8181616   -3.3610929 
H    -0.7567656   -2.4285570   -4.1801202 
H    -2.4496831   -1.9656054   -5.9428636 
C     5.3073020    2.3614673    0.8696162 
C     5.4014968    0.9631963    0.9287004 
C     4.4480114    0.1674457    0.2803342 
C     3.3776680    0.7503869   -0.4376856 
C     3.3081925    2.1613721   -0.5032848 
C     4.2604604    2.9556426    0.1440037 
H     6.0505857    2.9863368    1.3749201 
H     6.2234820    0.4899662    1.4756639 
H     4.5333077   -0.9249002    0.3204842 
H     2.4991514    2.6466550   -1.0582982 
H     4.1888416    4.0464947    0.0808419 
C    -2.1954130   -0.1802370    1.9610849 
C    -0.9353764   -0.3996495    2.8142138 
C    -3.3720062    0.2378662   -0.6526470 
C    -2.4738636   -2.5253074    0.1066478 
C     2.0213061   -0.8084092    2.6720233 
C     0.8932258    1.9607484    2.2675687 
C    -3.8484051   -0.3694816   -1.9824096 
C    -2.9575069    1.7103096   -0.8228821 
C    -1.9895546   -3.3281507    1.3261070 
C    -1.9606142   -3.1621723   -1.1980821 
C     1.9254282   -2.2959275    2.2833406 
C     2.2092791   -0.6210872    4.1873991 
C     0.4779908    2.4173332    3.6782327 
C     0.2283416    2.8474481    1.1973447 
H    -2.4453622    0.8951216    1.9226240 
H    -3.0708942   -0.6965691    2.3949660 
H    -1.0158645    0.1200272    3.7842823 
H    -0.7944500   -1.4713818    3.0339844 
H    -4.2021657    0.1771128    0.0798642 
H    -3.5813697   -2.5157995    0.1040752 
H     2.8940421   -0.3712440    2.1503497 
H     1.9919403    2.0471726    2.1555310 
H    -4.6678181    0.2519657   -2.3841836 
H    -3.0444505   -0.3857006   -2.7351060 
H    -4.2422471   -1.3917565   -1.8604071 
H    -2.6903722    2.1873843    0.1350755 
H    -3.7932231    2.2855187   -1.2581636 
H    -2.0923338    1.7939133   -1.5022938 
H    -2.2912474   -4.3838796    1.2088604 
H    -0.8879594   -3.3065634    1.4052819 
H    -2.4224282   -2.9676890    2.2740574 
H    -2.2376339   -2.5834999   -2.0927813 
H    -2.3746021   -4.1801971   -1.3054981 
H    -0.8589570   -3.2419381   -1.1742964 
H     2.8612492   -2.8132815    2.5580178 
H     1.1024449   -2.8046703    2.8164356 
H     1.7649878   -2.4258509    1.1981783 
H     2.4563490    0.4198738    4.4491538 
H     3.0475289   -1.2536046    4.5303600 
H     1.3121539   -0.9248218    4.7555936 
H     0.8141733    3.4573340    3.8369085 
H    -0.6210443    2.4103819    3.7895673 
H     0.9091667    1.8003890    4.4813955 
H     0.5771948    3.8893232    1.3056087 
H     0.4618320    2.5055678    0.1747978 
H    -0.8695439    2.8500963    1.3108569 
