77
Energy =
C     0.4992896   -0.5585000   -2.4937674 
C     1.4416768    0.4061489   -2.0560007 
C     2.3738299    0.1013907   -1.0286554 
H     1.3570525    1.4379464   -2.4183487 
Pd    0.2734787   -0.1443307   -0.2661502 
P     0.6076365    0.1292514    2.0340243 
P    -1.9304679   -0.7591743    0.2573868 
H     0.7715546   -1.6146380   -2.3496575 
H     2.6258892   -0.9613230   -0.8921247 
C    -2.4407380    0.0434603   -5.5788670 
C    -1.9392639    1.1501834   -4.8728130 
C    -0.9860545    0.9714499   -3.8652128 
C    -0.5119317   -0.3209212   -3.5402043 
C    -1.0210348   -1.4241176   -4.2628747 
C    -1.9752778   -1.2440555   -5.2721023 
H    -3.1882841    0.1861510   -6.3656646 
H    -2.2975097    2.1576907   -5.1081195 
H    -0.6181129    1.8443089   -3.3152306 
H    -0.6581880   -2.4314725   -4.0304223 
H    -2.3546224   -2.1109086   -5.8227912 
C     5.3807560    2.7563660    0.5393256 
C     5.4330623    1.3779956    0.7965556 
C     4.4470183    0.5294534    0.2780698 
C     3.3811761    1.0401835   -0.4982619 
C     3.3425534    2.4318136   -0.7492014 
C     4.3343725    3.2773692   -0.2404774 
H     6.1532158    3.4214066    0.9381992 
H     6.2507116    0.9613079    1.3936724 
H     4.5045168   -0.5494108    0.4641316 
H     2.5285273    2.8629745   -1.3410148 
H     4.2897700    4.3512488   -0.4489534 
C    -2.1912552   -0.2548338    2.0403593 
C    -0.9340935   -0.5127914    2.8806909 
C    -3.4085774    0.0348292   -0.5826869 
C    -2.1701216   -2.6233642    0.3321325 
C     1.9943769   -0.8718769    2.7888652 
C     0.7806653    1.8906156    2.6772344 
C    -3.7781788   -0.5986063   -1.9340128 
C    -3.1393746    1.5451802   -0.7293796 
C    -1.6415010   -3.3251522   -0.9319367 
C    -3.6007755   -3.0561260    0.7015702 
C     2.0047944   -2.2952047    2.2010941 
C     1.9696821   -0.8827808    4.3287015 
C    -0.0631444    2.8434223    1.8085349 
C     2.2421699    2.3618558    2.7630285 
H    -2.4464853    0.8184806    2.0357200 
H    -3.0643722   -0.7905320    2.4534395 
H    -1.0237007   -0.0646936    3.8859114 
H    -0.7845297   -1.5984919    3.0247368 
H    -4.2453118   -0.1178778    0.1274316 
H    -1.4971438   -2.8997171    1.1686399 
H     2.9027626   -0.3456676    2.4397070 
H     0.3532928    1.8606028    3.6984078 
H    -4.6391740   -0.0556527   -2.3614360 
H    -2.9493892   -0.5298564   -2.6537380 
H    -4.0695696   -1.6562356   -1.8375795 
H    -2.9277186    2.0361005    0.2357746 
H    -4.0244527    2.0394920   -1.1665134 
H    -2.2814983    1.7215063   -1.4008210 
H    -1.7375425   -4.4192604   -0.8181223 
H    -2.2005270   -3.0285682   -1.8347168 
H    -0.5761883   -3.0913670   -1.0966505 
H    -3.9675847   -2.5656455    1.6192835 
H    -3.6192212   -4.1457802    0.8801707 
H    -4.3151939   -2.8416924   -0.1103574 
H     2.8833777   -2.8494038    2.5752463 
H     1.1062473   -2.8663555    2.4974569 
H     2.0491877   -2.2807984    1.0984410 
H     1.9458415    0.1325031    4.7588564 
H     2.8756860   -1.3864154    4.7099390 
H     1.0969942   -1.4394907    4.7125709 
H    -0.0037604    3.8693055    2.2124033 
H     0.3119567    2.8584043    0.7694347 
H    -1.1275548    2.5568519    1.7811866 
H     2.2606889    3.4066150    3.1203071 
H     2.8408595    1.7621850    3.4669901 
H     2.7347551    2.3370401    1.7792348 
