77
Energy =
C     0.5854104   -0.7255650   -2.6312616 
C     1.5883395    0.1824753   -2.1781621 
C     2.5061818   -0.1876653   -1.1628258 
H     1.5268348    1.2330647   -2.4891631 
Pd    0.3994832   -0.3812643   -0.4211833 
P     0.6218217    0.2768018    1.8054481 
P    -1.8126263   -0.9194044    0.0627489 
H     0.8319908   -1.7979501   -2.6129971 
H     2.7012204   -1.2643853   -1.0359757 
C    -2.5960389    0.3573096   -5.3332067 
C    -2.0356290    1.3288071   -4.4868259 
C    -0.9995122    0.9873053   -3.6111642 
C    -0.4951447   -0.3339827   -3.5618712 
C    -1.0623635   -1.2962967   -4.4264685 
C    -2.1023800   -0.9555497   -5.3009398 
H    -3.4089113    0.6242724   -6.0160404 
H    -2.4127287    2.3567841   -4.5063445 
H    -0.5932562    1.7507578   -2.9385426 
H    -0.6756465   -2.3214095   -4.4182463 
H    -2.5241407   -1.7170647   -5.9650619 
C     5.3316589    2.3387924    0.8794734 
C     5.2629243    0.9636204    1.1551137 
C     4.3591346    0.1531541    0.4584231 
C     3.4956864    0.6984855   -0.5211025 
C     3.5938698    2.0799598   -0.8044443 
C     4.5005033    2.8892650   -0.1099502 
H     6.0385245    2.9751966    1.4212740 
H     5.9210384    0.5212112    1.9101662 
H     4.3110500   -0.9197520    0.6772702 
H     2.9568056    2.5329590   -1.5705052 
H     4.5619761    3.9569742   -0.3445582 
C    -2.0604527   -0.6265194    1.8990163 
C    -1.1241728    0.4641758    2.4471920 
C    -3.0641242    0.1538480   -0.8212500 
C    -2.3627134   -2.6914599   -0.1950733 
C     1.5745328   -0.8708151    2.9591732 
C     1.4091537    1.9613925    2.0128480 
C    -2.7823082    1.6406477   -0.5359877 
C    -4.5299791   -0.2196139   -0.5445205 
C    -1.4135817   -3.6714768    0.5169036 
C    -2.4638778   -3.0215525   -1.6935514 
C     1.7526728   -2.2660107    2.3332694 
C     0.9915374   -0.9687273    4.3802575 
C     1.4210522    2.4882416    3.4581174 
C     0.7800212    2.9637669    1.0291288 
H    -3.1182449   -0.3783601    2.0984669 
H    -1.8578284   -1.5894672    2.4000270 
H    -1.4507475    1.4607244    2.1021864 
H    -1.1412665    0.4839329    3.5500450 
H    -2.8333255   -0.0341230   -1.8873575 
H    -3.3663942   -2.7590875    0.2680794 
H     2.5678684   -0.3833278    3.0067484 
H     2.4522033    1.7785590    1.6929002 
H    -3.3669889    2.2692811   -1.2297308 
H    -3.0777920    1.9176610    0.4918746 
H    -1.7143358    1.8857879   -0.6701130 
H    -4.7662236   -1.2542082   -0.8430330 
H    -5.1924135    0.4501113   -1.1212616 
H    -4.7895137   -0.0983489    0.5224879 
H    -1.7574364   -4.7071775    0.3504836 
H    -0.3871120   -3.5842133    0.1173468 
H    -1.3759040   -3.5109148    1.6077168 
H    -3.1329520   -2.3398864   -2.2434679 
H    -2.8492064   -4.0483864   -1.8202023 
H    -1.4691198   -2.9718821   -2.1662177 
H     2.4273514   -2.8758600    2.9596424 
H     0.7889365   -2.7977808    2.2629363 
H     2.1817526   -2.2081393    1.3186331 
H     0.8607626    0.0151264    4.8590774 
H     1.6722470   -1.5626875    5.0154768 
H     0.0145178   -1.4842960    4.3759004 
H     1.9145023    3.4761492    3.4813651 
H     0.3995409    2.6183896    3.8573970 
H     1.9820040    1.8260064    4.1377892 
H     1.3721832    3.8950700    1.0207387 
H     0.7632294    2.5606801    0.0010508 
H    -0.2541315    3.2278640    1.3144138 
