77
Energy =
C     0.4153086   -0.3788092   -2.7087727 
C     1.5377820    0.3334805   -2.2061050 
C     2.4019494   -0.2729503   -1.2533987 
H     1.6330540    1.4058140   -2.4152316 
Pd    0.3131205   -0.2146399   -0.4654327 
P     0.7316414   -0.2043672    1.8295064 
P    -1.9525350   -0.4235410    0.0484945 
H     0.4836055   -1.4774934   -2.7011319 
H     2.4684820   -1.3711606   -1.2806624 
C    -2.6092365    1.1075185   -5.3897156 
C    -2.5200835   -0.2607741   -5.0914743 
C    -1.5247195   -0.7266533   -4.2238793 
C    -0.6029029    0.1645649   -3.6273618 
C    -0.7046989    1.5405177   -3.9385599 
C    -1.6937365    2.0038802   -4.8130675 
H    -3.3828628    1.4740316   -6.0718286 
H    -3.2224862   -0.9683511   -5.5440731 
H    -1.4509480   -1.7983864   -4.0048107 
H    -0.0111750    2.2598382   -3.4909313 
H    -1.7538725    3.0722056   -5.0450784 
C     5.5876414    1.5678279    0.9834259 
C     5.4160017    0.1744633    0.9860126 
C     4.3911662   -0.4074778    0.2300117 
C     3.5098252    0.3890335   -0.5386581 
C     3.7053880    1.7891133   -0.5434488 
C     4.7328952    2.3696550    0.2087785 
H     6.3884532    2.0259927    1.5724598 
H     6.0868793   -0.4606199    1.5738019 
H     4.2630828   -1.4962806    0.2338414 
H     3.0434871    2.4358395   -1.1282565 
H     4.8680149    3.4561196    0.1919580 
C    -2.0283853   -0.7650918    1.8919961 
C    -0.9282993   -0.0181133    2.6667629 
C    -3.0406437    1.0895100   -0.2019243 
C    -2.8552332   -1.8558505   -0.7451173 
C     1.5355785   -1.7764268    2.4935098 
C     1.7911323    1.2142237    2.4288451 
C    -3.6181981    1.1632578   -1.6264327 
C    -2.2531569    2.3680396    0.1415304 
C    -4.2577752   -2.0951671   -0.1571979 
C    -1.9897091   -3.1281269   -0.7165677 
C     1.3621230   -2.9514883    1.5129770 
C     1.0823863   -2.1735574    3.9104316 
C     2.0003762    1.2729764    3.9515761 
C     1.2610735    2.5422413    1.8591836 
H    -3.0302448   -0.5109654    2.2814570 
H    -1.9013068   -1.8572258    2.0098843 
H    -1.1367182    1.0655636    2.6897925 
H    -0.8816181   -0.3565691    3.7154662 
H    -3.8712085    0.9717115    0.5211913 
H    -2.9479721   -1.5294447   -1.7985159 
H     2.6075340   -1.4991142    2.5189736 
H     2.7628719    1.0004679    1.9449359 
H    -4.2044645    2.0934154   -1.7289576 
H    -2.8202317    1.1854834   -2.3855849 
H    -4.2922547    0.3224269   -1.8557578 
H    -1.8746561    2.3666222    1.1766560 
H    -2.9067979    3.2504522    0.0270044 
H    -1.3902861    2.4876304   -0.5379133 
H    -4.7740667   -2.8811377   -0.7365004 
H    -4.1998274   -2.4411169    0.8897603 
H    -4.8883808   -1.1907293   -0.1866671 
H    -0.9855721   -2.9477177   -1.1385306 
H    -2.4753126   -3.9241169   -1.3077543 
H    -1.8655117   -3.5138686    0.3111664 
H     1.9206052   -3.8310487    1.8790267 
H     0.3016863   -3.2436691    1.4205207 
H     1.7328859   -2.7039213    0.5046920 
H     1.1715108   -1.3517963    4.6386275 
H     1.7056770   -3.0106218    4.2716442 
H     0.0346642   -2.5232640    3.9093737 
H     2.6329585    2.1444278    4.1972861 
H     1.0460038    1.3925724    4.4948042 
H     2.5141492    0.3767425    4.3358852 
H     2.0058733    3.3386304    2.0294710 
H     1.0784087    2.4713073    0.7725460 
H     0.3218117    2.8540560    2.3500325 
