77
Energy =
C     0.8005494   -0.7638074   -2.6300229 
C     1.7179866    0.2403579   -2.2092493 
C     2.6093981   -0.0218117   -1.1312613 
H     1.6056461    1.2656229   -2.5829741 
Pd    0.4958220   -0.2819840   -0.4671157 
P     0.6097591    0.1961494    1.8103381 
P    -1.7507060   -0.7897139   -0.1373816 
H     1.1032706   -1.8089366   -2.4618121 
H     2.8935363   -1.0736763   -0.9744083 
C    -2.4521498   -0.3711677   -5.4269098 
C    -1.8138650    0.7822458   -4.9399395 
C    -0.7426713    0.6749667   -4.0468157 
C    -0.2845828   -0.5913495   -3.6152571 
C    -0.9233420   -1.7434687   -4.1309647 
C    -1.9968118   -1.6356360   -5.0242473 
H    -3.2899085   -0.2831550   -6.1259849 
H    -2.1525452    1.7723895   -5.2623767 
H    -0.2619700    1.5879629   -3.6807977 
H    -0.5649638   -2.7342784   -3.8277507 
H    -2.4739708   -2.5411890   -5.4131298 
C     5.1380189    2.7577960    0.9711489 
C     5.2326787    1.3766095    1.2047154 
C     4.4216599    0.4870395    0.4898825 
C     3.4926166    0.9565027   -0.4686825 
C     3.4194655    2.3485063   -0.7029534 
C     4.2334786    3.2369081    0.0091216 
H     5.7719322    3.4559980    1.5269323 
H     5.9452920    0.9916990    1.9415843 
H     4.4994555   -0.5905663    0.6765388 
H     2.7146813    2.7467783   -1.4399763 
H     4.1624476    4.3117340   -0.1876023 
C    -1.9999814   -0.8597107    1.7143021 
C    -1.1605202    0.2244474    2.4168052 
C    -2.9314612    0.5030462   -0.8299269 
C    -2.2935037   -2.4397392   -0.8265240 
C     1.5483392   -1.0785145    2.8357563 
C     1.3536131    1.8563504    2.2391357 
C    -2.2359269    1.8709328   -0.9641060 
C    -4.2594459    0.6397122   -0.0630515 
C    -3.7457175   -2.8435633   -0.5191356 
C    -1.2887694   -3.5333234   -0.4181268 
C     1.7134781   -2.4017371    2.0642164 
C     0.9615964   -1.3243730    4.2376168 
C     1.3789008    2.1890190    3.7406048 
C     0.6850415    2.9633795    1.4050332 
H    -3.0684595   -0.7688992    1.9745611 
H    -1.6734388   -1.8667120    2.0324160 
H    -1.5505114    1.2296189    2.1750079 
H    -1.2066855    0.1167894    3.5137012 
H    -3.1278509    0.1157383   -1.8494008 
H    -2.1930203   -2.2698745   -1.9165341 
H     2.5468008   -0.6097805    2.9368619 
H     2.3945338    1.7430157    1.8803520 
H    -2.8862881    2.5663209   -1.5232609 
H    -2.0381831    2.3191891    0.0247790 
H    -1.2764152    1.7882892   -1.5005066 
H    -4.7817881   -0.3194069    0.0778790 
H    -4.9356264    1.3107175   -0.6218609 
H    -4.0978712    1.0939280    0.9307621 
H    -3.9485026   -3.8377367   -0.9559688 
H    -3.9307487   -2.9155628    0.5673879 
H    -4.4734204   -2.1397987   -0.9538117 
H    -0.2487704   -3.2349752   -0.6395883 
H    -1.5058301   -4.4640549   -0.9708193 
H    -1.3571057   -3.7689581    0.6591543 
H     2.3451177   -3.0979549    2.6437565 
H     0.7396706   -2.8939714    1.8963594 
H     2.1875835   -2.2449626    1.0806673 
H     0.8184411   -0.3958604    4.8132207 
H     1.6465849   -1.9726068    4.8122767 
H    -0.0094576   -1.8473717    4.1771164 
H     1.8396345    3.1824471    3.8851269 
H     0.3619980    2.2294770    4.1701272 
H     1.9758501    1.4641888    4.3180404 
H     1.2659587    3.8968693    1.4993933 
H     0.6446248    2.6934009    0.3355990 
H    -0.3426752    3.1740447    1.7519575 
