77
Energy =
C     0.3740104   -0.3717971   -2.5673635 
C     1.5256204    0.3025768   -2.0768353 
C     2.3553005   -0.2962090   -1.0941751 
H     1.6882153    1.3531695   -2.3463717 
Pd    0.2374800   -0.1119722   -0.3359028 
P     0.5397893   -0.1176788    1.9835226 
P    -2.0416298   -0.4488647    0.0491587 
H     0.3932306   -1.4712532   -2.5320666 
H     2.3392869   -1.3956037   -1.0374777 
C    -2.4653296    1.1846818   -5.4071989 
C    -2.4081190   -0.1886590   -5.1263737 
C    -1.4734641   -0.6787141   -4.2056697 
C    -0.5836507    0.1931806   -3.5372428 
C    -0.6513939    1.5746987   -3.8336532 
C    -1.5779942    2.0621558   -4.7613205 
H    -3.1917269    1.5699804   -6.1297294 
H    -3.0866050   -0.8818376   -5.6343876 
H    -1.4195460   -1.7553595   -4.0058854 
H     0.0153542    2.2797861   -3.3263875 
H    -1.6136439    3.1346026   -4.9788758 
C     5.8911878    1.4123905    0.6682419 
C     5.6366069    0.0354027    0.7559561 
C     4.4793440   -0.5020003    0.1788317 
C     3.5507212    0.3249560   -0.4944514 
C     3.8205023    1.7112000   -0.5737072 
C     4.9792586    2.2462874   -0.0013273 
H     6.7959842    1.8352184    1.1161451 
H     6.3448981   -0.6226314    1.2697257 
H     4.2905175   -1.5802061    0.2398827 
H     3.1168760    2.3809536   -1.0790576 
H     5.1727157    3.3214561   -0.0739738 
C    -2.1992939   -0.8976578    1.8624303 
C    -1.1727032   -0.1660614    2.7411443 
C    -3.2435066    0.9726965   -0.1934703 
C    -2.7905354   -1.9024767   -0.8626944 
C     1.4608068   -1.6239150    2.6126840 
C     1.2981833    1.3726771    2.8459604 
C    -3.6051026    1.1738324   -1.6747262 
C    -2.6811741    2.2653129    0.4242989 
C    -4.2327912   -2.2205554   -0.4282724 
C    -1.8765890   -3.1375152   -0.7728761 
C     1.0222135   -2.8988918    1.8697458 
C     1.3950339   -1.8012017    4.1399600 
C     0.8746702    2.6493205    2.0950822 
C     2.8255349    1.2949448    3.0016525 
H    -3.2292156   -0.6968770    2.2074838 
H    -2.0456623   -1.9897044    1.9220065 
H    -1.4634769    0.8903173    2.8768417 
H    -1.1221753   -0.6117937    3.7498873 
H    -4.1515308    0.6747489    0.3663146 
H    -2.7943643   -1.5541667   -1.9129424 
H     2.5032393   -1.3956617    2.3163378 
H     0.8353031    1.3762696    3.8526602 
H    -4.3079361    2.0209083   -1.7634125 
H    -2.7140560    1.4099596   -2.2779060 
H    -4.0938390    0.2912166   -2.1180301 
H    -2.5142302    2.1720942    1.5103922 
H    -3.3964112    3.0923657    0.2714734 
H    -1.7250554    2.5455379   -0.0527691 
H    -4.6333922   -3.0402623   -1.0508681 
H    -4.2729251   -2.5553966    0.6232350 
H    -4.9086487   -1.3567917   -0.5427911 
H    -0.8438552   -2.9060884   -1.0856814 
H    -2.2639141   -3.9363626   -1.4291881 
H    -1.8380683   -3.5458071    0.2525829 
H     1.6767535   -3.7419366    2.1526797 
H    -0.0120572   -3.1835879    2.1311982 
H     1.0753368   -2.7726385    0.7743667 
H     1.6751717   -0.8864143    4.6884526 
H     2.0887768   -2.6028286    4.4495148 
H     0.3834492   -2.1016336    4.4653497 
H     1.2416998    3.5401803    2.6341405 
H     1.3049342    2.6593802    1.0778381 
H    -0.2202863    2.7402822    2.0034412 
H     3.1809042    2.2149192    3.4982385 
H     3.1475192    0.4420325    3.6202166 
H     3.3294687    1.2273198    2.0259878 
