77
Energy =
C     0.7008370   -0.6003670   -2.5521840 
C     1.6459759    0.3418202   -2.0581008 
C     2.5840139    0.0002803   -1.0517163 
H     1.5399718    1.3947616   -2.3470954 
Pd    0.4637406   -0.3412996   -0.3277413 
P     0.5792385    0.1708530    1.9367829 
P    -1.7680259   -0.9383118    0.0477275 
H     0.9931297   -1.6611691   -2.5343373 
H     2.8493103   -1.0639330   -0.9529652 
C    -2.4690807    0.3409665   -5.3200524 
C    -1.8891540    1.3619670   -4.5485954 
C    -0.8547090    1.0693988   -3.6536942 
C    -0.3701008   -0.2527051   -3.5089314 
C    -0.9531867   -1.2648405   -4.3047665 
C    -1.9927672   -0.9729249   -5.1969830 
H    -3.2807550    0.5707259   -6.0176633 
H    -2.2487658    2.3919970   -4.6428452 
H    -0.4348000    1.8765666   -3.0444673 
H    -0.5788725   -2.2913385   -4.2283435 
H    -2.4263883   -1.7734777   -5.8052189 
C     5.3965042    2.6660299    0.8327301 
C     4.3547020    3.1945131    0.0522942 
C     3.4408765    2.3430731   -0.5773467 
C     3.5438460    0.9387458   -0.4393018 
C     4.6139340    0.4226938    0.3277445 
C     5.5270449    1.2746835    0.9605692 
H     6.1090333    3.3348611    1.3259309 
H     4.2554561    4.2784297   -0.0672218 
H     2.6346559    2.7804708   -1.1742863 
H     4.7301756   -0.6621630    0.4230145 
H     6.3477027    0.8512166    1.5487512 
C    -2.1727043   -0.5573617    1.8403829 
C    -1.1884485    0.4322279    2.4896378 
C    -2.9314776    0.0858687   -0.9972451 
C    -2.1519021   -2.7704163   -0.1105569 
C     1.3005848   -1.1121877    3.0938971 
C     1.4460713    1.7823856    2.3258121 
C    -2.6626516    1.5747718   -0.7002602 
C    -4.4261969   -0.2579455   -0.8951365 
C    -1.9712767   -3.2396603   -1.5629343 
C    -3.4872847   -3.2450628    0.4947455 
C     2.8070336   -1.2762497    2.8322084 
C     0.5675516   -2.4596694    2.9681033 
C     1.5058528    2.1228218    3.8247801 
C     0.8253322    2.9197997    1.4932637 
H    -3.2099087   -0.1850714    1.9143169 
H    -2.1471649   -1.5242947    2.3694165 
H    -1.4372224    1.4648688    2.1898991 
H    -1.2531076    0.3876612    3.5916764 
H    -2.5852470   -0.1236200   -2.0268586 
H    -1.3319286   -3.2054042    0.4944332 
H     1.1448594   -0.7138264    4.1148443 
H     2.4724037    1.6124050    1.9492925 
H    -3.1717216    2.2003341   -1.4536695 
H    -3.0499083    1.8649798    0.2933239 
H    -1.5836136    1.8093607   -0.7346181 
H    -4.6479835   -1.2582328   -1.2979261 
H    -5.0054394    0.4726346   -1.4874894 
H    -4.7972964   -0.2092202    0.1441346 
H    -2.0992366   -4.3347375   -1.6205733 
H    -2.7126692   -2.7776360   -2.2377479 
H    -0.9659871   -2.9925993   -1.9395430 
H    -3.6449552   -2.8835148    1.5245379 
H    -3.4877551   -4.3489925    0.5299305 
H    -4.3498139   -2.9331951   -0.1137217 
H     3.2333337   -1.9955349    3.5533176 
H     2.9811675   -1.6710294    1.8159590 
H     3.3629230   -0.3293163    2.9302054 
H    -0.4887017   -2.3954037    3.2769629 
H     1.0540356   -3.2082399    3.6176168 
H     0.6091018   -2.8365537    1.9295966 
H     2.0398950    3.0799059    3.9614308 
H     0.4964941    2.2418642    4.2574077 
H     2.0468356    1.3587257    4.4075191 
H     1.4818543    3.8056176    1.5302893 
H     0.7065880    2.6274823    0.4350368 
H    -0.1638576    3.2197368    1.8826151 
