77
Energy =
C     0.6791472   -0.7378702   -2.4693983 
C     1.5414903    0.2960686   -2.0429087 
C     2.4444295    0.1038718   -0.9532386 
H     1.4160651    1.3038890   -2.4577936 
Pd    0.3535172   -0.2196646   -0.2557415 
P     0.6442602   -0.0237820    2.0489362 
P    -1.9320416   -0.4652288    0.2009462 
H     0.9588702   -1.7653108   -2.1875652 
H     2.8408691   -0.9118842   -0.8088853 
C    -2.1465985   -0.5983930   -5.7103228 
C    -1.7826806   -1.8203961   -5.1241980 
C    -0.8606967   -1.8458010   -4.0711526 
C    -0.2855862   -0.6513201   -3.5782257 
C    -0.6533425    0.5713602   -4.1878241 
C    -1.5737363    0.5956298   -5.2404148 
H    -2.8671792   -0.5753218   -6.5340019 
H    -2.2150523   -2.7565611   -5.4919000 
H    -0.5770800   -2.8028519   -3.6195617 
H    -0.2199573    1.5139553   -3.8383281 
H    -1.8462354    1.5512403   -5.6999476 
C     4.8554697    3.2391785    0.7649233 
C     5.2750178    1.9015517    0.8245013 
C     4.4934932    0.8915507    0.2485883 
C     3.2710132    1.1941529   -0.3923491 
C     2.8689855    2.5493914   -0.4557862 
C     3.6521574    3.5586846    0.1140270 
H     5.4651203    4.0290413    1.2151815 
H     6.2195805    1.6437654    1.3146326 
H     4.8376207   -0.1473034    0.2880226 
H     1.9195884    2.8147932   -0.9334466 
H     3.3197125    4.6004597    0.0566590 
C    -2.1584021    0.3224707    1.8826615 
C    -1.0458483   -0.0833086    2.8599566 
C    -3.1851387    0.4813671   -0.8256684 
C    -2.5126393   -2.2297930    0.4635181 
C     1.5731176   -1.4317161    2.8649314 
C     1.4195442    1.5744935    2.6283445 
C    -3.6273144   -0.2484650   -2.1047917 
C    -2.5972606    1.8697848   -1.1475933 
C    -2.0693974   -3.1452903   -0.6927203 
C    -4.0075178   -2.3633576    0.8040795 
C     3.0757521   -1.3770921    2.5464805 
C     0.9704941   -2.7854700    2.4451337 
C     1.6916571    1.6350573    4.1405912 
C     0.5587077    2.7560038    2.1423255 
H    -2.1427356    1.4127291    1.7113025 
H    -3.1564283    0.0719020    2.2850014 
H    -1.0463670    0.5631067    3.7553538 
H    -1.1998317   -1.1161674    3.2173930 
H    -4.0616641    0.6035176   -0.1592019 
H    -1.9266329   -2.5225673    1.3569105 
H     1.4225621   -1.2888423    3.9529070 
H     2.3815478    1.6045149    2.0833859 
H    -4.3204797    0.3998819   -2.6686282 
H    -2.7727821   -0.4722195   -2.7606304 
H    -4.1570002   -1.1893988   -1.8885642 
H    -2.2971743    2.4257782   -0.2422986 
H    -3.3484896    2.4788892   -1.6800002 
H    -1.7118755    1.7703795   -1.7994015 
H    -2.3169721   -4.1946022   -0.4542996 
H    -2.5700937   -2.8861825   -1.6400474 
H    -0.9795927   -3.0768639   -0.8545580 
H    -4.3034422   -1.7257041    1.6548379 
H    -4.2296673   -3.4088121    1.0823577 
H    -4.6481722   -2.1063101   -0.0556109 
H     3.6020346   -2.1663747    3.1112138 
H     3.2498700   -1.5594277    1.4728638 
H     3.5355779   -0.4099437    2.8074205 
H    -0.0862939   -2.8916051    2.7442903 
H     1.5300059   -3.6073398    2.9248756 
H     1.0337702   -2.9214297    1.3497385 
H     2.1576871    2.6054226    4.3876304 
H     0.7607197    1.5582513    4.7306882 
H     2.3805661    0.8426696    4.4769233 
H     1.1083607    3.7012835    2.2902602 
H     0.3182837    2.6675032    1.0680739 
H    -0.3872664    2.8263819    2.7091366 
