77
Energy =
C     0.5214515   -0.6142724   -2.5345282 
C     1.5440693    0.2738058   -2.0900603 
C     2.4614548   -0.1125951   -1.0829967 
H     1.5159089    1.3211467   -2.4151132 
Pd    0.3245407   -0.2543727   -0.3312341 
P     0.4773316    0.1957810    1.9554511 
P    -1.8917099   -0.8591141    0.0422470 
H     0.7441901   -1.6907487   -2.4893315 
H     2.6070880   -1.1940132   -0.9325653 
C    -2.6453470    0.4243264   -5.2694061 
C    -1.9993157    1.4323039   -4.5343870 
C    -0.9635207    1.1087998   -3.6516910 
C    -0.5446744   -0.2319023   -3.4837124 
C    -1.1914640   -1.2319947   -4.2450871 
C    -2.2324830   -0.9089037   -5.1248277 
H    -3.4588427    0.6786532   -5.9563010 
H    -2.3093530    2.4765389   -4.6461926 
H    -0.4893943    1.9068110   -3.0703633 
H    -0.8669612   -2.2735944   -4.1501556 
H    -2.7174343   -1.7001829   -5.7058317 
C     5.5994687    2.2769557    0.6433272 
C     5.4524896    0.9242017    0.9864284 
C     4.4341291    0.1597845    0.4045541 
C     3.5304730    0.7325949   -0.5204329 
C     3.7013369    2.0930768   -0.8674041 
C     4.7255037    2.8536864   -0.2931172 
H     6.3982743    2.8759495    1.0920015 
H     6.1408513    0.4606751    1.7007590 
H     4.3349280   -0.9009182    0.6628668 
H     3.0308613    2.5663703   -1.5918965 
H     4.8441013    3.9042006   -0.5776519 
C    -2.3188062   -0.3809900    1.8023109 
C    -1.1022597   -0.4341706    2.7456887 
C    -3.1742185   -0.0264204   -1.0348021 
C    -2.2521137   -2.6970228   -0.0418320 
C     1.8543789   -0.6376599    2.9058459 
C     0.5480980    2.0092970    2.4384460 
C    -3.0373300    1.5032222   -0.9314093 
C    -4.6151870   -0.4994452   -0.7766096 
C    -1.3399749   -3.4884469    0.9116340 
C    -2.1395255   -3.2205398   -1.4821019 
C     1.9683740   -2.1203188    2.5104615 
C     1.7558532   -0.4447297    4.4297123 
C    -0.4494940    2.8231914    1.5947666 
C     1.9717477    2.5795945    2.3256454 
H    -2.7211587    0.6451129    1.7527513 
H    -3.1340515   -1.0272971    2.1737658 
H    -1.3009238    0.1294984    3.6743783 
H    -0.8924135   -1.4765025    3.0417805 
H    -2.8676271   -0.3228067   -2.0560083 
H    -3.2998987   -2.7969786    0.3016941 
H     2.7550786   -0.1159306    2.5304380 
H     0.2266493    2.0366646    3.4980795 
H    -3.6250713    1.9802902   -1.7340306 
H    -3.4189856    1.8839738    0.0328070 
H    -1.9879640    1.8242406   -1.0416297 
H    -4.7441570   -1.5790774   -0.9601347 
H    -5.3022195    0.0346569   -1.4567330 
H    -4.9368562   -0.2805874    0.2574222 
H    -1.5513379   -4.5679438    0.8164814 
H    -0.2750583   -3.3272616    0.6658179 
H    -1.4994396   -3.2154275    1.9679438 
H    -2.7843102   -2.6714532   -2.1876859 
H    -2.4330902   -4.2845095   -1.5126274 
H    -1.0986876   -3.1480583   -1.8409782 
H     2.8704908   -2.5611028    2.9697118 
H     1.1010346   -2.7070667    2.8611534 
H     2.0445918   -2.2427059    1.4157100 
H     1.7178551    0.6194194    4.7175012 
H     2.6417551   -0.8893741    4.9170280 
H     0.8644435   -0.9476078    4.8443163 
H    -0.1833307    2.7772893    0.5234319 
H    -1.4863104    2.4653793    1.7055657 
H    -0.4277246    3.8814621    1.9087791 
H     1.9549802    3.6533096    2.5830948 
H     2.6824599    2.0871839    3.0091736 
H     2.3637834    2.4845997    1.2998977 
