77
Energy =
C     0.7352325   -0.6953681   -2.5186845 
C     1.6802225    0.2569328   -2.0438700 
C     2.6001209   -0.0551352   -1.0115578 
H     1.5869441    1.2995965   -2.3719949 
Pd    0.4662466   -0.3552460   -0.3086734 
P     0.5508638    0.2369447    1.9375882 
P    -1.7746327   -0.9252589    0.0538190 
H     1.0192414   -1.7568965   -2.4591950 
H     2.8553461   -1.1170662   -0.8707268 
C    -2.3851213    0.1720897   -5.3656609 
C    -1.9183232   -1.1395827   -5.1927699 
C    -0.8947795   -1.4080146   -4.2749719 
C    -0.3184636   -0.3736546   -3.5031792 
C    -0.7931284    0.9455983   -3.6981717 
C    -1.8117055    1.2144873   -4.6183079 
H    -3.1844326    0.3833666   -6.0831150 
H    -2.3468561   -1.9570608   -5.7817971 
H    -0.5277860   -2.4334913   -4.1593025 
H    -0.3783088    1.7696693   -3.1083423 
H    -2.1641029    2.2427391   -4.7511974 
C     5.4027061    2.6560500    0.8220922 
C     5.5218484    1.2691419    0.9995970 
C     4.6125814    0.4016216    0.3825205 
C     3.5576633    0.8976783   -0.4179925 
C     3.4666297    2.2970160   -0.6061188 
C     4.3766231    3.1638785    0.0078420 
H     6.1121514    3.3369788    1.3030339 
H     6.3305951    0.8610588    1.6145428 
H     4.7199113   -0.6800232    0.5167960 
H     2.6726048    2.7186111   -1.2301989 
H     4.2866783    4.2436328   -0.1504181 
C    -2.2034726   -0.4793235    1.8258034 
C    -1.2232916    0.5275778    2.4541768 
C    -2.9170025    0.0677184   -1.0431413 
C    -2.1666518   -2.7597481   -0.0466612 
C     1.2469629   -1.0070943    3.1513132 
C     1.4212994    1.8567626    2.2809948 
C    -2.6465747    1.5647537   -0.7921066 
C    -4.4146045   -0.2668505   -0.9528699 
C    -1.9690949   -3.2792858   -1.4796533 
C    -3.5126301   -3.2063650    0.5564043 
C     2.7557462   -1.1905324    2.9177200 
C     0.5062329   -2.3534885    3.0651930 
C     1.4592486    2.2520880    3.7671356 
C     0.8208183    2.9658440    1.3970451 
H    -3.2395615   -0.0993781    1.8711169 
H    -2.1910744   -1.4269796    2.3890545 
H    -1.4614688    1.5502156    2.1141934 
H    -1.3045547    0.5225726    3.5559957 
H    -2.5558105   -0.1776318   -2.0595608 
H    -1.3573064   -3.1780350    0.5838720 
H     1.0796386   -0.5700479    4.1543914 
H     2.4524221    1.6672154    1.9275769 
H    -3.1413089    2.1664276   -1.5740009 
H    -3.0482347    1.8895350    0.1849097 
H    -1.5662208    1.7943175   -0.8173888 
H    -4.6343429   -1.2794065   -1.3249552 
H    -4.9814555    0.4453216   -1.5786957 
H    -4.8015574   -0.1815523    0.0782055 
H    -2.1028716   -4.3749528   -1.5016896 
H    -2.6983965   -2.8365075   -2.1800894 
H    -0.9572948   -3.0508318   -1.8505186 
H    -3.6819870   -2.8083565    1.5707389 
H    -3.5196221   -4.3083903    0.6298433 
H    -4.3652253   -2.9115142   -0.0741183 
H     3.1667068   -1.8850532    3.6712778 
H     2.9415865   -1.6241833    1.9195299 
H     3.3168018   -0.2441633    2.9884796 
H    -0.5535268   -2.2709713    3.3572954 
H     0.9787926   -3.0807661    3.7483322 
H     0.5589274   -2.7687230    2.0419508 
H     1.9966499    3.2107341    3.8769033 
H     0.4438432    2.3923371    4.1787572 
H     1.9864310    1.5072317    4.3863329 
H     1.4818172    3.8489847    1.4119249 
H     0.7174268    2.6350793    0.3485821 
H    -0.1727792    3.2851220    1.7588143 
