77
Energy =
C     0.6429981   -0.7269993   -2.4862139 
C     1.4805790    0.3048977   -2.0096185 
C     2.3824793    0.1082436   -0.9216525 
H     1.3370715    1.3229002   -2.3924193 
Pd    0.2912681   -0.2995177   -0.2478492 
P     0.5458095   -0.0739697    2.0588813 
P    -2.0050896   -0.5755345    0.1401697 
H     0.9331557   -1.7619781   -2.2464349 
H     2.8037305   -0.8998362   -0.7937659 
C    -2.1171649   -0.4456104   -5.7781919 
C    -1.5667630    0.7267804   -5.2331574 
C    -0.6705020    0.6546308   -4.1622749 
C    -0.3016881   -0.5948956   -3.6093255 
C    -0.8467062   -1.7663273   -4.1844014 
C    -1.7483618   -1.6933962   -5.2530436 
H    -2.8211396   -0.3857014   -6.6142721 
H    -1.8391010    1.7031844   -5.6467505 
H    -0.2563889    1.5822882   -3.7547505 
H    -0.5516142   -2.7441569   -3.7885740 
H    -2.1585532   -2.6132315   -5.6822241 
C     4.7344775    3.2991230    0.7797003 
C     3.4962514    3.5840791    0.1803462 
C     2.7305381    2.5552438   -0.3781110 
C     3.1839710    1.2147820   -0.3536244 
C     4.4395511    0.9480637    0.2362604 
C     5.2046210    1.9773654    0.7999589 
H     5.3314012    4.1036309    1.2209914 
H     3.1233759    4.6133561    0.1539231 
H     1.7549006    2.7923489   -0.8160645 
H     4.8243010   -0.0773106    0.2432807 
H     6.1759328    1.7471011    1.2498104 
C    -2.2838215    0.0705093    1.8777893 
C    -1.1428156   -0.2776891    2.8457829 
C    -3.1753671    0.5415648   -0.8260810 
C    -2.7812359   -2.2885733    0.0821160 
C     1.6037818   -1.3456501    2.9421998 
C     1.1665575    1.6022146    2.6099890 
C    -3.6917245   -0.0622114   -2.1423336 
C    -2.4976683    1.9051984   -1.0527343 
C    -2.5684326   -3.1028366    1.3681314 
C    -2.2526628   -3.0518722   -1.1449029 
C     3.0959034   -1.1489420    2.6313982 
C     1.1572328   -2.7762986    2.5932755 
C     1.3918494    1.7286660    4.1260837 
C     0.2353806    2.7024156    2.0689173 
H    -2.3691915    1.1658540    1.7676691 
H    -3.2577156   -0.2897775    2.2563119 
H    -1.1972329    0.3394743    3.7600686 
H    -1.2140730   -1.3300253    3.1662760 
H    -4.0368327    0.6762836   -0.1414044 
H    -3.8658244   -2.1003923   -0.0385379 
H     1.4264246   -1.1656656    4.0204912 
H     2.1382093    1.6937440    2.0895485 
H    -4.3641985    0.6656706   -2.6294319 
H    -2.8715278   -0.2768974   -2.8450105 
H    -4.2709309   -0.9859337   -1.9811432 
H    -2.1670200    2.3740821   -0.1098942 
H    -3.2035980    2.5993138   -1.5415292 
H    -1.6162869    1.7941933   -1.7078162 
H    -3.0569338   -4.0870366    1.2581203 
H    -1.4962202   -3.2862867    1.5507984 
H    -3.0045833   -2.6189841    2.2579791 
H    -2.4005647   -2.4949174   -2.0828340 
H    -2.7722052   -4.0218558   -1.2374471 
H    -1.1708295   -3.2502531   -1.0361735 
H     3.6942147   -1.8456564    3.2442706 
H     3.3005460   -1.3732263    1.5716353 
H     3.4509104   -0.1263695    2.8373929 
H     0.1290622   -2.9913956    2.9271898 
H     1.8216682   -3.5036600    3.0913066 
H     1.2130694   -2.9529511    1.5033221 
H     1.7673220    2.7420635    4.3540112 
H     0.4550886    1.5904264    4.6952613 
H     2.1363214    1.0088349    4.5042602 
H     0.7058056    3.6905853    2.2110203 
H     0.0384508    2.5714561    0.9905776 
H    -0.7316426    2.7132533    2.6034776 
