77
Energy =
C     0.3801147   -0.6847412   -2.5560612 
C     1.3888159    0.1878790   -2.0915503 
C     2.2886097   -0.2258501   -1.0609808 
H     1.3998268    1.2310303   -2.4318042 
Pd    0.2018937   -0.2803349   -0.2904061 
P     0.6217541   -0.4157609    1.9949437 
P    -2.0764203   -0.2401716    0.2502765 
H     0.5303535   -1.7571434   -2.3530654 
H     2.5230290   -1.2996182   -1.0188880 
C    -2.4405551    0.0218044   -5.7248131 
C    -2.1321538   -1.2832526   -5.3133821 
C    -1.2168936   -1.4918883   -4.2747552 
C    -0.5867961   -0.4021910   -3.6288733 
C    -0.8960943    0.9065973   -4.0665503 
C    -1.8154778    1.1144715   -5.0991968 
H    -3.1585492    0.1893377   -6.5339644 
H    -2.6047785   -2.1407273   -5.8030517 
H    -0.9784509   -2.5138394   -3.9585958 
H    -0.4237188    1.7707715   -3.5890000 
H    -2.0464391    2.1349112   -5.4218682 
C     5.2543164    2.3072131    0.7753985 
C     4.1030599    2.8777437    0.2075117 
C     3.1386301    2.0659439   -0.3989943 
C     3.3035423    0.6623518   -0.4567094 
C     4.4762929    0.1051096    0.1024403 
C     5.4390487    0.9174709    0.7151950 
H     6.0056949    2.9433918    1.2539440 
H     3.9537900    3.9619350    0.2440583 
H     2.2352679    2.5262413   -0.8141530 
H     4.6366569   -0.9767523    0.0472784 
H     6.3408666    0.4644111    1.1398576 
C    -2.2061291   -0.7236099    2.0566740 
C    -1.0094890   -0.2512275    2.9012126 
C    -2.8801198    1.4591263    0.1202072 
C    -3.2886006   -1.4445428   -0.5362537 
C     1.2847576   -2.0793168    2.5538024 
C     1.7474425    0.8762697    2.7429557 
C    -2.4529115    2.1370325   -1.1934612 
C    -2.5808892    2.3686093    1.3232573 
C    -2.5962189   -2.8074964   -0.7192433 
C    -3.9050398   -0.9398592   -1.8515510 
C     2.7388123   -2.2936952    2.1062756 
C     0.3780028   -3.2253260    2.0706890 
C     2.0275153    0.6710750    4.2419243 
C     1.2071876    2.2859839    2.4421806 
H    -3.1602404   -0.3509073    2.4714019 
H    -2.2681415   -1.8255032    2.0589548 
H    -1.1135265    0.8169729    3.1533920 
H    -0.9565007   -0.8049331    3.8555544 
H    -3.9681253    1.2545818    0.0962015 
H    -4.0964396   -1.5476877    0.2157418 
H     1.2478651   -2.0369483    3.6596987 
H     2.6863643    0.7470999    2.1719608 
H    -2.9920039    3.0929515   -1.3162502 
H    -1.3688909    2.3529734   -1.1743677 
H    -2.6549284    1.5152097   -2.0787148 
H    -2.9601400    1.9588518    2.2740507 
H    -3.0735912    3.3447369    1.1687837 
H    -1.4984130    2.5570288    1.4228391 
H    -3.3210322   -3.5500937   -1.0963935 
H    -1.7736792   -2.7280815   -1.4508737 
H    -2.1774254   -3.1988584    0.2237000 
H    -4.4983496   -0.0216470   -1.7116513 
H    -4.5856714   -1.7133540   -2.2489702 
H    -3.1353354   -0.7508895   -2.6169286 
H     3.1192610   -3.2387486    2.5319163 
H     2.8014176   -2.3718654    1.0078452 
H     3.4103112   -1.4823958    2.4318798 
H    -0.6419574   -3.1558600    2.4840640 
H     0.7978596   -4.1937135    2.3945742 
H     0.3083292   -3.2355840    0.9675618 
H     2.7039540    1.4676080    4.5993331 
H     1.1012152    0.7300458    4.8411970 
H     2.5167771   -0.2945798    4.4516866 
H     1.9864700    3.0344910    2.6645076 
H     0.9284795    2.3938484    1.3800411 
H     0.3265313    2.5258839    3.0643540 
