77
Energy =
C     0.5783325   -0.6070826   -2.6100244 
C     1.5386741    0.3318108   -2.1430957 
C     2.4606492   -0.0196628   -1.1238866 
H     1.4589993    1.3791330   -2.4594640 
Pd    0.3624894   -0.2582284   -0.3764610 
P     0.6935480    0.2936230    1.8661607 
P    -1.7936610   -0.9478658    0.2359363 
H     0.8501939   -1.6707011   -2.5421625 
H     2.6843193   -1.0918497   -1.0097385 
C    -2.4684592    0.2478098   -5.5316092 
C    -1.9115805    1.2958660   -4.7792968 
C    -0.9239836    1.0317326   -3.8249036 
C    -0.4635777   -0.2882123   -3.6050510 
C    -1.0287257   -1.3307948   -4.3737991 
C    -2.0220237   -1.0661769   -5.3252019 
H    -3.2442665    0.4560649   -6.2752388 
H    -2.2557701    2.3237744   -4.9336225 
H    -0.5213844    1.8587379   -3.2298665 
H    -0.6787620   -2.3581132   -4.2248248 
H    -2.4446257   -1.8880664   -5.9123005 
C     5.3005017    2.5315587    0.8645616 
C     5.2820986    1.1482100    1.1044172 
C     4.3680534    0.3318809    0.4279710 
C     3.4455710    0.8793553   -0.4949123 
C     3.4910259    2.2705666   -0.7417360 
C     4.4079091    3.0855886   -0.0680173 
H     6.0147266    3.1728050    1.3907623 
H     5.9867719    0.7045453    1.8153731 
H     4.3593816   -0.7480454    0.6162257 
H     2.8020130    2.7263843   -1.4596035 
H     4.4283390    4.1609548   -0.2728737 
C    -1.9174152   -0.7171172    2.1017334 
C    -1.0044845    0.4008101    2.6267897 
C    -3.2597731    0.0294562   -0.4138088 
C    -2.1539714   -2.7844969    0.0676753 
C     1.6943243   -0.9522844    2.8649024 
C     1.4743166    1.9684657    2.1458612 
C    -3.6861643   -0.3821464   -1.8325508 
C    -2.9301070    1.5330034   -0.3391076 
C    -1.7955349   -3.3389760   -1.3214910 
C    -3.5749954   -3.1667140    0.5224985 
C     1.7324354   -2.3196846    2.1553656 
C     1.2474535   -1.1016124    4.3306714 
C     1.5756464    2.3991442    3.6190142 
C     0.7613224    3.0187685    1.2738119 
H    -2.9691910   -0.5310240    2.3829063 
H    -1.6291027   -1.6846079    2.5520769 
H    -1.3963360    1.3917559    2.3387257 
H    -0.9473556    0.3847945    3.7285234 
H    -4.0850912   -0.1949550    0.2896210 
H    -1.4301958   -3.2118582    0.7903227 
H     2.7124237   -0.5174197    2.8381711 
H     2.4962457    1.8305904    1.7478306 
H    -4.5042887    0.2788836   -2.1687869 
H    -2.8594501   -0.2826149   -2.5520313 
H    -4.0612792   -1.4169196   -1.8717248 
H    -2.7027570    1.8642179    0.6883315 
H    -3.7939051    2.1219951   -0.6940922 
H    -2.0628720    1.7738625   -0.9792467 
H    -1.9328775   -4.4346859   -1.3273219 
H    -2.4282613   -2.9148444   -2.1174054 
H    -0.7435241   -3.1253944   -1.5724737 
H    -3.8028571   -2.8008489    1.5383088 
H    -3.6737550   -4.2666559    0.5351661 
H    -4.3423221   -2.7735484   -0.1654261 
H     2.3966338   -3.0107165    2.7038993 
H     0.7290826   -2.7811276    2.1188863 
H     2.1025867   -2.2344285    1.1199042 
H     1.1981063   -0.1396638    4.8652956 
H     1.9648253   -1.7470315    4.8677708 
H     0.2573037   -1.5863201    4.3986712 
H     2.0426386    3.3986374    3.6730216 
H     0.5833085    2.4707334    4.0984954 
H     2.2035543    1.7121961    4.2097197 
H     1.3437475    3.9561766    1.2748012 
H     0.6642136    2.6759652    0.2283745 
H    -0.2490786    3.2526380    1.6546018 
