77
Energy =
C     0.8363368   -1.0032379   -2.3694627 
C     1.6287507    0.1005618   -1.9815341 
C     2.4953857    0.0166674   -0.8490101 
H     1.4731077    1.0712253   -2.4692011 
Pd    0.3909001   -0.3516372   -0.2169459 
P     0.5714623   -0.0292401    2.0850979 
P    -1.9067454   -0.6006594    0.1607746 
H     1.1676417   -1.9947058   -2.0218565 
H     2.9266602   -0.9708779   -0.6293891 
C    -1.8639136   -1.2103263   -5.7109075 
C    -1.5153683    0.0436686   -5.1789721 
C    -0.6365231    0.1318583   -4.0953017 
C    -0.0907979   -1.0357908   -3.5129540 
C    -0.4448745   -2.2895266   -4.0631691 
C    -1.3202248   -2.3765155   -5.1527289 
H    -2.5521964   -1.2746416   -6.5596651 
H    -1.9327144    0.9574213   -5.6145570 
H    -0.3855771    1.1164372   -3.6889217 
H    -0.0222858   -3.2038234   -3.6312384 
H    -1.5781209   -3.3565546   -5.5667535 
C     4.7130659    3.3397927    0.7728284 
C     3.5311456    3.5737029    0.0504065 
C     2.8099821    2.5029610   -0.4883636 
C     3.2543448    1.1702284   -0.3213197 
C     4.4555781    0.9530884    0.3911514 
C     5.1748456    2.0247999    0.9356492 
H     5.2740690    4.1780673    1.1981137 
H     3.1670651    4.5970802   -0.0883478 
H     1.8775341    2.7034090   -1.0272814 
H     4.8325693   -0.0680432    0.5107950 
H     6.1040574    1.8328847    1.4820972 
C    -2.0989383   -0.9737633    1.9823065 
C    -1.1449873   -0.1211979    2.8351529 
C    -2.7532607    1.0713140    0.0036138 
C    -2.9522855   -1.9331417   -0.6393515 
C     1.5189261   -1.3649045    2.9963279 
C     1.2684971    1.6155308    2.6310561 
C    -4.2659654    1.0418336    0.2844807 
C    -2.3960071    1.7725617   -1.3194206 
C    -2.1496690   -3.2491497   -0.6295319 
C    -3.4260213   -1.5714279   -2.0577058 
C     3.0199433   -1.3163117    2.6748671 
C     0.9232624   -2.7532564    2.6974067 
C     1.4171340    1.7610542    4.1550061 
C     0.4390370    2.7557118    2.0106907 
H    -3.1493153   -0.8211619    2.2885620 
H    -1.8805870   -2.0482574    2.1029421 
H    -1.5186578    0.9148284    2.9111214 
H    -1.0749412   -0.5104499    3.8664840 
H    -2.2613423    1.6409179    0.8167123 
H    -3.8354464   -2.0416454    0.0204859 
H     1.3694098   -1.1349818    4.0691572 
H     2.2698403    1.6326412    2.1603399 
H    -4.6525969    2.0757779    0.3216942 
H    -4.8194393    0.5096599   -0.5066810 
H    -4.5060958    0.5655690    1.2505250 
H    -1.3005299    1.8469685   -1.4382028 
H    -2.8139791    2.7946644   -1.3246132 
H    -2.7969976    1.2371700   -2.1953625 
H    -2.7755591   -4.0714164   -1.0181981 
H    -1.2583235   -3.1621095   -1.2747200 
H    -1.8140293   -3.5348826    0.3826489 
H    -4.1186906   -0.7153122   -2.0605243 
H    -3.9625407   -2.4334536   -2.4912329 
H    -2.5801494   -1.3376949   -2.7222319 
H     3.5546711   -2.0540501    3.2985104 
H     3.2004509   -1.5759539    1.6182666 
H     3.4646652   -0.3257658    2.8659104 
H    -0.1137900   -2.8505858    3.0594874 
H     1.5216522   -3.5308614    3.2035684 
H     0.9355945   -2.9654494    1.6122281 
H     0.4421500    1.6856068    4.6691411 
H     2.0958961    1.0052412    4.5840701 
H     1.8391347    2.7544993    4.3891817 
H     0.9749509    3.7123114    2.1327473 
H     0.2745273    2.5949544    0.9308413 
H    -0.5447567    2.8600945    2.5032095 
