77
Energy =
C     0.4103942   -0.3897828   -2.7073480 
C     1.5280398    0.3345824   -2.2118574 
C     2.3988290   -0.2583370   -1.2564615 
H     1.6148980    1.4059910   -2.4291474 
Pd    0.3119307   -0.2110633   -0.4636717 
P     0.7380852   -0.1941489    1.8294931 
P    -1.9505121   -0.4332620    0.0581021 
H     0.4861961   -1.4878760   -2.6894134 
H     2.4751992   -1.3560348   -1.2772943 
C    -2.6272858    1.0495339   -5.3989022 
C    -2.5308378   -0.3145971   -5.0843550 
C    -1.5312121   -0.7650853   -4.2135728 
C    -0.6124918    0.1377318   -3.6298320 
C    -0.7215461    1.5092940   -3.9575440 
C    -1.7147773    1.9572028   -4.8353391 
H    -3.4040234    1.4039998   -6.0838452 
H    -3.2306565   -1.0310235   -5.5269262 
H    -1.4514487   -1.8337843   -3.9821096 
H    -0.0303088    2.2372621   -3.5205527 
H    -1.7804074    3.0222780   -5.0804388 
C     5.5769503    1.6240286    0.9564479 
C     5.4211443    0.2288404    0.9635766 
C     4.3980499   -0.3666186    0.2157396 
C     3.5030757    0.4178763   -0.5494650 
C     3.6824099    1.8201285   -0.5585930 
C     4.7079668    2.4142085    0.1856553 
H     6.3763154    2.0927237    1.5391268 
H     6.1029914   -0.3971144    1.5485251 
H     4.2822692   -1.4567901    0.2230994 
H     3.0089957    2.4577984   -1.1401926 
H     4.8303128    3.5021360    0.1657129 
C    -2.0193320   -0.7717291    1.9025600 
C    -0.9197820   -0.0198477    2.6734828 
C    -3.0503379    1.0706327   -0.1930587 
C    -2.8455045   -1.8728834   -0.7309989 
C     1.5570279   -1.7593355    2.4911200 
C     1.7886338    1.2336570    2.4227562 
C    -3.6146689    1.1459133   -1.6227610 
C    -2.2791233    2.3549598    0.1649830 
C    -4.2483862   -2.1157474   -0.1454643 
C    -1.9745137   -3.1412405   -0.6957056 
C     1.3829902   -2.9383057    1.5153735 
C     1.1176120   -2.1557285    3.9126192 
C     2.0049817    1.2962136    3.9443361 
C     1.2445563    2.5564608    1.8541482 
H    -3.0209363   -0.5204516    2.2945374 
H    -1.8882470   -1.8632144    2.0218102 
H    -1.1341997    1.0625685    2.6992142 
H    -0.8665823   -0.3596778    3.7214259 
H    -3.8864487    0.9406136    0.5215156 
H    -2.9374159   -1.5511374   -1.7859168 
H     2.6273832   -1.4751494    2.5071882 
H     2.7597481    1.0275891    1.9342695 
H    -4.2108312    2.0696748   -1.7260726 
H    -2.8094021    1.1814135   -2.3737406 
H    -4.2763223    0.2984810   -1.8637015 
H    -1.9137541    2.3530149    1.2048427 
H    -2.9396377    3.2316422    0.0459504 
H    -1.4091392    2.4856153   -0.5032242 
H    -4.7582291   -2.9092966   -0.7201348 
H    -4.1919197   -2.4529688    0.9044380 
H    -4.8841256   -1.2152876   -0.1844437 
H    -0.9698488   -2.9577334   -1.1151043 
H    -2.4547523   -3.9411597   -1.2859644 
H    -1.8518701   -3.5233461    0.3335736 
H     1.9509206   -3.8128886    1.8788003 
H     0.3238353   -3.2381708    1.4335428 
H     1.7427925   -2.6911119    0.5030203 
H     1.2064646   -1.3314967    4.6380005 
H     1.7495459   -2.9874541    4.2711391 
H     0.0724162   -2.5128435    3.9204911 
H     2.6301005    2.1742129    4.1857787 
H     1.0522938    1.4069492    4.4923894 
H     2.5297167    0.4056250    4.3269366 
H     1.9832087    3.3594204    2.0202971 
H     1.0577697    2.4827579    0.7684094 
H     0.3047678    2.8606924    2.3487246 
