77
Energy =
C     0.6218531   -0.6938222   -2.6233858 
C     1.6347719    0.1888881   -2.1477034 
C     2.5209843   -0.2203206   -1.1162714 
H     1.6159547    1.2425257   -2.4534398 
Pd    0.3958564   -0.3495728   -0.4183334 
P     0.6019272    0.1808734    1.8421485 
P    -1.8464925   -0.8008336    0.0039942 
H     0.8377811   -1.7717947   -2.5715652 
H     2.7008797   -1.3028439   -1.0218393 
C    -2.5507166    0.3337625   -5.3543427 
C    -1.8664900    1.3500888   -4.6668955 
C    -0.8256143    1.0316899   -3.7882867 
C    -0.4399106   -0.3127068   -3.5766088 
C    -1.1251706   -1.3222008   -4.2908159 
C    -2.1710202   -1.0039922   -5.1663316 
H    -3.3675164    0.5847323   -6.0385395 
H    -2.1494146    2.3976588   -4.8140040 
H    -0.3194321    1.8386656   -3.2480023 
H    -0.8283253   -2.3682611   -4.1593810 
H    -2.6861456   -1.8028243   -5.7098491 
C     5.4503543    2.1605167    0.9576523 
C     5.4932514    0.7594181    1.0095745 
C     4.5415777    0.0019256    0.3146641 
C     3.5257201    0.6269607   -0.4455788 
C     3.5063072    2.0399889   -0.5011376 
C     4.4559203    2.7959151    0.1940238 
H     6.1924112    2.7557155    1.4992842 
H     6.2732913    0.2541557    1.5884193 
H     4.5817002   -1.0928086    0.3563922 
H     2.7403353    2.5572046   -1.0876469 
H     4.4244103    3.8890624    0.1378888 
C    -2.1989245   -0.2196649    1.7520948 
C    -0.9756538   -0.3687584    2.6782111 
C    -3.0868527    0.0711140   -1.0923629 
C    -2.3211041   -2.6133131   -0.0176272 
C     2.0065798   -0.6510681    2.7519479 
C     0.7966631    2.0321517    2.1347262 
C    -2.8542504    1.5917086   -1.0502527 
C    -4.5519763   -0.3011178   -0.8073127 
C    -1.4786476   -3.4300210    0.9779536 
C    -2.2051749   -3.1796677   -1.4424733 
C     2.0305301   -2.1531933    2.4138021 
C     2.0584440   -0.3985399    4.2687264 
C     0.2193176    2.5379633    3.4695133 
C     0.2244462    2.8440118    0.9575689 
H    -2.4861415    0.8438398    1.6722622 
H    -3.0715469   -0.7612444    2.1592852 
H    -1.1287431    0.1779890    3.6242043 
H    -0.8151526   -1.4278492    2.9429399 
H    -2.8074020   -0.2812233   -2.1039639 
H    -3.3799494   -2.6425491    0.3034090 
H     2.8920731   -0.1813282    2.2811127 
H     1.8977740    2.1530521    2.1361780 
H    -3.4315060    2.0749313   -1.8568247 
H    -3.1879179    2.0306585   -0.0927015 
H    -1.7905169    1.8406010   -1.1988955 
H    -4.7491189   -1.3764637   -0.9508012 
H    -5.2110524    0.2499542   -1.5013673 
H    -4.8492889   -0.0259975    0.2205360 
H    -1.7405996   -4.4993299    0.8942035 
H    -0.3994099   -3.3273722    0.7646012 
H    -1.6592479   -3.1305168    2.0237404 
H    -2.8126177   -2.6212256   -2.1736106 
H    -2.5446084   -4.2302778   -1.4525514 
H    -1.1555190   -3.1590214   -1.7832743 
H     2.9521429   -2.6098623    2.8151018 
H     1.1754047   -2.6893830    2.8626528 
H     2.0092325   -2.3235905    1.3228161 
H     2.2037700    0.6669514    4.5077456 
H     2.9113861   -0.9514104    4.7012183 
H     1.1436548   -0.7522214    4.7767304 
H     0.5073329    3.5944592    3.6134258 
H    -0.8846754    2.4995917    3.4637127 
H     0.5790901    1.9717632    4.3426251 
H     0.4981602    3.9079778    1.0692653 
H     0.6096472    2.4863903   -0.0122791 
H    -0.8770896    2.7833355    0.9299044 
