77
Energy =
C     0.5972253   -0.7244917   -2.6292695 
C     1.6049023    0.1740418   -2.1676393 
C     2.5131534   -0.2060461   -1.1474526 
H     1.5540493    1.2259282   -2.4761050 
Pd    0.4001467   -0.3844325   -0.4198209 
P     0.6113474    0.2711009    1.8086566 
P    -1.8187534   -0.9082366    0.0483259 
H     0.8348818   -1.7989055   -2.6128019 
H     2.6982286   -1.2846494   -1.0215973 
C    -2.5628790    0.3919066   -5.3426996 
C    -1.9942506    1.3577575   -4.4953499 
C    -0.9648146    1.0054242   -3.6161343 
C    -0.4752465   -0.3213520   -3.5642607 
C    -1.0503290   -1.2778779   -4.4301070 
C    -2.0839030   -0.9263205   -5.3079286 
H    -3.3706036    0.6673605   -6.0282625 
H    -2.3597820    2.3898630   -4.5167934 
H    -0.5524217    1.7649358   -2.9428167 
H    -0.6749372   -2.3071538   -4.4201241 
H    -2.5119692   -1.6836047   -5.9728580 
C     5.3446456    2.2925296    0.9206140 
C     5.2616526    0.9176149    1.1936141 
C     4.3564585    0.1161391    0.4884227 
C     3.5055535    0.6704606   -0.4970145 
C     3.6181622    2.0514161   -0.7775576 
C     4.5263734    2.8516841   -0.0746688 
H     6.0526648    2.9219299    1.4690488 
H     5.9096891    0.4683499    1.9533194 
H     4.2971418   -0.9565878    0.7053026 
H     2.9913844    2.5110638   -1.5481149 
H     4.5992617    3.9191082   -0.3073018 
C    -2.0784398   -0.6120667    1.8824568 
C    -1.1380179    0.4717589    2.4371333 
C    -3.0571659    0.1716669   -0.8459624 
C    -2.3773190   -2.6772870   -0.2120108 
C     1.5474999   -0.8823050    2.9700811 
C     1.4091596    1.9501549    2.0209372 
C    -2.7693593    1.6568007   -0.5580285 
C    -4.5272465   -0.1937729   -0.5812724 
C    -1.4407814   -3.6623341    0.5096011 
C    -2.4670590   -3.0086758   -1.7109308 
C     1.7212612   -2.2788872    2.3460990 
C     0.9531163   -0.9756805    4.3867388 
C     1.4138165    2.4780035    3.4658802 
C     0.7947181    2.9562857    1.0317879 
H    -3.1357943   -0.3555513    2.0735385 
H    -1.8871998   -1.5761422    2.3857379 
H    -1.4543422    1.4705338    2.0890560 
H    -1.1633558    0.4923215    3.5398213 
H    -2.8187132   -0.0174080   -1.9101963 
H    -3.3855262   -2.7380741    0.2421695 
H     2.5436382   -0.4013512    3.0249529 
H     2.4532753    1.7595690    1.7090792 
H    -3.3452314    2.2888153   -1.2560400 
H    -3.0711263    1.9351221    0.4676651 
H    -1.6990720    1.8960493   -0.6840432 
H    -4.7668497   -1.2267696   -0.8826209 
H    -5.1812641    0.4801349   -1.1627292 
H    -4.7947106   -0.0719843    0.4837260 
H    -1.7897564   -4.6960427    0.3414495 
H    -0.4102962   -3.5821250    0.1190375 
H    -1.4117328   -3.5005821    1.6004957 
H    -3.1261940   -2.3229946   -2.2678109 
H    -2.8584147   -4.0329455   -1.8398561 
H    -1.4675708   -2.9666907   -2.1743286 
H     2.3884898   -2.8923313    2.9769258 
H     0.7548501   -2.8049846    2.2702068 
H     2.1568403   -2.2241132    1.3340418 
H     0.8254570    0.0092329    4.8642244 
H     1.6249319   -1.5740198    5.0273002 
H    -0.0273509   -1.4845535    4.3751813 
H     1.9142549    3.4623111    3.4922245 
H     0.3902252    2.6159056    3.8571578 
H     1.9646497    1.8122329    4.1503588 
H     1.3936388    3.8832863    1.0270929 
H     0.7826355    2.5524423    0.0039258 
H    -0.2396010    3.2280889    1.3091202 
