77
Energy =
C     0.7986470   -0.9605630   -2.4895100 
C     1.6583519    0.0925060   -2.0878486 
C     2.5135389   -0.0666085   -0.9579177 
H     1.5513264    1.0802283   -2.5536422 
Pd    0.3931895   -0.3188096   -0.3398245 
P     0.6760378    0.0963684    1.9380338 
P    -1.8503371   -0.7142944    0.1701266 
H     1.1026478   -1.9791642   -2.2020679 
H     2.8402851   -1.0923985   -0.7271826 
C    -2.0178602   -0.8815828   -5.7413284 
C    -1.6568344    0.3198653   -5.1065874 
C    -0.7375435    0.3132162   -4.0531950 
C    -0.1614807   -0.8982354   -3.6061175 
C    -0.5299806   -2.0979845   -4.2569054 
C    -1.4464953   -2.0897698   -5.3160379 
H    -2.7392424   -0.8727225   -6.5646225 
H    -2.0986521    1.2663118   -5.4352790 
H    -0.4819489    1.2554898   -3.5576986 
H    -0.0886470   -3.0453651   -3.9271125 
H    -1.7158303   -3.0291598   -5.8095287 
C     4.9402276    2.9718089    0.9006719 
C     3.9183703    3.3454851    0.0111852 
C     3.1357835    2.3713286   -0.6175495 
C     3.3556962    0.9959018   -0.3720509 
C     4.4077574    0.6353057    0.5024118 
C     5.1873214    1.6109926    1.1370482 
H     5.5480293    3.7368748    1.3940618 
H     3.7297195    4.4049037   -0.1913945 
H     2.3357046    2.6867676   -1.2950387 
H     4.6229126   -0.4260105    0.6737075 
H     5.9965786    1.3077914    1.8093782 
C    -1.8594312   -1.1589309    1.9887083 
C    -0.9551810   -0.2164939    2.8028819 
C    -2.8636315    0.8673151    0.1300993 
C    -2.8231266   -2.1100591   -0.6113187 
C     1.9166059   -1.1186715    2.6423955 
C     1.1750792    1.8482827    2.3720683 
C    -4.3461170    0.6733000    0.4945842 
C    -2.6544170    1.6475606   -1.1803703 
C    -1.9239675   -3.3601136   -0.6784961 
C    -3.3845239   -1.7460006   -1.9975013 
C     1.4651220   -2.5536882    2.3027518 
C     2.2624449   -0.9665460    4.1325514 
C     1.0027429    2.2462451    3.8499542 
C     0.4097734    2.8217964    1.4533513 
H    -2.8939489   -1.1479663    2.3764308 
H    -1.4991171   -2.1996788    2.0553581 
H    -1.4397066    0.7679474    2.9302185 
H    -0.7750684   -0.6121371    3.8181695 
H    -2.3842509    1.4546353    0.9375766 
H    -3.6642421   -2.3045972    0.0827991 
H     2.8198841   -0.8864184    2.0478092 
H     2.2476341    1.8783293    2.0985981 
H    -4.8316564    1.6601405    0.5958315 
H    -4.8905041    0.1153420   -0.2851427 
H    -4.4778074    0.1409001    1.4522362 
H    -1.5809037    1.8378060   -1.3538766 
H    -3.1724259    2.6210396   -1.1212083 
H    -3.0479149    1.1058216   -2.0557530 
H    -2.5053237   -4.2172113   -1.0609349 
H    -1.0753981   -3.1891278   -1.3633401 
H    -1.5182428   -3.6464118    0.3075779 
H    -4.1466925   -0.9529970   -1.9440295 
H    -3.8633353   -2.6367312   -2.4405376 
H    -2.5886997   -1.4189555   -2.6849025 
H     2.2815866   -3.2631560    2.5233924 
H     0.5946294   -2.8562273    2.9119731 
H     1.1963212   -2.6589511    1.2354105 
H     2.7831891   -0.0187817    4.3403979 
H     2.9382593   -1.7872675    4.4325891 
H     1.3672084   -1.0264329    4.7768862 
H     1.3577673    3.2832107    3.9858224 
H    -0.0590963    2.2227604    4.1524910 
H     1.5704376    1.6061558    4.5403356 
H     0.8203546    3.8400362    1.5663726 
H     0.4908212    2.5323664    0.3920380 
H    -0.6624037    2.8640842    1.7195659 
