87
Energy =
C    -0.1549390    0.8723966   -3.2493423 
C     1.0734883    0.1588659   -3.1912461 
C     1.0676592   -1.2292884   -2.8593816 
H     2.0178371    0.7168396   -3.1971987 
Pd    0.1039482   -0.0713201   -1.2574125 
P     0.2597821   -1.2787769    0.7564793 
P    -0.8819770    1.2338451    0.4441958 
H    -1.0546060    0.2991023   -3.5218110 
H     0.1816350   -1.8137022   -3.1506447 
C    -0.6659857    5.1338863   -3.5579943 
C     0.5290174    4.6134119   -3.0289414 
C     0.7158357    3.2312764   -2.9359285 
C    -0.2911455    2.3360408   -3.3687243 
C    -1.4892617    2.8728020   -3.8906618 
C    -1.6727001    4.2583135   -3.9900826 
H    -0.8089845    6.2170340   -3.6284771 
H     1.3144713    5.2920135   -2.6805963 
H     1.6388743    2.8428156   -2.4921606 
H    -2.2836908    2.1932982   -4.2181830 
H    -2.6068990    4.6542164   -4.4015060 
C     4.4788664   -3.6073983   -1.7316654 
C     4.6571294   -2.2540407   -2.0623851 
C     3.5637672   -1.4696427   -2.4489687 
C     2.2656401   -2.0264646   -2.5250711 
C     2.1065181   -3.3963307   -2.2105227 
C     3.1971925   -4.1753557   -1.8097633 
H     5.3345667   -4.2167373   -1.4236438 
H     5.6551525   -1.8055442   -2.0173754 
H     3.7268125   -0.4144542   -2.6899459 
H     1.1096246   -3.8464613   -2.2633119 
H     3.0472768   -5.2309090   -1.5605550 
N    -2.7896679   -0.8851519   -0.2181831 
C    -1.2007446   -0.2999973    1.5099882 
C    -2.4697941   -1.0015271    1.0870704 
C    -0.1427679   -3.0562481    0.8837062 
C     1.7306055   -1.0078920    1.8000883 
C    -2.3552303    2.3077673    0.4406206 
C     0.3766684    2.1505666    1.4169296 
C    -3.2324608   -1.7686072    1.9848281 
C    -0.9121324   -3.6437654   -0.1419411 
C     1.6844707   -0.4819332    3.1055583 
C    -2.3267856    3.4007347   -0.4516492 
C     1.7099872    2.1812362    0.9633388 
C     0.2834797   -3.8352916    1.9782372 
C     2.9754563   -1.3199214    1.2116721 
C    -3.4742713    2.1102088    1.2737890 
C     0.0370311    2.7752902    2.6347376 
C    -4.3689845   -2.4293840    1.5013814 
C    -1.2700908   -4.9952336   -0.0619330 
C     2.8750728   -0.2602946    3.8108652 
C    -3.4096139    4.2867960   -0.5050743 
C     2.7007339    2.8065280    1.7321478 
C    -0.0718480   -5.1895296    2.0470629 
C     4.1594169   -1.1041506    1.9267774 
C    -4.5538012    3.0029141    1.2135960 
C     1.0302396    3.4015869    3.3983627 
C    -3.8828934   -1.5163007   -0.6727248 
C    -4.7064260   -2.3013321    0.1468508 
C    -0.8496158   -5.7684480    1.0319280 
C     4.1114540   -0.5689054    3.2238146 
C    -4.5238481    4.0889025    0.3251777 
C     2.3619949    3.4127452    2.9505295 
H    -1.1512747   -0.1512672    2.6007724 
H    -2.9350940   -1.8511366    3.0347906 
H    -1.2278973   -3.0350278   -0.9961775 
H     0.7301985   -0.2218454    3.5725912 
H    -1.4593755    3.5606326   -1.1007817 
H     1.9667590    1.6905382    0.0166671 
H     0.8962692   -3.3865854    2.7674301 
H     3.0175744   -1.7228786    0.1943161 
H    -3.5115064    1.2640105    1.9672333 
H    -1.0030478    2.7765785    2.9810088 
H    -4.9832359   -3.0361186    2.1746276 
H    -1.8708508   -5.4479267   -0.8575584 
H     2.8346631    0.1609040    4.8203840 
H    -3.3799841    5.1305008   -1.2021487 
H     3.7375707    2.8155986    1.3814255 
H     0.2619553   -5.7953051    2.8958655 
H     5.1207912   -1.3495667    1.4638475 
H    -5.4214151    2.8480952    1.8633825 
H     0.7652329    3.8866229    4.3436844 
H    -4.1088701   -1.3855496   -1.7385242 
H    -5.5895115   -2.7966604   -0.2677216 
H    -1.1227553   -6.8271908    1.0901974 
H     5.0388531   -0.3906334    3.7779108 
H    -5.3709134    4.7812042    0.2801101 
H     3.1353243    3.9019121    3.5519403 
