87
Energy =
C     2.9487825   -0.2990746   -1.4021709 
C     2.4932012    0.8491762   -2.1185472 
C     2.2886806    2.0746933   -1.4310959 
H     2.1102391    0.7383063   -3.1409087 
Pd    1.0723820    0.4384337   -0.5116368 
P    -0.9975797    1.2075613    0.3264077 
P     0.0473976   -1.3593455    0.6070489 
H     3.5962526   -0.1171371   -0.5306812 
H     2.9101771    2.2540622   -0.5395925 
C     3.0676729   -4.3573668   -2.8396829 
C     2.4169670   -3.3713894   -3.5996288 
C     2.3721636   -2.0472222   -3.1502993 
C     2.9931280   -1.6747811   -1.9349549 
C     3.6474574   -2.6778147   -1.1822930 
C     3.6800704   -4.0048228   -1.6262961 
H     3.0989729   -5.3933580   -3.1921980 
H     1.9349477   -3.6378827   -4.5458773 
H     1.8416968   -1.3005439   -3.7499191 
H     4.1278993   -2.4110947   -0.2347138 
H     4.1899973   -4.7655146   -1.0264005 
C     0.3588402    5.6188730   -2.9211934 
C     0.0402982    4.3674517   -3.4783503 
C     0.6727783    3.2092736   -3.0179263 
C     1.6379548    3.2761236   -1.9853834 
C     1.9463872    4.5396979   -1.4325782 
C     1.3166088    5.7008617   -1.8997229 
H    -0.1408081    6.5234897   -3.2823425 
H    -0.7132455    4.2963764   -4.2694048 
H     0.3889962    2.2389595   -3.4392840 
H     2.6864227    4.6079339   -0.6274647 
H     1.5725514    6.6712901   -1.4620643 
N    -1.1043488   -0.6479074    3.9353030 
C    -1.1270313   -0.2050133    1.5726778 
C    -0.5335421    0.0598944    2.9433666 
C    -1.4908632    2.7708882    1.1244628 
C    -2.3236927    0.8269476   -0.8834896 
C     0.9742985   -2.3595920    1.8172249 
C    -0.9425758   -2.5397489   -0.3672178 
C     0.5585333    0.9237207    3.1553101 
C    -1.1404491    3.9650614    0.4590184 
C    -3.6802490    0.9932831   -0.5348990 
C     2.2505738   -1.9239451    2.2246107 
C    -2.3496795   -2.5258295   -0.4253173 
C    -2.2161918    2.8224133    2.3332209 
C    -1.9841767    0.3073606   -2.1479772 
C     0.4091596   -3.5200641    2.3842662 
C    -0.2165723   -3.4746266   -1.1391589 
C     1.0748706    1.0463391    4.4508889 
C    -1.5180036    5.2004048    0.9996287 
C    -4.6823582    0.6216914   -1.4402216 
C     2.9585092   -2.6428994    3.1966050 
C    -3.0227139   -3.4402547   -1.2475269 
C    -2.5874522    4.0646396    2.8665214 
C    -2.9909927   -0.0614408   -3.0502563 
C     1.1241161   -4.2358905    3.3525339 
C    -0.8976208   -4.3830076   -1.9571144 
C    -0.6003884   -0.5235132    5.1731538 
C     0.4882389    0.3055709    5.4848560 
C    -2.2390854    5.2514255    2.2029259 
C    -4.3388840    0.0917274   -2.6955456 
C     2.3953772   -3.7987445    3.7588543 
C    -2.3006130   -4.3663976   -2.0145980 
H    -2.1375465   -0.6216899    1.7117887 
H     0.9904134    1.4932117    2.3235364 
H    -0.5769985    3.9285946   -0.4788608 
H    -3.9521020    1.4157009    0.4390125 
H     2.6810841   -1.0203184    1.7787612 
H    -2.9296278   -1.8009623    0.1526750 
H    -2.4890715    1.9031298    2.8616442 
H    -0.9273702    0.1725127   -2.4089262 
H    -0.5831875   -3.8587186    2.0693905 
H     0.8777881   -3.4944301   -1.0968451 
H     1.9207141    1.7127590    4.6488666 
H    -1.2435875    6.1231309    0.4781915 
H    -5.7350757    0.7503912   -1.1681039 
H     3.9505240   -2.3040290    3.5123801 
H    -4.1164715   -3.4232257   -1.2882525 
H    -3.1504579    4.1041529    3.8046897 
H    -2.7219510   -0.4742173   -4.0277073 
H     0.6865350   -5.1371812    3.7938135 
H    -0.3261456   -5.1028780   -2.5519132 
H    -1.0928163   -1.1158484    5.9552216 
H     0.8589234    0.3709953    6.5123826 
H    -2.5296583    6.2183902    2.6264165 
H    -5.1262501   -0.1965002   -3.3997513 
H     2.9501245   -4.3636148    4.5152656 
H    -2.8312721   -5.0770641   -2.6566276 
