87
Energy =
C    -0.2053562    0.9540833   -3.1414279 
C     0.8360390   -0.0141126   -3.2657065 
C     0.5523013   -1.3853273   -3.0194330 
H     1.8803762    0.3115120   -3.3448378 
Pd    0.0198250   -0.1517538   -1.2537276 
P     0.3400768   -1.3474707    0.7560965 
P    -0.7806527    1.1822473    0.5112038 
H    -1.2305250    0.6229410   -3.3665713 
H    -0.4745826   -1.7276169   -3.2208576 
C     0.2815600    5.2304622   -2.9443080 
C    -0.9945824    4.6466464   -2.8988285 
C    -1.1361198    3.2583662   -2.9979503 
C    -0.0057750    2.4177071   -3.1257219 
C     1.2730226    3.0202400   -3.1763289 
C     1.4124523    4.4107961   -3.0927334 
H     0.3940723    6.3170886   -2.8731053 
H    -1.8836835    5.2760350   -2.7889447 
H    -2.1351098    2.8115024   -2.9570021 
H     2.1707085    2.4023732   -3.2790976 
H     2.4108797    4.8579107   -3.1419590 
C     3.3923065   -4.5937776   -2.6243474 
C     2.0675695   -4.8521456   -3.0052633 
C     1.1558864   -3.7964679   -3.1373905 
C     1.5540445   -2.4613443   -2.9029605 
C     2.8935782   -2.2153860   -2.5184350 
C     3.8005631   -3.2699440   -2.3801123 
H     4.1054583   -5.4171291   -2.5144047 
H     1.7401417   -5.8794542   -3.1954945 
H     0.1191621   -4.0047680   -3.4236994 
H     3.2191548   -1.1939412   -2.2939739 
H     4.8308899   -3.0630319   -2.0729035 
N    -2.5111217   -1.5124507    0.1177345 
C    -1.0172768   -0.3530104    1.6269629 
C    -2.3851602   -0.9158667    1.3209574 
C     0.1638301   -3.1192642    1.1479526 
C     1.8606155   -0.8110104    1.6341191 
C    -2.3796037    2.0633394    0.4421459 
C     0.3943124    2.3128183    1.3279880 
C    -3.4650683   -0.7754435    2.2098322 
C    -0.7279622   -3.6254114    2.1143251 
C     2.0972874   -1.1927057    2.9709320 
C    -2.6866954    3.1102175    1.3346453 
C     0.7705014    2.2161977    2.6815624 
C     0.9987356   -4.0022123    0.4304786 
C     2.7719130    0.0394171    0.9779082 
C    -3.3248840    1.6611837   -0.5241645 
C     0.9698422    3.3075813    0.5077658 
C    -4.7144968   -1.2811994    1.8288574 
C    -0.7800441   -5.0048799    2.3594979 
C     3.2230295   -0.7053488    3.6468490 
C    -3.9378938    3.7382749    1.2642461 
C     1.7223425    3.1011294    3.2059867 
C     0.9395840   -5.3783257    0.6820188 
C     3.8957320    0.5262137    1.6589355 
C    -4.5758453    2.2879506   -0.5828319 
C     1.9128853    4.1934163    1.0421583 
C    -3.7096560   -1.9994967   -0.2378589 
C    -4.8434463   -1.9091515    0.5822162 
C     0.0503250   -5.8814226    1.6442542 
C     4.1188715    0.1577095    2.9934842 
C    -4.8823512    3.3266452    0.3106863 
C     2.2945507    4.0879659    2.3891780 
H    -0.8719938   -0.1750974    2.7046856 
H    -3.3287763   -0.2734539    3.1727127 
H    -1.3844018   -2.9522990    2.6750012 
H     1.4052143   -1.8741769    3.4793333 
H    -1.9481284    3.4366558    2.0747382 
H     0.3458903    1.4431683    3.3285159 
H     1.6952430   -3.6151936   -0.3207939 
H     2.5793151    0.3344587   -0.0607481 
H    -3.0735691    0.8555908   -1.2224933 
H     0.6859649    3.3833843   -0.5471229 
H    -5.5760131   -1.1861921    2.4977592 
H    -1.4730216   -5.3952992    3.1120392 
H     3.4056013   -1.0023235    4.6849165 
H    -4.1750052    4.5537409    1.9553525 
H     2.0209595    3.0134605    4.2553856 
H     1.5891746   -6.0560870    0.1187479 
H     4.5937019    1.1972423    1.1483754 
H    -5.3095781    1.9712324   -1.3312806 
H     2.3540019    4.9626437    0.3998512 
H    -3.7626263   -2.4841176   -1.2209413 
H    -5.8006617   -2.3228137    0.2510114 
H     0.0032260   -6.9581415    1.8373594 
H     4.9965697    0.5377793    3.5266105 
H    -5.8576289    3.8217808    0.2594265 
H     3.0400078    4.7749570    2.8029604 
