87
Energy =
C    -0.1697224    0.7645914   -3.2760050 
C     1.0385846    0.0185120   -3.2066113 
C     0.9970998   -1.3566535   -2.8265792 
H     1.9981704    0.5485242   -3.2425331 
Pd    0.0859008   -0.1159938   -1.2553018 
P     0.2307023   -1.2572770    0.7975912 
P    -0.8392263    1.2767617    0.4106721 
H    -1.0884881    0.2082429   -3.5182589 
H     0.0913855   -1.9247434   -3.0880296 
C    -0.5629439    5.0257647   -3.7279561 
C    -1.5987742    4.1651256   -4.1193319 
C    -1.4537075    2.7791599   -3.9735539 
C    -0.2657070    2.2265300   -3.4451291 
C     0.7709751    3.1067894   -3.0538256 
C     0.6224896    4.4897043   -3.1929852 
H    -0.6758511    6.1094944   -3.8347506 
H    -2.5257205    4.5733104   -4.5351375 
H    -2.2705377    2.1118652   -4.2695512 
H     1.6873674    2.7074073   -2.6059488 
H     1.4306410    5.1570401   -2.8762491 
C     4.3522923   -3.7948273   -1.6597316 
C     3.0548530   -4.3291400   -1.7101194 
C     1.9820469   -3.5319163   -2.1232577 
C     2.1756197   -2.1764399   -2.4783576 
C     3.4890735   -1.6535087   -2.4287925 
C     4.5642349   -2.4565741   -2.0298506 
H     5.1940194   -4.4187543   -1.3425499 
H     2.8785753   -5.3726752   -1.4295836 
H     0.9727814   -3.9558138   -2.1548699 
H     3.6783675   -0.6101444   -2.7000396 
H     5.5744764   -2.0345903   -2.0059206 
N    -2.8214300   -0.8026512   -0.1485713 
C    -1.1883994   -0.2080640    1.5348373 
C    -2.4839947   -0.8852311    1.1547928 
C    -0.2263655   -3.0158672    0.9868271 
C     1.7224373   -1.0015493    1.8148888 
C    -2.2799258    2.3938900    0.3903485 
C     0.4607789    2.1877659    1.3332095 
C    -3.2535243   -1.5998651    2.0892768 
C     0.1851238   -3.7718682    2.1029495 
C     1.7119601   -0.4199407    3.0972781 
C    -2.2358456    3.4519350   -0.5424287 
C     0.1576242    2.8673730    2.5311041 
C    -1.0229180   -3.6118257   -0.0127954 
C     2.9472869   -1.3876381    1.2283141 
C    -3.3891344    2.2603281    1.2490157 
C     1.7882525    2.1586159    0.8626202 
C    -4.4160461   -2.2430338    1.6455941 
C    -0.2112878   -5.1113969    2.2187262 
C     2.9182458   -0.2175456    3.7814129 
C    -3.2936566    4.3667887   -0.6108964 
C     1.1804824    3.4885694    3.2589344 
C    -1.4222041   -4.9480367    0.1143318 
C     4.1468284   -1.1899566    1.9223211 
C    -4.4435186    3.1814482    1.1735779 
C     2.8086187    2.7795127    1.5954010 
C    -3.9394614   -1.4164905   -0.5649639 
C    -4.7716567   -2.1498211    0.2928638 
C    -1.0159249   -5.6982009    1.2293758 
C     4.1347135   -0.5999557    3.1962507 
C    -4.3982410    4.2324259    0.2445988 
C     2.5057768    3.4403537    2.7946745 
H    -1.1183888   -0.0224411    2.6188115 
H    -2.9415493   -1.6564820    3.1367331 
H     0.8183675   -3.3171097    2.8722880 
H     0.7743199   -0.1013267    3.5616126 
H    -1.3759495    3.5622061   -1.2115175 
H    -0.8771961    2.9153975    2.8896083 
H    -1.3274619   -3.0213884   -0.8838210 
H     2.9620786   -1.8346066    0.2287186 
H    -3.4382189    1.4417471    1.9741404 
H     2.0165976    1.6249800   -0.0679811 
H    -5.0361362   -2.8094628    2.3479633 
H     0.1115578   -5.6996617    3.0839246 
H     2.9058385    0.2464368    4.7727480 
H    -3.2522656    5.1829251   -1.3394620 
H     0.9437814    4.0162013    4.1888245 
H    -2.0441587   -5.4071469   -0.6610704 
H     5.0924004   -1.4926305    1.4607680 
H    -5.3034514    3.0762823    1.8432005 
H     3.8403981    2.7424651    1.2318073 
H    -4.1787729   -1.3146796   -1.6310061 
H    -5.6752462   -2.6324737   -0.0913621 
H    -1.3211520   -6.7454585    1.3243204 
H     5.0745790   -0.4366453    3.7336941 
H    -5.2258352    4.9470424    0.1876911 
H     3.3022914    3.9259901    3.3680439 
