87
Energy =
C    -0.6272316    0.5627940   -3.2592965 
C     0.6000537   -0.1534525   -3.3103310 
C     0.6470990   -1.5048832   -2.8538624 
H     1.5317253    0.3927356   -3.5015601 
Pd   -0.0830957   -0.1937803   -1.2455619 
P     0.3715703   -1.2034157    0.8313235 
P    -0.8187370    1.2768393    0.4475327 
H    -1.5539779   -0.0252201   -3.3468599 
H    -0.2693816   -2.1051065   -2.9601857 
C    -1.1969360    4.7821374   -3.8840448 
C    -2.2527117    3.8797907   -4.0785829 
C    -2.0503311    2.5078454   -3.8788445 
C    -0.7856738    2.0103904   -3.4925132 
C     0.2703933    2.9324050   -3.2991592 
C     0.0656537    4.3016422   -3.4918402 
H    -1.3535521    5.8553599   -4.0332419 
H    -3.2394572    4.2445075   -4.3819782 
H    -2.8814698    1.8084120   -4.0209065 
H     1.2510304    2.5783035   -2.9635482 
H     0.8912277    5.0021144   -3.3288811 
C     4.1938362   -3.8005090   -2.0081971 
C     2.9163268   -4.3605784   -1.8473776 
C     1.7764703   -3.6118547   -2.1592360 
C     1.8836148   -2.2790633   -2.6208291 
C     3.1771066   -1.7303564   -2.7845094 
C     4.3176595   -2.4859296   -2.4869973 
H     5.0872373   -4.3868541   -1.7705644 
H     2.8077784   -5.3864451   -1.4805800 
H     0.7840904   -4.0554100   -2.0263802 
H     3.2998603   -0.7041109   -3.1447360 
H     5.3100880   -2.0451659   -2.6283708 
N    -2.7889300   -0.8806486    0.2800247 
C    -0.9679203   -0.1437805    1.6923788 
C    -2.2801724   -0.8740488    1.5292827 
C     0.0015908   -2.9568423    1.1868313 
C     1.9789134   -0.8484841    1.6167133 
C    -2.2816229    2.3595288    0.5537359 
C     0.5631056    2.2753591    1.1291092 
C    -2.8968065   -1.5472408    2.5982035 
C    -0.9011911   -3.6357767    0.3423969 
C     3.1241018   -1.2463766    0.8928739 
C    -3.2775493    2.2437929    1.5437543 
C     1.8147937    2.2513056    0.4832542 
C     0.5839446   -3.6288915    2.2803961 
C     2.1249434   -0.1819270    2.8485776 
C    -2.3775062    3.3712565   -0.4255754 
C     0.4018727    3.0204170    2.3156072 
C    -4.0867896   -2.2439059    2.3518726 
C    -1.2338616   -4.9709878    0.6024600 
C     4.4001558   -0.9759043    1.4009773 
C    -4.3587841    3.1364520    1.5516928 
C     2.9031553    2.9429273    1.0316522 
C     0.2523910   -4.9679475    2.5292461 
C     3.4062033    0.0932678    3.3454074 
C    -3.4609317    4.2579565   -0.4096920 
C     1.4920531    3.7120823    2.8587479 
C    -3.9320885   -1.5453267    0.0529908 
C    -4.6203784   -2.2433368    1.0555815 
C    -0.6566054   -5.6375280    1.6949913 
C     4.5430745   -0.3010968    2.6238831 
C    -4.4528325    4.1411805    0.5764591 
C     2.7430980    3.6693613    2.2205123 
H    -0.7603529    0.1092763    2.7445785 
H    -2.4479807   -1.5311317    3.5961588 
H    -1.3396428   -3.1103884   -0.5129337 
H     3.0167307   -1.7596341   -0.0685438 
H    -3.2176847    1.4615393    2.3070675 
H     1.9330299    1.6674334   -0.4376838 
H     1.2985403   -3.1096091    2.9280099 
H     1.2497825    0.1463784    3.4167713 
H    -1.6058073    3.4677510   -1.1967519 
H    -0.5760106    3.0640625    2.8091153 
H    -4.5908069   -2.7800849    3.1625249 
H    -1.9378604   -5.4947569   -0.0524639 
H     5.2831839   -1.2884483    0.8340629 
H    -5.1305423    3.0453060    2.3230757 
H     3.8767299    2.9102990    0.5324433 
H     0.7077762   -5.4909089    3.3765751 
H     3.5142153    0.6234697    4.2968759 
H    -3.5283921    5.0381568   -1.1747768 
H     1.3655724    4.2903911    3.7799839 
H    -4.3127608   -1.5156863   -0.9757501 
H    -5.5508522   -2.7704021    0.8242955 
H    -0.9102531   -6.6841557    1.8929501 
H     5.5418160   -0.0809271    3.0148829 
H    -5.3009391    4.8336251    0.5855757 
H     3.5928155    4.2104662    2.6497300 
