87
Energy =
C    -0.4510996    0.8677500   -3.1412113 
C     0.5765008   -0.1066090   -3.3195190 
C     0.3127923   -1.4696451   -3.0126611 
H     1.6116802    0.2138645   -3.4889285 
Pd   -0.0796426   -0.1853159   -1.2465760 
P     0.3924743   -1.3263979    0.7649961 
P    -0.7400490    1.1987915    0.5374658 
H    -1.4912860    0.5337728   -3.2745093 
H    -0.7265824   -1.8155690   -3.1234558 
C     0.0563029    5.1460976   -3.0970548 
C    -1.2116261    4.5679122   -2.9253215 
C    -1.3630184    3.1781333   -2.9768626 
C    -0.2491951    2.3306899   -3.1817644 
C     1.0208581    2.9274286   -3.3601253 
C     1.1687416    4.3192135   -3.3238883 
H     0.1759725    6.2337577   -3.0631106 
H    -2.0869156    5.2027834   -2.7535577 
H    -2.3549900    2.7358289   -2.8368214 
H     1.9051267    2.3042448   -3.5267878 
H     2.1593955    4.7616274   -3.4724741 
C     3.1765516   -4.6704575   -2.7490322 
C     1.8259548   -4.9374147   -3.0161405 
C     0.9061563   -3.8843893   -3.1066163 
C     1.3209904   -2.5437394   -2.9437034 
C     2.6865537   -2.2891080   -2.6734150 
C     3.6021977   -3.3408100   -2.5765883 
H     3.8965893   -5.4915471   -2.6718369 
H     1.4850147   -5.9692309   -3.1498177 
H    -0.1498866   -4.0990588   -3.3037000 
H     3.0283137   -1.2620994   -2.5053564 
H     4.6535083   -3.1269190   -2.3579939 
N    -2.5002457   -1.5017675    0.3495023 
C    -0.8949250   -0.3055471    1.7086212 
C    -2.2825697   -0.8723936    1.5225493 
C     0.2470215   -3.0869456    1.2157172 
C     1.9756017   -0.7699866    1.5099912 
C    -2.3348589    2.0892870    0.5686164 
C     0.5021984    2.3399564    1.2305415 
C    -3.2914574   -0.7048085    2.4870272 
C     1.0309292   -3.9886546    0.4647041 
C     2.3131150   -1.1152657    2.8349834 
C    -2.5616441    3.1716796    1.4424636 
C     0.9625485    2.2895977    2.5604418 
C    -0.5747566   -3.5674546    2.2545344 
C     2.8348755    0.0594249    0.7629790 
C    -3.3579287    1.6608775   -0.3026052 
C     1.0398791    3.2907513    0.3360375 
C    -4.5662700   -1.2186806    2.2172271 
C     0.9907259   -5.3578225    0.7548131 
C     3.4873855   -0.6124458    3.4094889 
C    -3.8100135    3.8092506    1.4488805 
C     1.9604901    3.1761758    2.9872888 
C    -0.6083455   -4.9401826    2.5378464 
C     4.0074220    0.5620622    1.3427902 
C    -4.6050922    2.2974437   -0.2842992 
C     2.0296597    4.1789455    0.7733435 
C    -3.7223975   -1.9962999    0.1005778 
C    -4.7900784   -1.8811369    1.0022861 
C     0.1709383   -5.8354165    1.7890727 
C     4.3313139    0.2299126    2.6662154 
C    -4.8311752    3.3719607    0.5906556 
C     2.4953612    4.1190341    2.0964915 
H    -0.6682092   -0.0995199    2.7670869 
H    -3.0819057   -0.1762300    3.4220909 
H     1.6732809   -3.6215646   -0.3427952 
H     1.6614337   -1.7806781    3.4132427 
H    -1.7635925    3.5182577    2.1078374 
H     0.5668569    1.5511481    3.2636966 
H    -1.1910204   -2.8796725    2.8422795 
H     2.5640410    0.3261639   -0.2657581 
H    -3.1694229    0.8276592   -0.9883628 
H     0.6903183    3.3298511   -0.7009748 
H    -5.3740744   -1.1033939    2.9471812 
H     1.6002069   -6.0503274    0.1652696 
H     3.7482825   -0.8811619    4.4384806 
H    -3.9847861    4.6523254    2.1252944 
H     2.3243252    3.1243466    4.0183393 
H    -1.2468543   -5.3106771    3.3465400 
H     4.6647696    1.2169549    0.7621402 
H    -5.3989493    1.9603215   -0.9588296 
H     2.4413011    4.9139577    0.0739453 
H    -3.8504456   -2.5080580   -0.8615986 
H    -5.7696666   -2.3023089    0.7571309 
H     0.1382309   -6.9068424    2.0122467 
H     5.2472273    0.6223055    3.1202286 
H    -5.8037727    3.8748717    0.5989146 
H     3.2773344    4.8071350    2.4339587 
