87
Energy =
C     3.1544011   -0.0674608   -1.3044182 
C     2.4430680    0.7553148   -2.2167617 
C     1.9103099    2.0056155   -1.7766010 
H     2.1372810    0.3419770   -3.1862889 
Pd    1.0964530    0.3726951   -0.5407006 
P    -0.9596183    1.0932658    0.3434809 
P     0.1571201   -1.4461492    0.6398922 
H     3.6783017    0.4426176   -0.4805200 
H     2.4648683    2.5281364   -0.9819736 
C     4.4225355   -4.1363948   -1.8861266 
C     5.1064128   -3.2934673   -0.9976710 
C     4.6901469   -1.9665226   -0.8274234 
C     3.5887611   -1.4547387   -1.5504021 
C     2.9114403   -2.3153026   -2.4463043 
C     3.3234786   -3.6407116   -2.6100071 
H     4.7403908   -5.1760477   -2.0145300 
H     5.9649853   -3.6703257   -0.4322850 
H     5.2213245   -1.3151428   -0.1245215 
H     2.0333056   -1.9547841   -2.9924049 
H     2.7802561   -4.2966724   -3.2979349 
C    -0.8372600    4.5285350   -3.9293006 
C    -0.1672632    5.0022071   -2.7899942 
C     0.7328741    4.1741014   -2.1090757 
C     0.9774142    2.8514471   -2.5460149 
C     0.2839352    2.3839156   -3.6870447 
C    -0.6055428    3.2165726   -4.3742079 
H    -1.5354970    5.1776160   -4.4675817 
H    -0.3412054    6.0230356   -2.4347188 
H     1.2544280    4.5524112   -1.2231977 
H     0.4306861    1.3573573   -4.0384170 
H    -1.1291934    2.8367497   -5.2574457 
N    -1.5184008    0.2577614    3.8804557 
C    -1.0400474   -0.3394671    1.5986794 
C    -0.5511072    0.1347418    2.9533034 
C    -1.0768776    2.6592833    1.2701657 
C    -2.4393774    1.0332873   -0.7199598 
C     0.8828485   -2.6766341    1.7723276 
C    -0.9448480   -2.3913058   -0.4828719 
C     0.7958488    0.4566980    3.2107858 
C    -2.3151258    3.1086153    1.7736933 
C    -2.5849149    2.0886821   -1.6484207 
C     0.3161720   -3.0009334    3.0229369 
C    -1.0113004   -2.0445913   -1.8465843 
C     0.0975446    3.3939109    1.5240976 
C    -3.3796653   -0.0155757   -0.6992102 
C     2.0463327   -3.3414803    1.3299269 
C    -1.7702715   -3.4185781    0.0198515 
C     1.1417371    0.9286199    4.4819472 
C    -2.3686855    4.2878741    2.5267155 
C    -3.6631665    2.0901302   -2.5402661 
C     0.9146547   -3.9865793    3.8201384 
C    -1.9059978   -2.7062501   -2.6984227 
C     0.0363118    4.5738064    2.2775934 
C    -4.4570383   -0.0039985   -1.5960179 
C     2.6339840   -4.3266545    2.1331078 
C    -2.6641099   -4.0752668   -0.8357021 
C    -1.1752817    0.7123907    5.0966895 
C     0.1366343    1.0634573    5.4488204 
C    -1.1962421    5.0195437    2.7780515 
C    -4.5999575    1.0444117   -2.5168947 
C     2.0708863   -4.6481655    3.3780035 
C    -2.7343916   -3.7184599   -2.1930471 
H    -2.0527290   -0.7530557    1.7306316 
H     1.5573394    0.3333229    2.4308715 
H    -3.2285703    2.5375132    1.5779788 
H    -1.8589659    2.9090044   -1.6707584 
H    -0.5832814   -2.4888909    3.3800118 
H    -0.3740418   -1.2375521   -2.2288186 
H     1.0549064    3.0344528    1.1307683 
H    -3.2776995   -0.8498723    0.0005392 
H     2.4893336   -3.0912039    0.3606762 
H    -1.7112194   -3.7075277    1.0751525 
H     2.1807267    1.1840010    4.7142560 
H    -3.3287310    4.6373116    2.9201094 
H    -3.7665241    2.9118269   -3.2562518 
H     0.4748678   -4.2372974    4.7909194 
H    -1.9594598   -2.4267620   -3.7554337 
H     0.9491257    5.1461165    2.4722148 
H    -5.1844999   -0.8216334   -1.5730654 
H     3.5356883   -4.8398900    1.7835146 
H    -3.3047296   -4.8719865   -0.4436781 
H    -1.9910149    0.7976730    5.8262696 
H     0.3619569    1.4268620    6.4561215 
H    -1.2453100    5.9423381    3.3654133 
H    -5.4425636    1.0477215   -3.2160676 
H     2.5344426   -5.4153282    4.0068368 
H    -3.4337928   -4.2362682   -2.8576042 
