87
Energy =
C     2.0139372    1.5877955   -2.3478720 
C     2.1090649    0.2717521   -2.8881920 
C     0.9542973   -0.3665534   -3.4177365 
H     3.0173492   -0.3157137   -2.7054598 
Pd    0.5949604    0.2483485   -1.3016801 
P    -1.0169754   -1.0937279   -0.2282741 
P     0.3772871    1.0910229    0.8583252 
H     1.2589859    2.2544149   -2.7930573 
H     0.1485756    0.2862241   -3.7899127 
C     5.0730292    3.6556246   -0.1362066 
C     5.0745733    2.2513801   -0.1779342 
C     4.0834055    1.5652822   -0.8849459 
C     3.0711745    2.2702790   -1.5781318 
C     3.0682718    3.6818353   -1.5068741 
C     4.0620314    4.3679017   -0.7974745 
H     5.8516504    4.1898044    0.4178173 
H     5.8476327    1.6885946    0.3547488 
H     4.0847913    0.4698261   -0.8848790 
H     2.2850414    4.2438631   -2.0285513 
H     4.0497721    5.4624339   -0.7663882 
C     0.5652357   -4.4756919   -4.6394224 
C    -0.5362195   -3.6062813   -4.6697330 
C    -0.3843287   -2.2685978   -4.2907400 
C     0.8674888   -1.7707076   -3.8601596 
C     1.9706638   -2.6549593   -3.8455511 
C     1.8191242   -3.9915565   -4.2332381 
H     0.4499501   -5.5221009   -4.9394466 
H    -1.5158627   -3.9727335   -4.9934911 
H    -1.2467720   -1.5925094   -4.3156342 
H     2.9594378   -2.2988793   -3.5385008 
H     2.6872692   -4.6590365   -4.2241403 
N    -2.3977516   -1.2904202    2.5852732 
C    -0.3875897   -0.5328460    1.4592436 
C    -1.2120761   -0.6725529    2.7184815 
C    -2.7422986   -0.5862399   -0.5411654 
C    -0.9872171   -2.9145869   -0.2777687 
C    -0.8314353    2.4372839    1.0826433 
C     1.8209196    1.4882343    1.9004158 
C    -0.7282922   -0.2188055    3.9618416 
C    -3.3636355   -1.1601384   -1.6728021 
C     0.1200511   -3.5439213   -0.8794986 
C    -1.3999406    3.0179275   -0.0696858 
C     2.1709694    2.8381470    2.1144411 
C    -3.4260305    0.3933374    0.2044595 
C    -2.0361770   -3.6853395    0.2672414 
C    -1.2509052    2.8642809    2.3617720 
C     2.6699690    0.4658945    2.3770820 
C    -1.5279870   -0.3987500    5.0967962 
C    -4.6539889   -0.7619530   -2.0448900 
C     0.1816311   -4.9429978   -0.9352748 
C    -2.3888089    4.0030123    0.0527201 
C     3.3397723    3.1547808    2.8181705 
C    -4.7130127    0.7921352   -0.1797942 
C    -1.9653315   -5.0822455    0.2057607 
C    -2.2447660    3.8442700    2.4770705 
C     3.8310070    0.7910543    3.0889230 
C    -3.1573711   -1.4616652    3.6798406 
C    -2.7730337   -1.0283937    4.9562729 
C    -5.3299471    0.2179331   -1.3013530 
C    -0.8603048   -5.7103370   -0.3943369 
C    -2.8159186    4.4105428    1.3250263 
C     4.1674218    2.1357214    3.3111215 
H     0.5109263   -1.1795093    1.5425556 
H     0.2558313    0.2564813    4.0346282 
H    -2.8416006   -1.9292967   -2.2534410 
H     0.9175438   -2.9378706   -1.3226775 
H    -1.0743959    2.6796669   -1.0602409 
H     1.5330768    3.6399231    1.7295913 
H    -2.9692307    0.8397878    1.0897807 
H    -2.8855728   -3.1834372    0.7403410 
H    -0.8025657    2.4350779    3.2623480 
H     2.4293958   -0.5882547    2.1996387 
H    -1.1814269   -0.0572199    6.0777401 
H    -5.1326363   -1.2203617   -2.9164352 
H     1.0360431   -5.4286778   -1.4166791 
H    -2.8294654    4.4471220   -0.8453238 
H     3.6051972    4.2046338    2.9770214 
H    -5.2369435    1.5521825    0.4089558 
H    -2.7753193   -5.6857839    0.6285622 
H    -2.5730610    4.1699446    3.4694481 
H     4.4765292   -0.0080199    3.4675933 
H    -4.1177082   -1.9699650    3.5251381 
H    -3.4295293   -1.1880056    5.8170315 
H    -6.3382130    0.5292562   -1.5932666 
H    -0.8160626   -6.8034771   -0.4434811 
H    -3.5915721    5.1773661    1.4217601 
H     5.0779954    2.3877409    3.8641191 
