87
Energy =
C     2.9346958   -0.2400864   -1.4519153 
C     2.4381445    0.8907525   -2.1667003 
C     2.2033529    2.1134125   -1.4829926 
H     2.0433712    0.7631521   -3.1823757 
Pd    1.0477870    0.4506808   -0.5404771 
P    -1.0147749    1.1840515    0.3484616 
P     0.0823832   -1.3510148    0.6289232 
H     3.5749778   -0.0389590   -0.5793692 
H     2.8308058    2.3193021   -0.6015859 
C     3.1069433   -4.3091343   -2.8526491 
C     3.6325949   -3.9547139   -1.5996725 
C     3.5925037   -2.6230699   -1.1722660 
C     3.0124063   -1.6165884   -1.9797006 
C     2.4875982   -1.9882662   -3.2396120 
C     2.5413319   -3.3183275   -3.6720552 
H     3.1431089   -5.3495215   -3.1913206 
H     4.0786753   -4.7184139   -0.9544882 
H     4.0005289   -2.3561962   -0.1914809 
H     2.0287508   -1.2372459   -3.8904951 
H     2.1361053   -3.5844421   -4.6538579 
C     0.1434985    5.5829806   -2.9752736 
C     1.0989312    5.7009645   -1.9552596 
C     1.7702702    4.5638797   -1.4868363 
C     1.5065025    3.2890718   -2.0365768 
C     0.5418514    3.1854442   -3.0667170 
C    -0.1317850    4.3195675   -3.5288083 
H    -0.3879468    6.4685741   -3.3382078 
H     1.3203385    6.6805947   -1.5193274 
H     2.5088686    4.6601694   -0.6832847 
H     0.2913177    2.2046542   -3.4851873 
H    -0.8830712    4.2202959   -4.3189956 
N    -0.7395286   -0.6631837    3.9784560 
C    -1.0387017   -0.1840763    1.6449071 
C    -0.3359032    0.1142868    2.9564715 
C    -1.5339179    2.7583963    1.1074185 
C    -2.3741726    0.7061035   -0.7872397 
C     1.0455225   -2.3611429    1.8010079 
C    -0.9695001   -2.5037188   -0.3137590 
C     0.7000935    1.0597097    3.0827357 
C    -2.1667313    2.8339967    2.3656425 
C    -3.7186192    0.8101784   -0.3749672 
C     2.2898710   -1.8734077    2.2481721 
C    -2.3640278   -2.6080446   -0.1485091 
C    -1.2979541    3.9342315    0.3632071 
C    -2.0687805    0.1740111   -2.0552622 
C     0.5390110   -3.5749390    2.3066619 
C    -0.3166759   -3.2867128   -1.2912101 
C     1.3427862    1.1883552    4.3207983 
C    -2.5614285    4.0813453    2.8696230 
C    -4.7422927    0.3635115   -1.2201231 
C     3.0188559   -2.5901466    3.2056562 
C    -3.0986085   -3.4830011   -0.9605787 
C    -1.6969917    5.1747003    0.8755726 
C    -3.0969073   -0.2720800   -2.8961886 
C     1.2776791   -4.2906782    3.2575478 
C    -1.0577425   -4.1609391   -2.0945475 
C    -0.1153712   -0.5331559    5.1588167 
C     0.9340396    0.3722170    5.3826689 
C    -2.3267487    5.2496105    2.1279548 
C    -4.4321259   -0.1812323   -2.4775808 
C     2.5127736   -3.7988132    3.7091240 
C    -2.4494405   -4.2569226   -1.9341134 
H    -2.0299135   -0.6086264    1.8711264 
H     0.9933528    1.6866757    2.2324998 
H    -2.3499037    1.9293890    2.9546332 
H    -3.9644026    1.2421943    0.6017867 
H     2.6780662   -0.9304505    1.8469995 
H    -2.8887170   -2.0017390    0.5950977 
H    -0.8071652    3.8793065   -0.6139367 
H    -1.0205074    0.0891458   -2.3662644 
H    -0.4272224   -3.9548445    1.9591755 
H     0.7674512   -3.2112834   -1.4236666 
H     2.1491139    1.9173877    4.4521917 
H    -3.0533817    4.1393588    3.8459976 
H    -5.7859594    0.4438401   -0.8988930 
H     3.9837150   -2.2088593    3.5553276 
H    -4.1833570   -3.5544351   -0.8325606 
H    -1.5107860    6.0828562    0.2931724 
H    -2.8538642   -0.6963251   -3.8754579 
H     0.8854987   -5.2340782    3.6508851 
H    -0.5431529   -4.7640764   -2.8496687 
H    -0.4720803   -1.1849507    5.9668181 
H     1.4095105    0.4377180    6.3660895 
H    -2.6351134    6.2208664    2.5284080 
H    -5.2360554   -0.5305816   -3.1337493 
H     3.0849704   -4.3620879    4.4536372 
H    -3.0286247   -4.9364276   -2.5679077 
