87
Energy =
C    -0.2195576    0.9920377   -3.1303044 
C     0.7942253   -0.0020029   -3.2763933 
C     0.4775353   -1.3678004   -3.0400959 
H     1.8457872    0.2969073   -3.3644719 
Pd   -0.0012017   -0.1383192   -1.2561200 
P     0.3101671   -1.3646196    0.7366807 
P    -0.7425281    1.1974310    0.5331838 
H    -1.2559176    0.6904420   -3.3455284 
H    -0.5599935   -1.6816242   -3.2331003 
C     0.3831756    5.2517383   -2.8962915 
C     1.4894713    4.4045460   -3.0726607 
C     1.3121536    3.0191086   -3.1690229 
C     0.0189665    2.4496759   -3.1030970 
C    -1.0865852    3.3181729   -2.9477180 
C    -0.9069615    4.7010222   -2.8360028 
H     0.5254165    6.3341630   -2.8151039 
H     2.4983435    4.8259917   -3.1342266 
H     2.1913788    2.3792509   -3.2942041 
H    -2.0961986    2.8971642   -2.8948661 
H    -1.7772995    5.3521199   -2.7045522 
C     3.2386233   -4.6514023   -2.7081795 
C     3.6833450   -3.3408416   -2.4560334 
C     2.8020841   -2.2622636   -2.5737666 
C     1.4524645   -2.4702681   -2.9451695 
C     1.0175990   -3.7924392   -3.1875347 
C     1.9034549   -4.8722155   -3.0760595 
H     3.9317030   -5.4936732   -2.6143809 
H     4.7220423   -3.1632825   -2.1587947 
H     3.1560517   -1.2516511   -2.3434261 
H    -0.0273081   -3.9714376   -3.4637139 
H     1.5477231   -5.8889363   -3.2722188 
N    -2.5518322   -1.4429419    0.1284109 
C    -1.0096021   -0.3436784    1.6340778 
C    -2.3959470   -0.8644777    1.3369912 
C     0.0906452   -3.1355535    1.1102533 
C     1.8541916   -0.8797607    1.6035698 
C    -2.3151945    2.1264444    0.4968353 
C     0.4770631    2.2817600    1.3472907 
C    -3.4617234   -0.7043790    2.2394987 
C     0.8982482   -4.0313462    0.3775466 
C     2.7820353   -0.0481826    0.9464647 
C    -3.2858609    1.7632756   -0.4596781 
C     0.8548605    2.1678500    2.6990762 
C    -0.8082894   -3.6298282    2.0761347 
C     2.0935763   -1.2815190    2.9339817 
C    -2.5773524    3.1732232    1.4036110 
C     1.0847274    3.2572810    0.5272777 
C    -4.7289306   -1.1705914    1.8669088 
C     0.8047313   -5.4083323    0.6132882 
C     3.9255360    0.4006256    1.6207774 
C    -4.5174983    2.4288319   -0.4945603 
C     1.8399991    3.0165389    3.2218853 
C    -0.8947173   -5.0102846    2.3055625 
C     3.2391707   -0.8325031    3.6030335 
C    -3.8094101    3.8400903    1.3570941 
C     2.0610836    4.1072645    1.0601192 
C    -3.7673330   -1.8922927   -0.2191161 
C    -4.8890711   -1.7801324    0.6147627 
C    -0.0917704   -5.8995771    1.5749299 
C     4.1518167    0.0123502    2.9491751 
C    -4.7793082    3.4674258    0.4131452 
C     2.4439083    3.9845196    2.4053071 
H    -0.8473928   -0.1826602    2.7120486 
H    -3.3008743   -0.2175584    3.2063570 
H     1.6004143   -3.6536911   -0.3732462 
H     2.5873904    0.2625685   -0.0871591 
H    -3.0694345    0.9574879   -1.1694661 
H     0.4048711    1.4089502    3.3456361 
H    -1.4435159   -2.9466401    2.6488963 
H     1.3878800   -1.9486078    3.4427239 
H    -1.8187976    3.4694816    2.1361238 
H     0.7996818    3.3457065   -0.5263251 
H    -5.5800704   -1.0594616    2.5465221 
H     1.4332763   -6.0959781    0.0382515 
H     4.6365066    1.0575589    1.1098347 
H    -5.2709744    2.1423857   -1.2355591 
H     2.1394350    2.9155538    4.2698511 
H    -1.5930948   -5.3914368    3.0578572 
H     3.4238871   -1.1450609    4.6361309 
H    -4.0115248    4.6554898    2.0593254 
H     2.5271627    4.8618674    0.4180923 
H    -3.8446391   -2.3636262   -1.2070205 
H    -5.8610501   -2.1631687    0.2897714 
H    -0.1658668   -6.9769393    1.7555681 
H     5.0449933    0.3626100    3.4769822 
H    -5.7393719    3.9929276    0.3804524 
H     3.2151958    4.6431466    2.8178696 
