87
Energy =
C     3.1526361   -0.0394614   -1.3138612 
C     2.4336136    0.7845491   -2.2189346 
C     1.8961083    2.0297416   -1.7699574 
H     2.1266773    0.3753179   -3.1898483 
Pd    1.0951257    0.3852643   -0.5403290 
P    -0.9621296    1.0883673    0.3556722 
P     0.1669526   -1.4485988    0.6261245 
H     3.6761293    0.4687428   -0.4885261 
H     2.4520496    2.5515116   -0.9758080 
C     4.4434015   -4.0971838   -1.9231949 
C     5.1233624   -3.2560648   -1.0300278 
C     4.6997030   -1.9326394   -0.8509226 
C     3.5944699   -1.4226304   -1.5693072 
C     2.9210744   -2.2813479   -2.4699178 
C     3.3407077   -3.6032179   -2.6426989 
H     4.7671278   -5.1341262   -2.0586448 
H     5.9846224   -3.6316200   -0.4678746 
H     5.2278830   -1.2827287   -0.1444134 
H     2.0402849   -1.9224805   -3.0127912 
H     2.8005847   -4.2578585   -3.3343113 
C    -0.8705403    4.5481748   -3.9033825 
C    -0.1913761    5.0240846   -2.7704963 
C     0.7145322    4.1974303   -2.0954243 
C     0.9559036    2.8741284   -2.5320145 
C     0.2528209    2.4042127   -3.6661919 
C    -0.6423708    3.2353692   -4.3476185 
H    -1.5733374    5.1961019   -4.4371025 
H    -0.3624884    6.0456096   -2.4158433 
H     1.2437559    4.5777619   -1.2149672 
H     0.3962503    1.3766616   -4.0161067 
H    -1.1735467    2.8536379   -5.2255140 
N    -1.5171144    0.1844889    3.8907590 
C    -1.0366404   -0.3576840    1.5954273 
C    -0.5520117    0.1003080    2.9569902 
C    -1.0821866    2.6434804    1.3003934 
C    -2.4447420    1.0363430   -0.7043664 
C     0.8995820   -2.6855501    1.7469302 
C    -0.9309410   -2.3887700   -0.5049356 
C     0.7895598    0.4433246    3.2154309 
C    -2.3165410    3.0688273    1.8336170 
C    -3.3775050   -0.0194552   -0.6989138 
C     2.0675313   -3.3385701    1.2987574 
C    -1.7524727   -3.4233731   -0.0109256 
C     0.0857971    3.3937576    1.5370156 
C    -2.6003511    2.1062485   -1.6143753 
C     0.3337313   -3.0264028    2.9935588 
C    -0.9994014   -2.0302256   -1.8654694 
C     1.1321183    0.8953805    4.4945969 
C    -2.3724487    4.2398523    2.5991276 
C    -4.4576441   -0.0001795   -1.5922495 
C     2.6605441   -4.3284790    2.0921045 
C    -2.6443793   -4.0756882   -0.8718233 
C     0.0219908    4.5661038    2.3021258 
C    -3.6812884    2.1152487   -2.5029319 
C     0.9376810   -4.0165975    3.7809588 
C    -1.8923006   -2.6873992   -2.7226810 
C    -1.1771899    0.6202419    5.1148714 
C     0.1291515    0.9898094    5.4685470 
C    -1.2064713    4.9877604    2.8324580 
C    -4.6107034    1.0627674   -2.4946502 
C     2.0983384   -4.6664464    3.3330310 
C    -2.7167620   -3.7070392   -2.2259004 
H    -2.0470017   -0.7788432    1.7209880 
H     1.5493824    0.3515742    2.4295123 
H    -3.2249772    2.4852889    1.6515862 
H    -3.2676105   -0.8648335   -0.0138034 
H     2.5098132   -3.0754779    0.3326011 
H    -1.6920244   -3.7212946    1.0418008 
H     1.0402415    3.0523929    1.1212284 
H    -1.8800431    2.9318088   -1.6251247 
H    -0.5692820   -2.5239029    3.3551376 
H    -0.3653725   -1.2173965   -2.2407594 
H     2.1668819    1.1667113    4.7276582 
H    -3.3292169    4.5703607    3.0161538 
H    -5.1793773   -0.8231207   -1.5810091 
H     3.5656789   -4.8324595    1.7379545 
H    -3.2818893   -4.8781778   -0.4865673 
H     0.9296726    5.1509972    2.4828593 
H    -3.7924376    2.9481052   -3.2047008 
H     0.4986314   -4.2800854    4.7486885 
H    -1.9475298   -2.3985655   -3.7770903 
H    -1.9909332    0.6739031    5.8496679 
H     0.3520567    1.3365389    6.4822431 
H    -1.2575210    5.9043028    3.4293575 
H    -5.4554214    1.0720762   -3.1912114 
H     2.5660479   -5.4372861    3.9542482 
H    -3.4146872   -4.2214088   -2.8946635 
