87
Energy =
C     3.1614730   -0.0242793   -1.2944579 
C     2.4466686    0.8059218   -2.1972467 
C     1.9047096    2.0466884   -1.7414704 
H     2.1461911    0.4039380   -3.1732116 
Pd    1.0983899    0.3913542   -0.5302523 
P    -0.9669375    1.0835349    0.3558329 
P     0.1660332   -1.4533038    0.6158981 
H     3.6799613    0.4781306   -0.4624388 
H     2.4547546    2.5623202   -0.9392253 
C     4.4593306   -4.0759368   -1.9285601 
C     5.1373305   -3.2395062   -1.0295069 
C     4.7114673   -1.9179062   -0.8421825 
C     3.6061934   -1.4049714   -1.5584166 
C     2.9350521   -2.2588141   -2.4652966 
C     3.3566081   -3.5790132   -2.6459467 
H     4.7845981   -5.1115754   -2.0701493 
H     5.9987936   -3.6173342   -0.4691837 
H     5.2379908   -1.2717655   -0.1309913 
H     2.0541812   -1.8976813   -3.0065118 
H     2.8178393   -4.2301012   -3.3419558 
C    -0.8518295    4.5802838   -3.8699886 
C    -0.1819123    5.0463229   -2.7275271 
C     0.7208628    4.2148803   -2.0541644 
C     0.9683507    2.8965254   -2.5021871 
C     0.2747274    2.4365301   -3.6461993 
C    -0.6174645    3.2725121   -4.3256830 
H    -1.5522150    5.2319879   -4.4022769 
H    -0.3578446    6.0638719   -2.3639173 
H     1.2427253    4.5874638   -1.1660375 
H     0.4233109    1.4130086   -4.0056514 
H    -1.1413838    2.8984513   -5.2112073 
N    -1.5496787    0.1485922    3.8790284 
C    -1.0484755   -0.3724326    1.5832550 
C    -0.5765807    0.0752171    2.9526990 
C    -1.0973806    2.6310267    1.3116400 
C    -2.4411554    1.0367651   -0.7160742 
C     0.8941256   -2.6938736    1.7356725 
C    -0.9194882   -2.3896780   -0.5301738 
C     0.7618407    0.4195354    3.2254068 
C    -2.3371804    3.0518219    1.8357625 
C    -2.5926762    2.1139604   -1.6181533 
C     2.0730436   -3.3340350    1.2978981 
C    -1.7372376   -3.4342687   -0.0511576 
C     0.0679343    3.3796723    1.5660784 
C    -3.3710580   -0.0215351   -0.7268256 
C     0.3154266   -3.0481479    2.9726610 
C    -0.9822704   -2.0184018   -1.8876075 
C     1.0924642    0.8610125    4.5113890 
C    -2.4011990    4.2167589    2.6099060 
C    -3.6667592    2.1276779   -2.5149218 
C     2.6645032   -4.3242184    2.0921130 
C    -2.6195576   -4.0841301   -0.9237456 
C    -0.0039089    4.5456858    2.3400817 
C    -4.4443848    0.0025233   -1.6282325 
C     0.9177365   -4.0385920    3.7609536 
C    -1.8657049   -2.6730040   -2.7564939 
C    -1.2211746    0.5741333    5.1098334 
C     0.0811768    0.9438567    5.4777619 
C    -1.2378319    4.9629150    2.8611768 
C    -4.5933744    1.0727127   -2.5227292 
C     2.0896592   -4.6752984    3.3235546 
C    -2.6862516   -3.7029231   -2.2746173 
H    -2.0589633   -0.7967190    1.6967161 
H     1.5284998    0.3367978    2.4451639 
H    -3.2435435    2.4695170    1.6399808 
H    -1.8745661    2.9414868   -1.6162521 
H     2.5253107   -3.0604023    0.3393394 
H    -1.6811579   -3.7420081    0.9989566 
H     1.0266310    3.0419521    1.1571466 
H    -3.2640917   -0.8724390   -0.0481053 
H    -0.5961538   -2.5555354    3.3263069 
H    -0.3514375   -1.1978138   -2.2512619 
H     2.1244819    1.1330979    4.7554949 
H    -3.3622826    4.5438494    3.0196441 
H    -3.7748200    2.9662209   -3.2103707 
H     3.5783707   -4.8180587    1.7462056 
H    -3.2540530   -4.8944462   -0.5500821 
H     0.9017744    5.1291514    2.5349127 
H    -5.1639369   -0.8223990   -1.6295808 
H     0.4687344   -4.3124405    4.7212134 
H    -1.9165631   -2.3742714   -3.8083643 
H    -2.0411605    0.6189734    5.8382559 
H     0.2947246    1.2817733    6.4964379 
H    -1.2951907    5.8746594    3.4648131 
H    -5.4327271    1.0857194   -3.2256861 
H     2.5562602   -5.4461176    3.9456327 
H    -3.3766786   -4.2154141   -2.9525435 
