87
Energy =
C     0.0602084    0.9529640   -3.1500347 
C     1.0758655   -0.0488029   -3.1959441 
C     0.7306205   -1.4095921   -2.9716613 
H     2.1331462    0.2426567   -3.1962251 
Pd    0.1082263   -0.1543552   -1.2500709 
P     0.2393033   -1.3535806    0.7788057 
P    -0.7812522    1.2085272    0.4494146 
H    -0.9559693    0.6548141   -3.4497858 
H    -0.2888764   -1.7195411   -3.2485834 
C     0.6719758    5.2113648   -2.9144206 
C    -0.6226786    4.6691436   -2.9505648 
C    -0.8025210    3.2863075   -3.0616825 
C     0.3058400    2.4094232   -3.1199870 
C     1.6040708    2.9702971   -3.0899452 
C     1.7828200    4.3556296   -2.9942848 
H     0.8148420    6.2937312   -2.8335489 
H    -1.4961760    5.3269133   -2.8949766 
H    -1.8161480    2.8721913   -3.0839207 
H     2.4860273    2.3239183   -3.1395454 
H     2.7963125    4.7702280   -2.9808472 
C     3.4295593   -4.7065397   -2.3701541 
C     2.1292541   -4.9229529   -2.8488701 
C     1.2640137   -3.8388872   -3.0469624 
C     1.6860070   -2.5168633   -2.7818131 
C     3.0003824   -2.3133467   -2.2983387 
C     3.8604863   -3.3961450   -2.0943339 
H     4.1059805   -5.5520850   -2.2086874 
H     1.7844144   -5.9394813   -3.0645478 
H     0.2453864   -4.0143076   -3.4099148 
H     3.3407092   -1.3026028   -2.0487767 
H     4.8710911   -3.2219034   -1.7108600 
N    -2.5606785   -1.4362211   -0.0696508 
C    -1.1490297   -0.3159848    1.5445997 
C    -2.5065690   -0.8386334    1.1384133 
C    -0.0211007   -3.1180633    1.1563749 
C     1.7038879   -0.8610075    1.7705503 
C    -2.3407353    2.1420237    0.2634579 
C     0.3687579    2.2988260    1.3521100 
C    -3.6447382   -0.6627815    1.9444873 
C    -0.9951241   -3.5932699    2.0568483 
C     1.8267224   -1.2479388    3.1210761 
C    -2.6717012    3.2090747    1.1229027 
C     0.6185624    2.2080021    2.7350562 
C     0.8337509   -4.0288637    0.4998329 
C     2.6866323   -0.0376120    1.1869279 
C    -3.2310199    1.7614952   -0.7622148 
C     1.0599203    3.2529441    0.5740925 
C    -4.8769747   -1.1330914    1.4729106 
C    -1.1089896   -4.9698153    2.2974566 
C     2.9109082   -0.7921231    3.8816989 
C    -3.8925238    3.8786943    0.9606356 
C     1.5599580    3.0580198    3.3311480 
C     0.7123881   -5.4018684    0.7461009 
C     3.7682150    0.4180843    1.9525867 
C    -4.4524545    2.4298265   -0.9126014 
C     1.9917742    4.1045239    1.1793089 
C    -3.7434664   -1.8894856   -0.5120228 
C    -4.9317254   -1.7623821    0.2215011 
C    -0.2587493   -5.8741074    1.6425981 
C     3.8780776    0.0447055    3.2998874 
C    -4.7832074    3.4886330   -0.0518619 
C     2.2472347    4.0044711    2.5562172 
H    -1.0787488   -0.1394136    2.6300358 
H    -3.5653518   -0.1611463    2.9139300 
H    -1.6677620   -2.8981420    2.5694124 
H     1.0787647   -1.9089658    3.5742474 
H    -1.9747835    3.5188097    1.9090746 
H     0.1023635    1.4660078    3.3511143 
H     1.5937162   -3.6659049   -0.2000969 
H     2.5827962    0.2613927    0.1368608 
H    -2.9608494    0.9401841   -1.4347426 
H     0.8745505    3.3232098   -0.5029039 
H    -5.7824723   -1.0098698    2.0758673 
H    -1.8657262   -5.3361931    2.9989312 
H     3.0050456   -1.0932337    4.9303014 
H    -4.1478106    4.7096234    1.6263726 
H     1.7600328    2.9749061    4.4040947 
H     1.3778862   -6.1014661    0.2300669 
H     4.5217214    1.0687432    1.4976734 
H    -5.1436795    2.1296544   -1.7069103 
H     2.5230761    4.8424402    0.5693860 
H    -3.7377748   -2.3768738   -1.4951585 
H    -5.8735710   -2.1491726   -0.1789701 
H    -0.3542907   -6.9483882    1.8313799 
H     4.7227347    0.4003987    3.8991173 
H    -5.7348119    4.0161578   -0.1747526 
H     2.9840212    4.6640450    3.0263083 
