87
Energy =
C     2.6895138   -0.4624673   -2.3850984 
C     1.8834782    0.5069243   -3.0429161 
C     1.7003658    1.7953386   -2.4602618 
H     1.2506123    0.2011676   -3.8851651 
Pd    1.0512278    0.2428826   -1.0326740 
P    -0.6671198    1.2196424    0.2023966 
P     0.3848793   -1.3853211    0.5289331 
H     3.5006426   -0.0824934   -1.7439094 
H     2.5268360    2.1814225   -1.8427012 
C     3.1445781   -4.6032419   -3.4649180 
C     4.0857711   -3.9688346   -2.6392514 
C     3.9270159   -2.6188967   -2.3021647 
C     2.8236201   -1.8755308   -2.7815172 
C     1.8764866   -2.5326841   -3.6015770 
C     2.0396236   -3.8788124   -3.9426674 
H     3.2691095   -5.6573318   -3.7334759 
H     4.9497843   -4.5254512   -2.2618374 
H     4.6672127   -2.1273931   -1.6605783 
H     0.9940466   -1.9931999   -3.9612926 
H     1.2950639   -4.3706756   -4.5768813 
C    -1.0269743    4.8478784   -3.7856519 
C     0.0436887    5.1628423   -2.9362113 
C     0.9185338    4.1569637   -2.5079564 
C     0.7443776    2.8175801   -2.9247716 
C    -0.3565409    2.5112248   -3.7586180 
C    -1.2260124    3.5171734   -4.1889438 
H    -1.7100259    5.6329633   -4.1256656 
H     0.2032607    6.1964866   -2.6121016 
H     1.7588273    4.4094088   -1.8507967 
H    -0.5419326    1.4768632   -4.0659131 
H    -2.0718369    3.2612647   -4.8345952 
N    -3.0194132   -1.1418227    2.3689528 
C    -1.1996295   -0.4328018    0.9662609 
C    -1.8077915   -0.5461350    2.3387698 
C    -0.2731837    2.4040689    1.5283207 
C    -2.1017182    1.8987268   -0.7027566 
C     1.3603385   -1.5059697    2.0690485 
C    -0.1316283   -3.0864910    0.1186406 
C    -1.1539530   -0.1027717    3.5061306 
C    -1.2693058    2.8634332    2.4186996 
C    -2.8730957    1.0465023   -1.5229863 
C     1.0659561   -2.4849794    3.0405580 
C    -1.4269516   -3.5769036    0.3917738 
C     1.0556618    2.8492789    1.6738556 
C    -2.3607266    3.2846231   -0.7036307 
C     2.3700023   -0.5540862    2.3153649 
C     0.8247934   -3.9206312   -0.4999195 
C    -1.7955187   -0.2720815    4.7393191 
C    -0.9276463    3.7492949    3.4476787 
C    -3.9174877    1.5691675   -2.2944027 
C     1.7688942   -2.4960919    4.2522128 
C    -1.7509017   -4.8986591    0.0516238 
C     1.3916176    3.7344766    2.7077412 
C    -3.4027184    3.8004619   -1.4854059 
C     3.0626529   -0.5640861    3.5335771 
C     0.4884915   -5.2382133   -0.8327475 
C    -3.6236497   -1.2987597    3.5564051 
C    -3.0581237   -0.8772129    4.7703018 
C     0.4010255    4.1809663    3.5952608 
C    -4.1866837    2.9467430   -2.2739184 
C     2.7604433   -1.5337942    4.5023432 
C    -0.7979459   -5.7282664   -0.5586178 
H    -1.9504876   -0.8162064    0.2515323 
H    -0.1654576    0.3602662    3.4514561 
H    -2.3055958    2.5281979    2.3059070 
H    -2.6623783   -0.0280762   -1.5659481 
H     0.2882679   -3.2318683    2.8485701 
H    -2.1799865   -2.9456296    0.8781777 
H     1.8197586    2.5044946    0.9679199 
H    -1.7490367    3.9620798   -0.1006272 
H     2.6090189    0.1915495    1.5482909 
H     1.8272741   -3.5419971   -0.7263713 
H    -1.3106125    0.0626552    5.6620775 
H    -1.7001439    4.1030007    4.1381142 
H    -4.5204856    0.8989282   -2.9154448 
H     1.5404211   -3.2575802    5.0049461 
H    -2.7541167   -5.2800562    0.2684558 
H     2.4246464    4.0800587    2.8167407 
H    -3.5970392    4.8776377   -1.4794632 
H     3.8446970    0.1783805    3.7230168 
H     1.2340185   -5.8766402   -1.3170320 
H    -4.6060919   -1.7878942    3.5372716 
H    -3.5941195   -1.0283608    5.7124189 
H     0.6626762    4.8738021    4.4017690 
H    -5.0026425    3.3542463   -2.8794940 
H     3.3067313   -1.5464928    5.4512297 
H    -1.0592336   -6.7581750   -0.8231852 
