87
Energy =
C     0.1987625    1.0222494   -3.1222709 
C     1.2196485    0.0249796   -3.1450025 
C     0.8708217   -1.3415434   -2.9652353 
H     2.2746895    0.3197945   -3.0917083 
Pd    0.1660274   -0.1264328   -1.2469036 
P     0.2078591   -1.3692425    0.7593851 
P    -0.8064248    1.1963834    0.4383967 
H    -0.8020402    0.7277181   -3.4729251 
H    -0.1338102   -1.6491364   -3.2942152 
C     0.7829382    5.2758608   -2.7623750 
C    -0.5068840    4.7306770   -2.8654045 
C    -0.6763659    3.3502916   -3.0162314 
C     0.4370392    2.4784422   -3.0484989 
C     1.7306121    3.0424114   -2.9510144 
C     1.8996074    4.4256734   -2.8156180 
H     0.9179113    6.3564685   -2.6503859 
H    -1.3845700    5.3843330   -2.8311974 
H    -1.6864666    2.9336614   -3.0902560 
H     2.6164550    2.4000829   -2.9788049 
H     2.9099643    4.8429642   -2.7502165 
C     3.5560990   -4.6396717   -2.3110883 
C     2.2809643   -4.8508923   -2.8553645 
C     1.4201808   -3.7663890   -3.0700118 
C     1.8221258   -2.4488835   -2.7559017 
C     3.1112064   -2.2505991   -2.2065831 
C     3.9665598   -3.3339513   -1.9862554 
H     4.2286706   -5.4857257   -2.1367005 
H     1.9521709   -5.8638096   -3.1096837 
H     0.4208076   -3.9380241   -3.4846144 
H     3.4336996   -1.2442612   -1.9185157 
H     4.9570210   -3.1639565   -1.5517223 
N    -2.5477725   -1.4455341   -0.2206078 
C    -1.2193845   -0.3531808    1.4812595 
C    -2.5537917   -0.8719387    1.0002149 
C    -0.0625254   -3.1421244    1.0871825 
C     1.6227125   -0.8932824    1.8284499 
C    -2.3585015    2.1303495    0.2004892 
C     0.2975930    2.2679804    1.4176178 
C    -3.7298446   -0.7160824    1.7543543 
C     0.8239375   -4.0364931    0.4503102 
C     2.6286080   -0.0556759    1.3079480 
C    -2.7294783    3.1821961    1.0622894 
C     1.0256280    3.2371155    0.6936922 
C    -1.0738013   -3.6388367    1.9333581 
C     1.6839726   -1.3072630    3.1751458 
C    -3.2020946    1.7656386   -0.8694985 
C     0.4806967    2.1481111    2.8087799 
C    -4.9360818   -1.1813551    1.2154001 
C     0.6969691   -5.4147141    0.6623182 
C     3.6718957    0.3871707    2.1320693 
C    -3.9438387    3.8521333    0.8579621 
C     1.9280860    4.0743144    1.3604721 
C    -1.1931719   -5.0204566    2.1397900 
C     2.7299495   -0.8639850    3.9944592 
C    -4.4176125    2.4339152   -1.0618992 
C     1.3931401    2.9838695    3.4668773 
C    -3.7061594   -1.8938066   -0.7278811 
C    -4.9284987   -1.7856793   -0.0494099 
C    -0.3111620   -5.9083809    1.5048317 
C     3.7202453   -0.0130979    3.4752648 
C    -4.7885766    3.4772859   -0.1986826 
C     2.1175087    3.9449801    2.7455779 
H    -1.2011033   -0.2002495    2.5724054 
H    -3.6989223   -0.2333457    2.7360453 
H     1.6125310   -3.6568348   -0.2078603 
H     2.5722776    0.2645002    0.2605241 
H    -2.0684446    3.4798586    1.8833336 
H     0.8921261    3.3299566   -0.3892782 
H    -1.7708226   -2.9564091    2.4301204 
H     0.9181911   -1.9793971    3.5795739 
H    -2.9004475    0.9566250   -1.5435699 
H    -0.0651165    1.3945675    3.3839063 
H    -5.8697353   -1.0736425    1.7769697 
H     1.3874357   -6.1014317    0.1620318 
H     4.4434502    1.0487948    1.7258462 
H    -4.2300345    4.6714511    1.5255261 
H     2.4885640    4.8237820    0.7921676 
H    -1.9790991   -5.4036698    2.7988923 
H     2.7762914   -1.1859693    5.0400701 
H    -5.0726531    2.1457376   -1.8905573 
H     1.5414445    2.8782120    4.5462412 
H    -3.6515664   -2.3610563   -1.7192512 
H    -5.8484721   -2.1678564   -0.5017977 
H    -0.4107291   -6.9866317    1.6670626 
H     4.5348932    0.3324841    4.1202173 
H    -5.7355263    4.0046648   -0.3538828 
H     2.8315411    4.5932137    3.2640518 
