87
Energy =
C    -0.0961001    0.3575429   -3.2714534 
C     1.1380220   -0.3500967   -3.1553887 
C     1.1366337   -1.6912938   -2.6835753 
H     2.0888468    0.1917688   -3.2276245 
Pd    0.1744311   -0.3448262   -1.2047963 
P     0.5491924   -1.0893040    1.0034260 
P    -1.0686613    1.0357794    0.2399221 
H    -0.9971760   -0.2336303   -3.4950733 
H     0.2345879   -2.2907183   -2.8813248 
C    -0.5733381    4.6051371   -3.8140666 
C    -1.6900252    3.7576603   -3.7345703 
C    -1.5156373    2.3769125   -3.5925979 
C    -0.2222820    1.8105136   -3.5070866 
C     0.8933258    2.6756479   -3.5953614 
C     0.7178073    4.0556802   -3.7532433 
H    -0.7075109    5.6853149   -3.9310287 
H    -2.7012951    4.1740021   -3.7864954 
H    -2.3926130    1.7242647   -3.5266280 
H     1.9098183    2.2736101   -3.5384072 
H     1.5948518    4.7071828   -3.8277427 
C     4.5530578   -4.0458651   -1.5436752 
C     3.3583991   -4.6625993   -1.9426403 
C     2.2566455   -3.8828721   -2.3183138 
C     2.3317494   -2.4720276   -2.3136958 
C     3.5430875   -1.8631871   -1.9078785 
C     4.6394880   -2.6418869   -1.5266762 
H     5.4137947   -4.6524244   -1.2440303 
H     3.2811046   -5.7546673   -1.9572225 
H     1.3220063   -4.3694394   -2.6180576 
H     3.6170405   -0.7714493   -1.8594639 
H     5.5662978   -2.1545682   -1.2068570 
N    -2.1207199   -2.0148402    0.2408023 
C    -1.0714081   -0.3098598    1.5993191 
C    -2.2466723   -1.2169896    1.3210420 
C     0.7289606   -2.7644879    1.6997965 
C     1.8220401   -0.0771587    1.8557174 
C    -2.8079187    1.4956168   -0.0778771 
C    -0.2545698    2.5253140    0.9064591 
C    -3.4132641   -1.1872559    2.1048018 
C    -0.1267482   -3.3037363    2.6806940 
C     2.5855155    0.8418280    1.1094344 
C    -3.5428360    0.7322941   -1.0085697 
C    -0.0051192    2.7416890    2.2754226 
C     1.8097189   -3.5295202    1.2116712 
C     2.0037503   -0.1678194    3.2513002 
C    -3.4244289    2.5697178    0.5950435 
C     0.1733776    3.4768297   -0.0448905 
C    -4.4787809   -2.0240102    1.7492380 
C     0.1007942   -4.5984213    3.1681627 
C     3.5032735    1.6818627    1.7542859 
C    -4.8906241    1.0281231   -1.2476492 
C     0.6763861    3.8951925    2.6866630 
C     2.0291076   -4.8215679    1.7044939 
C     2.9235042    0.6726169    3.8912501 
C    -4.7716202    2.8648786    0.3441885 
C     0.8451664    4.6308625    0.3753621 
C    -3.1434547   -2.8176874   -0.0901701 
C    -4.3446617   -2.8597672    0.6318801 
C     1.1753098   -5.3580838    2.6807282 
C     3.6690475    1.6004405    3.1444472 
C    -5.5051239    2.0941998   -0.5716270 
C     1.1028225    4.8386596    1.7398103 
H    -1.0746090    0.0701733    2.6336944 
H    -3.4849871   -0.5167489    2.9667474 
H    -0.9708217   -2.7225751    3.0652343 
H     2.4362953    0.9085301    0.0249165 
H    -3.0527154   -0.0926527   -1.5369948 
H    -0.3168383    2.0090617    3.0255052 
H     2.4795666   -3.1156184    0.4504481 
H     1.4306410   -0.8980773    3.8344095 
H    -2.8514950    3.1755166    1.3053772 
H    -0.0121497    3.3109487   -1.1113382 
H    -5.4017805   -2.0232113    2.3380843 
H    -0.5650648   -5.0144751    3.9313695 
H     4.0845370    2.4030585    1.1711310 
H    -5.4602715    0.4312927   -1.9674675 
H     0.8791525    4.0523079    3.7507766 
H     2.8682623   -5.4090845    1.3182164 
H     3.0631995    0.6016816    4.9750418 
H    -5.2495464    3.7013189    0.8645646 
H     1.1732089    5.3643578   -0.3684160 
H    -2.9926893   -3.4553772   -0.9703687 
H    -5.1514579   -3.5323764    0.3256685 
H     1.3464514   -6.3698926    3.0624876 
H     4.3856942    2.2565992    3.6493343 
H    -6.5570198    2.3297367   -0.7639831 
H     1.6380639    5.7364247    2.0659579 
