87
Energy =
C     0.6402976    0.6575506   -3.4159781 
C     1.9658565    0.7569544   -2.9020130 
C     2.6169851   -0.3813642   -2.3535841 
H     2.3962818    1.7534323   -2.7423437 
Pd    0.6917894   -0.0290846   -1.3002110 
P     0.8286860   -0.8003889    0.9072593 
P    -1.3886225    0.4076392   -0.3019216 
H     0.3409471   -0.3110636   -3.8458562 
H     2.3006169   -1.3702721   -2.7216443 
C    -1.7589507    3.9830922   -4.7223533 
C    -0.7766429    4.1789368   -3.7372839 
C    -0.0011092    3.1048369   -3.2922724 
C    -0.1831796    1.8089963   -3.8306885 
C    -1.1931265    1.6217951   -4.8016056 
C    -1.9696459    2.6993003   -5.2468910 
H    -2.3639679    4.8265079   -5.0704601 
H    -0.6242341    5.1733600   -3.3057796 
H     0.7413949    3.2684272   -2.5034094 
H    -1.3551921    0.6228952   -5.2224878 
H    -2.7371438    2.5364292   -6.0107863 
C     6.3223259   -0.4241898   -0.1573536 
C     5.5499916   -1.5885435   -0.2922449 
C     4.3616415   -1.5595363   -1.0287906 
C     3.9048858   -0.3649182   -1.6324165 
C     4.6973502    0.7974247   -1.4939912 
C     5.8948707    0.7641760   -0.7696655 
H     7.2563702   -0.4452953    0.4130151 
H     5.8799095   -2.5231072    0.1731059 
H     3.7663072   -2.4732185   -1.1407838 
H     4.3886808    1.7349309   -1.9678342 
H     6.5008075    1.6724584   -0.6851968 
N    -2.7179860    0.3174814    2.5368798 
C    -0.5796124    0.3596940    1.4029017 
C    -1.3853437    0.2108671    2.6735806 
C     0.3540807   -2.5210748    1.2814082 
C     2.2930093   -0.4196516    1.9296011 
C    -2.5965509   -0.9453962   -0.5215705 
C    -2.2974730    1.9687257   -0.5015206 
C    -0.7626641   -0.0024620    3.9185625 
C     1.3196394   -3.5225771    1.0272021 
C     3.0548823    0.7088368    1.5625132 
C    -3.9300757   -0.8366559   -0.0732330 
C    -3.0273701    2.1410391   -1.6973591 
C    -0.9330475   -2.8932171    1.7186693 
C     2.6840920   -1.2032832    3.0355379 
C    -2.1722850   -2.1168415   -1.1825830 
C    -2.2407186    3.0133768    0.4420288 
C    -1.5701521   -0.1210545    5.0557627 
C     1.0029150   -4.8716967    1.2219413 
C     4.1875585    1.0613306    2.3054384 
C    -4.8152581   -1.9037837   -0.2680794 
C    -3.7005066    3.3441130   -1.9370910 
C    -1.2436635   -4.2478850    1.9047055 
C     3.8230527   -0.8466037    3.7702157 
C    -3.0606600   -3.1847367   -1.3646280 
C    -2.9132263    4.2169310    0.1906357 
C    -3.4847712    0.2061182    3.6347586 
C    -2.9617452   -0.0178740    4.9155443 
C    -0.2809514   -5.2367857    1.6597300 
C     4.5732532    0.2832757    3.4077096 
C    -4.3812696   -3.0791594   -0.9043256 
C    -3.6422427    4.3841095   -0.9967522 
H    -0.0282222    1.3236424    1.4208795 
H     0.3269904   -0.0735841    3.9906083 
H     2.3223208   -3.2415139    0.6858619 
H     2.7680323    1.2950456    0.6815565 
H    -4.2571047    0.0762498    0.4302255 
H    -3.0675570    1.3371460   -2.4398193 
H    -1.7030509   -2.1404522    1.9029598 
H     2.1032508   -2.0874766    3.3178647 
H    -1.1399496   -2.1898059   -1.5470603 
H    -1.6954543    2.8885714    1.3826003 
H    -1.1187449   -0.2903223    6.0388375 
H     1.7583754   -5.6402705    1.0289635 
H     4.7808370    1.9320227    2.0104029 
H    -5.8506723   -1.8189466    0.0780448 
H    -4.2631341    3.4711121   -2.8669018 
H    -2.2475810   -4.5262462    2.2405441 
H     4.1262373   -1.4548059    4.6287374 
H    -2.7222041   -4.0947467   -1.8699914 
H    -2.8752020    5.0228165    0.9308152 
H    -4.5673758    0.2985287    3.4786839 
H    -3.6281184   -0.1064464    5.7789264 
H    -0.5287178   -6.2928429    1.8080922 
H     5.4652074    0.5534716    3.9822782 
H    -5.0795095   -3.9099478   -1.0512295 
H    -4.1677431    5.3254803   -1.1875983 
