87
Energy =
C     3.1910543   -0.0119015   -1.1529319 
C     2.5393295    0.8600591   -2.0654236 
C     1.9732089    2.0844509   -1.6000371 
H     2.2930530    0.4930159   -3.0696094 
Pd    1.0947591    0.3881239   -0.4964725 
P    -0.9951855    1.0556761    0.3601650 
P     0.1348069   -1.4675179    0.6077159 
H     3.6680058    0.4517170   -0.2751208 
H     2.4539711    2.5605558   -0.7318389 
C     4.4799094   -4.0518911   -1.8779223 
C     3.4358882   -3.5066761   -2.6468322 
C     3.0174788   -2.1900789   -2.4346626 
C     3.6335534   -1.3879358   -1.4449611 
C     4.6777633   -1.9499845   -0.6765199 
C     5.1006902   -3.2678123   -0.8945570 
H     4.8034722   -5.0842014   -2.0454930 
H     2.9411826   -4.1172090   -3.4091641 
H     2.1806975   -1.7918144   -3.0186217 
H     5.1596722   -1.3450146    0.0994735 
H     5.9144809   -3.6838832   -0.2917315 
C    -0.7162017    4.6665183   -3.7560571 
C    -0.2519191    5.0146319   -2.4773289 
C     0.6434197    4.1773278   -1.8030126 
C     1.0840572    2.9648352   -2.3835457 
C     0.6096879    2.6282459   -3.6729399 
C    -0.2751359    3.4736671   -4.3522508 
H    -1.4121247    5.3234421   -4.2876027 
H    -0.5863519    5.9439415   -2.0050583 
H     0.9962263    4.4538596   -0.8037311 
H     0.9284321    1.6978881   -4.1536383 
H    -0.6251654    3.1986633   -5.3526594 
N    -1.3917034    0.5252732    3.8236056 
C    -1.0090371   -0.3721666    1.6296494 
C    -0.4485389    0.1560472    2.9371328 
C    -1.2107383    2.6166081    1.2759679 
C    -2.4446552    0.8811451   -0.7319072 
C     0.8485745   -2.7675916    1.6676615 
C    -1.0204871   -2.3272567   -0.5288698 
C     0.9290220    0.3200402    3.1791627 
C    -2.4936432    3.1224224    1.5650533 
C    -3.4950274   -0.0279626   -0.5013671 
C     1.9349595   -3.4975500    1.1393885 
C    -1.9080073   -3.3064074   -0.0372114 
C    -0.0639210    3.2839516    1.7511669 
C    -2.4544585    1.6879869   -1.8908840 
C     0.3493829   -3.0738102    2.9507568 
C    -1.0640323   -1.9600880   -1.8880808 
C     1.3327430    0.9006137    4.3883147 
C    -2.6215061    4.2889509    2.3298935 
C    -4.5410485   -0.1338289   -1.4281453 
C     2.5129153   -4.5279553    1.8908550 
C    -2.8433959   -3.8931947   -0.8988393 
C    -0.1998465    4.4451840    2.5224649 
C    -3.5058747    1.5791108   -2.8082650 
C     0.9364631   -4.1066890    3.6951618 
C    -2.0027482   -2.5495274   -2.7451750 
C    -0.9936603    1.0821997    4.9774398 
C     0.3538017    1.2974059    5.3075659 
C    -1.4785356    4.9474342    2.8107262 
C    -4.5473202    0.6650938   -2.5813001 
C     2.0164282   -4.8318683    3.1682826 
C    -2.8942050   -3.5122080   -2.2502657 
H    -2.0126783   -0.7830188    1.8238306 
H     1.6702484   -0.0057150    2.4398629 
H    -3.3848568    2.6052274    1.1950296 
H    -3.4990368   -0.6683808    0.3850110 
H     2.3246656   -3.2634756    0.1433784 
H    -1.8657014   -3.6113153    1.0146957 
H     0.9302515    2.8859778    1.5183894 
H    -1.6408815    2.3969092   -2.0756306 
H    -0.4896281   -2.5113751    3.3732085 
H    -0.3752996   -1.1926821   -2.2619382 
H     2.3966301    1.0376814    4.6079823 
H    -3.6177004    4.6833074    2.5549148 
H    -5.3506433   -0.8481303   -1.2480080 
H     3.3550689   -5.0905533    1.4750080 
H    -3.5328616   -4.6528994   -0.5162326 
H     0.6912547    4.9612029    2.8943617 
H    -3.5055617    2.2086240   -3.7041189 
H     0.5478284   -4.3444358    4.6907026 
H    -2.0414143   -2.2518514   -3.7977518 
H    -1.7917245    1.3704737    5.6738345 
H     0.6238549    1.7563808    6.2635457 
H    -1.5849623    5.8581142    3.4093051 
H    -5.3652756    0.5758851   -3.3037344 
H     2.4724354   -5.6352903    3.7559843 
H    -3.6286275   -3.9727225   -2.9191995 
