87
Energy =
C     2.9768050   -0.2483939   -1.3607995 
C     2.5146941    0.8980439   -2.0740946 
C     2.2721677    2.1132963   -1.3801361 
H     2.1508631    0.7894307   -3.1034659 
Pd    1.0700466    0.4494492   -0.4984805 
P    -1.0146693    1.1896451    0.3315155 
P     0.0498125   -1.3605786    0.6100810 
H     3.5935534   -0.0664263   -0.4673426 
H     2.8738283    2.2994298   -0.4766375 
C     3.1553517   -4.2978658   -2.8166931 
C     3.6570899   -3.9646935   -1.5481752 
C     3.6144360   -2.6393047   -1.1017509 
C     3.0562044   -1.6179889   -1.9059434 
C     2.5542743   -1.9686308   -3.1811171 
C     2.6103944   -3.2923296   -3.6321491 
H     3.1935595   -5.3332925   -3.1700480 
H     4.0867373   -4.7400370   -0.9057313 
H     4.0041468   -2.3889499   -0.1092391 
H     2.1110247   -1.2060066   -3.8293589 
H     2.2226893   -3.5420340   -4.6252593 
C     0.2969393    5.6272700   -2.8830269 
C     1.2215689    5.7195683   -1.8324224 
C     1.8655988    4.5682426   -1.3604811 
C     1.6055759    3.3046935   -1.9374126 
C     0.6727264    3.2271612   -2.9986503 
C     0.0255695    4.3753354   -3.4638560 
H    -0.2137036    6.5239569   -3.2485747 
H     1.4400606    6.6901929   -1.3753896 
H     2.5796643    4.6444338   -0.5329357 
H     0.4256355    2.2556864   -3.4402150 
H    -0.7021943    4.2959775   -4.2779311 
N    -0.9020921   -0.7118623    3.9399657 
C    -1.0991344   -0.2004195    1.6021343 
C    -0.4457523    0.0709871    2.9446537 
C    -1.5455695    2.7557216    1.0993197 
C    -2.3368549    0.7465659   -0.8611019 
C     0.9667256   -2.3910891    1.8014281 
C    -0.9740122   -2.4970295   -0.3818594 
C     0.5976045    0.9995436    3.1244009 
C    -2.2271543    2.8153518    2.3326959 
C    -1.9908086    0.2326793   -2.1261696 
C     2.2050606   -1.9236664    2.2852463 
C    -2.3766608   -2.5768975   -0.2864161 
C    -1.2678247    3.9422102    0.3871485 
C    -3.6944619    0.8590034   -0.4966829 
C     0.4295334   -3.6005605    2.2855646 
C    -0.2869688   -3.2934098   -1.3246312 
C     1.1902092    1.1052541    4.3892392 
C    -2.6285111    4.0576161    2.8438797 
C    -2.9920295   -0.1871254   -3.0119362 
C     2.8980373   -2.6567009    3.2570998 
C    -3.0848095   -3.4418331   -1.1320535 
C    -1.6738659    5.1775091    0.9064551 
C    -4.6910445    0.4381916   -1.3863339 
C     1.1322234   -4.3325131    3.2511966 
C    -1.0021364   -4.1564786   -2.1626742 
C    -0.3257105   -0.6036755    5.1466129 
C     0.7260100    0.2839361    5.4240280 
C    -2.3521431    5.2365486    2.1341150 
C    -4.3406825   -0.0884568   -2.6409558 
C     2.3616413   -3.8610827    3.7387936 
C    -2.4015018   -4.2289305   -2.0710035 
H    -2.1017270   -0.6199129    1.7831298 
H     0.9348345    1.6312739    2.2941843 
H    -2.4432348    1.9021893    2.8967999 
H    -0.9327104    0.1413297   -2.4000397 
H     2.6168482   -0.9837983    1.9006953 
H    -2.9273298   -1.9594213    0.4286271 
H    -0.7392248    3.8994327   -0.5706635 
H    -3.9715244    1.2772263    0.4777015 
H    -0.5322190   -3.9645222    1.9097971 
H     0.8037052   -3.2379410   -1.4022218 
H     2.0007446    1.8208112    4.5621460 
H    -3.1585215    4.1033325    3.8007983 
H    -2.7177338   -0.5971371   -3.9890331 
H     3.8584138   -2.2913881    3.6350295 
H    -4.1755767   -3.4950478   -1.0572798 
H    -1.4552845    6.0940838    0.3490365 
H    -5.7448984    0.5247585   -1.1021232 
H     0.7164516   -5.2726690    3.6277264 
H    -0.4610689   -4.7695393   -2.8907842 
H    -0.7248270   -1.2589631    5.9316267 
H     1.1609430    0.3320672    6.4270224 
H    -2.6657755    6.2037407    2.5402701 
H    -5.1236273   -0.4172784   -3.3321860 
H     2.9055451   -4.4369733    4.4947724 
H    -2.9599692   -4.9003226   -2.7314708 
