87
Energy =
C     2.7029638   -0.4599452   -2.3704670 
C     1.9007481    0.5110491   -3.0296617 
C     1.7113915    1.7969197   -2.4427238 
H     1.2743638    0.2081156   -3.8777245 
Pd    1.0504151    0.2403954   -1.0273528 
P    -0.6723277    1.2171486    0.1991563 
P     0.3738372   -1.3898967    0.5282395 
H     3.5060312   -0.0819820   -1.7181054 
H     2.5331945    2.1814466   -1.8180047 
C     3.1726097   -4.5987889   -3.4511045 
C     4.0949696   -3.9690701   -2.6008899 
C     3.9319826   -2.6194061   -2.2649883 
C     2.8429733   -1.8714412   -2.7697688 
C     1.9152680   -2.5235312   -3.6156814 
C     2.0825987   -3.8695644   -3.9552496 
H     3.3006165   -5.6526521   -3.7189041 
H     4.9474186   -4.5292876   -2.2030922 
H     4.6568246   -2.1318919   -1.6031526 
H     1.0447696   -1.9803112   -3.9979938 
H     1.3532488   -4.3573548   -4.6099652 
C    -1.0089127    4.8530352   -3.7747203 
C     0.0522535    5.1641468   -2.9120591 
C     0.9250738    4.1571358   -2.4823241 
C     0.7582516    2.8204182   -2.9105001 
C    -0.3333151    2.5177421   -3.7578547 
C    -1.2006204    3.5248820   -4.1898023 
H    -1.6902621    5.6390633   -4.1159612 
H     0.2061730    6.1957717   -2.5789104 
H     1.7580375    4.4066315   -1.8147770 
H    -0.5131276    1.4853067   -4.0747631 
H    -2.0390859    3.2717737   -4.8460697 
N    -3.0184242   -1.1367073    2.3853813 
C    -1.2073985   -0.4320911    0.9686806 
C    -1.8074097   -0.5403963    2.3453285 
C    -0.2858592    2.4083601    1.5210415 
C    -2.1026201    1.8890961   -0.7178417 
C     1.3490231   -1.5153351    2.0681952 
C    -0.1501896   -3.0877950    0.1142207 
C    -1.1461949   -0.0933525    3.5071270 
C     1.0411601    2.8584666    1.6682420 
C    -2.8584082    1.0318971   -1.5474969 
C     2.3541184   -0.5598915    2.3198247 
C     0.7958501   -3.9191881   -0.5235988 
C    -1.2856745    2.8671951    2.4075288 
C    -2.3730213    3.2727144   -0.7190141 
C     1.0579136   -2.4996737    3.0351757 
C    -1.4421579   -3.5781456    0.4033103 
C    -1.7789857   -0.2602000    4.7451192 
C     1.3714409    3.7488450    2.6995193 
C    -3.8993104    1.5471107   -2.3284605 
C     3.0450241   -0.5716328    3.5389568 
C     0.4526915   -5.2341409   -0.8600357 
C    -0.9496692    3.7583753    3.4337846 
C    -3.4112768    3.7812105   -1.5105649 
C     1.7598432   -2.5130548    4.2474388 
C    -1.7728641   -4.8973170    0.0598016 
C    -3.6143968   -1.2911011    3.5773572 
C    -3.0408056   -0.8663577    4.7863352 
C     0.3770572    4.1954893    3.5827247 
C    -4.1801737    2.9224131   -2.3083243 
C     2.7463933   -1.5471313    4.5030728 
C    -0.8301934   -5.7242552   -0.5698374 
H    -1.9631088   -0.8156831    0.2592072 
H    -0.1584387    0.3702500    3.4447192 
H     1.8083285    2.5131350    0.9659156 
H    -2.6373004   -0.0406439   -1.5907761 
H     2.5904005    0.1903308    1.5562779 
H     1.7953909   -3.5404490   -0.7620520 
H    -2.3203400    2.5271252    2.2941988 
H    -1.7729684    3.9542455   -0.1089701 
H     0.2833300   -3.2487978    2.8394078 
H    -2.1874432   -2.9483383    0.9034000 
H    -1.2879604    0.0771664    5.6636665 
H     2.4030520    4.0981857    2.8099649 
H    -4.4901812    0.8730425   -2.9569676 
H     3.8231293    0.1738470    3.7327472 
H     1.1900549   -5.8703373   -1.3595650 
H    -1.7250226    4.1117405    4.1211796 
H    -3.6144905    4.8567461   -1.5049951 
H     1.5341078   -3.2789255    4.9965442 
H    -2.7733433   -5.2787481    0.2888704 
H    -4.5966553   -1.7808536    3.5661496 
H    -3.5700261   -1.0157278    5.7325565 
H     0.6342716    4.8926242    4.3869504 
H    -4.9933489    3.3241988   -2.9214145 
H     3.2916748   -1.5614017    5.4525136 
H    -1.0969571   -6.7519968   -0.8373444 
