87
Energy =
C     0.7418305   -0.9934981   -3.0503048 
C     2.0348786   -0.5617978   -2.6278816 
C     2.6976318   -1.2533897   -1.5770049 
H     2.4233581    0.4089384   -2.9589887 
Pd    0.7128819   -0.5280953   -0.9006019 
P     0.7401501    0.0223396    1.3944491 
P    -1.4854017    0.0212777   -0.2671772 
H     0.5118665   -2.0655824   -2.9544716 
H     2.4666552   -2.3232588   -1.4581200 
C    -2.0103129    1.2087500   -5.5279395 
C    -2.3412494   -0.0643132   -5.0368152 
C    -1.4215503   -0.7799204   -4.2629172 
C    -0.1563472   -0.2337154   -3.9440548 
C     0.1666002    1.0460999   -4.4526434 
C    -0.7488592    1.7548974   -5.2399432 
H    -2.7266305    1.7681507   -6.1381549 
H    -3.3192904   -0.5028857   -5.2600112 
H    -1.6905286   -1.7697548   -3.8795779 
H     1.1390804    1.4981411   -4.2334394 
H    -0.4762259    2.7409755   -5.6304692 
C     6.2537020   -0.0143475    0.5052860 
C     5.8904131   -1.3677448    0.4502511 
C     4.7341344   -1.7575116   -0.2383934 
C     3.9254391   -0.8032276   -0.8951589 
C     4.3039153    0.5589113   -0.8311541 
C     5.4537903    0.9475731   -0.1379393 
H     7.1530554    0.2939245    1.0481410 
H     6.5057144   -2.1233273    0.9494778 
H     4.4485739   -2.8147222   -0.2684791 
H     3.6751285    1.3236889   -1.2997510 
H     5.7267914    2.0068019   -0.0902795 
N    -0.4120173   -2.6591787    1.1729148 
C    -1.1047059   -0.3742711    1.5652607 
C    -1.3268919   -1.8562913    1.7543689 
C     1.6645303   -0.6924304    2.7939793 
C     0.7935351    1.8375066    1.6639085 
C    -2.9419948   -0.9678351   -0.7545208 
C    -1.9859673    1.7712265   -0.3829177 
C    -2.4432610   -2.3609285    2.4436364 
C     1.0558854   -1.2830622    3.9191481 
C     0.5476777    2.3875890    2.9388990 
C    -2.7348434   -2.2910175   -1.1968612 
C    -2.3817644    2.5519940    0.7202068 
C     3.0714787   -0.6170807    2.7138978 
C     1.0302228    2.6905051    0.5681489 
C    -4.2491702   -0.4452383   -0.6854653 
C    -1.9182819    2.3527342   -1.6676131 
C    -2.6025467   -3.7497623    2.5322478 
C     1.8519658   -1.7924301    4.9548096 
C     0.5163080    3.7780078    3.1047095 
C    -3.8292221   -3.0916708   -1.5464261 
C    -2.6951335    3.9060155    0.5400002 
C     3.8583289   -1.1281988    3.7531712 
C     0.9953657    4.0810025    0.7383770 
C    -5.3389019   -1.2501235   -1.0456001 
C    -2.2427373    3.7035546   -1.8404153 
C    -0.5681724   -3.9884302    1.2668981 
C    -1.6468123   -4.5841993    1.9361012 
C     3.2509047   -1.7176410    4.8727564 
C     0.7347138    4.6243882    2.0046732 
C    -5.1311440   -2.5714555   -1.4715692 
C    -2.6250015    4.4829780   -0.7370061 
H    -1.6637579    0.2275446    2.2997270 
H    -3.1729687   -1.6790810    2.8911805 
H    -0.0341229   -1.3513381    3.9926577 
H     0.3872073    1.7290468    3.8004343 
H    -1.7149674   -2.6852165   -1.2613236 
H    -2.4274605    2.1216296    1.7247859 
H     3.5509079   -0.1577700    1.8428647 
H     1.2168132    2.2553616   -0.4211473 
H    -4.4122858    0.5876943   -0.3596338 
H    -1.6049269    1.7516698   -2.5276557 
H    -3.4622715   -4.1744422    3.0605894 
H     1.3761885   -2.2499837    5.8284191 
H     0.3258019    4.2038781    4.0953758 
H    -3.6659832   -4.1199615   -1.8852429 
H    -2.9885225    4.5122842    1.4028053 
H     4.9491076   -1.0674607    3.6815477 
H     1.1665712    4.7391936   -0.1192563 
H    -6.3539513   -0.8427532   -0.9951846 
H    -2.1887688    4.1472343   -2.8399294 
H     0.2051435   -4.6015091    0.7871084 
H    -1.7319547   -5.6737295    1.9889550 
H     3.8678867   -2.1198404    5.6829257 
H     0.7078077    5.7108402    2.1387545 
H    -5.9860256   -3.1952144   -1.7526552 
H    -2.8670096    5.5422892   -0.8717541 
