87
Energy =
C    -0.3844050    0.0149114   -3.3461610 
C     0.9959256   -0.2964103   -3.2070945 
C     1.3839278   -1.5142526   -2.5717987 
H     1.7426817    0.4841150   -3.3975270 
Pd    0.1247141   -0.3283601   -1.2136233 
P     0.6096530   -0.9427400    1.0049775 
P    -1.1987158    1.0101224    0.2100621 
H    -1.0833664   -0.8321154   -3.4260315 
H     0.7018017   -2.3726572   -2.6677153 
C    -2.0831127    3.7752417   -4.5671449 
C    -2.7963181    2.5792327   -4.7332730 
C    -2.2273801    1.3611185   -4.3387528 
C    -0.9300629    1.3141500   -3.7814288 
C    -0.2221718    2.5287182   -3.6190289 
C    -0.7932698    3.7441413   -4.0067345 
H    -2.5277233    4.7291848   -4.8685539 
H    -3.8015879    2.5937702   -5.1668900 
H    -2.7934199    0.4310503   -4.4601528 
H     0.7696923    2.5253368   -3.1542950 
H    -0.2354363    4.6755658   -3.8651248 
C     5.3256399   -2.5194266   -1.1516783 
C     4.2584216   -3.4221037   -1.0181029 
C     2.9931135   -3.0929927   -1.5159709 
C     2.7577412   -1.8465582   -2.1420309 
C     3.8438478   -0.9501881   -2.2758142 
C     5.1134350   -1.2870356   -1.7911807 
H     6.3179111   -2.7773921   -0.7679270 
H     4.4133188   -4.3880403   -0.5265399 
H     2.1655194   -3.8012575   -1.4029222 
H     3.7015308    0.0213074   -2.7596278 
H     5.9426862   -0.5820489   -1.9118212 
N    -2.4297680   -1.6414888    0.1639315 
C    -1.0706081   -0.2589960    1.6111116 
C    -2.0865687   -1.3633627    1.4384314 
C     0.7256281   -2.6827935    1.5490922 
C     1.9410369   -0.0434538    1.8677514 
C    -2.9168905    1.6013151    0.0612994 
C    -0.2548968    2.4403220    0.8693861 
C    -2.5946458   -2.0870042    2.5312678 
C     0.1562912   -3.6796600    0.7298253 
C     1.7423910    0.7466015    3.0164013 
C    -3.9334305    1.3015094    0.9897910 
C     1.0165425    2.7304562    0.3367684 
C     1.3507266   -3.0397164    2.7608766 
C     3.2272979   -0.1374789    1.2932185 
C    -3.2013766    2.4176918   -1.0540608 
C    -0.7608105    3.2142705    1.9341382 
C    -3.4951931   -3.1303437    2.2813722 
C     0.1931726   -5.0208205    1.1309206 
C     2.8200171    1.4450128    3.5778106 
C    -5.2232767    1.8177529    0.8014917 
C     1.7876651    3.7666065    0.8801247 
C     1.3916012   -4.3854403    3.1511239 
C     4.3000701    0.5559834    1.8659392 
C    -4.4925673    2.9286239   -1.2339036 
C     0.0125561    4.2506708    2.4722761 
C    -3.2974716   -2.6384141   -0.0671886 
C    -3.8591261   -3.4133849    0.9575472 
C     0.8112420   -5.3740817    2.3410055 
C     4.0971065    1.3523284    3.0042873 
C    -5.5045137    2.6286482   -0.3087902 
C     1.2879484    4.5234748    1.9496645 
H    -1.0680895    0.1479126    2.6351805 
H    -2.2828203   -1.8423204    3.5513328 
H    -0.3152750   -3.3959769   -0.2173252 
H     0.7504825    0.8424381    3.4674295 
H    -3.7274817    0.6661024    1.8569874 
H     1.4046394    2.1220253   -0.4891907 
H     1.8091733   -2.2700140    3.3909753 
H     3.3864305   -0.7454986    0.3965151 
H    -2.4155379    2.6556502   -1.7787463 
H    -1.7598013    3.0101158    2.3366889 
H    -3.9074388   -3.7145068    3.1104989 
H    -0.2535475   -5.7921770    0.4950861 
H     2.6576476    2.0682583    4.4628751 
H    -6.0110044    1.5842509    1.5253257 
H     2.7804513    3.9788335    0.4709330 
H     1.8805896   -4.6628528    4.0906885 
H     5.2946673    0.4772516    1.4149444 
H    -4.7048003    3.5592974   -2.1032940 
H    -0.3814827    4.8510685    3.2989602 
H    -3.5542864   -2.8221874   -1.1180699 
H    -4.5646183   -4.2157334    0.7216973 
H     0.8471497   -6.4238100    2.6503933 
H     4.9349259    1.9027046    3.4447416 
H    -6.5143681    3.0264961   -0.4526414 
H     1.8896540    5.3334557    2.3750104 
