87
Energy =
C     2.9257777   -0.4493541   -1.4608441 
C     2.4820389    0.6892262   -2.2010202 
C     2.3496205    1.9441251   -1.5508738 
H     2.0590033    0.5573424   -3.2050890 
Pd    1.1093000    0.3845430   -0.5299295 
P    -0.9315522    1.2470063    0.2915373 
P     0.0407108   -1.3439724    0.6536077 
H     3.6211268   -0.2586674   -0.6288772 
H     3.0094506    2.1284521   -0.6882310 
C     2.8806675   -4.5450017   -2.7926102 
C     3.6141235   -4.1664270   -1.6568870 
C     3.6285758   -2.8290110   -1.2433222 
C     2.9040399   -1.8414670   -1.9502392 
C     2.1571647   -2.2413881   -3.0833689 
C     2.1540121   -3.5755813   -3.5033136 
H     2.8749961   -5.5890706   -3.1219658 
H     4.1833876   -4.9144808   -1.0956665 
H     4.2082607   -2.5407818   -0.3596389 
H     1.5633382   -1.5074627   -3.6380096 
H     1.5722852   -3.8636663   -4.3848602 
C     0.5052326    5.5097828   -3.0961677 
C     1.5119736    5.5891014   -2.1225569 
C     2.1132428    4.4203115   -1.6371767 
C     1.7263661    3.1511111   -2.1243071 
C     0.7133004    3.0870549   -3.1099418 
C     0.1093439    4.2532816   -3.5879191 
H     0.0275216    6.4209121   -3.4703770 
H     1.8287574    6.5636253   -1.7368507 
H     2.8919031    4.4868605   -0.8691879 
H     0.3696295    2.1148417   -3.4785577 
H    -0.6825586    4.1847162   -4.3407989 
N    -1.3914482   -0.3538907    3.9369905 
C    -1.1411481   -0.1496351    1.5517887 
C    -0.6310737    0.1491339    2.9473839 
C    -1.3646707    2.8343144    1.0760487 
C    -2.2572761    0.9130786   -0.9340774 
C     0.9442636   -2.2966565    1.9190894 
C    -0.9488229   -2.5652341   -0.2708416 
C     0.5568266    0.8664769    3.1893936 
C    -2.1523023    2.9250708    2.2432628 
C    -1.9282569    0.3184379   -2.1682534 
C     2.2909836   -1.9826931    2.1838560 
C    -2.3452217   -2.4785889   -0.4368795 
C    -0.9049511    4.0073918    0.4407260 
C    -3.6065670    1.1850365   -0.6259692 
C     0.2937897   -3.3055780    2.6594457 
C    -0.2309966   -3.6109450   -0.8937910 
C     0.9671567    1.0578772    4.5132445 
C    -2.4754726    4.1855746    2.7645769 
C    -2.9380318   -0.0165019   -3.0803866 
C     2.9881931   -2.6758221    3.1826975 
C    -3.0156780   -3.4340583   -1.2131082 
C    -1.2363804    5.2614611    0.9686395 
C    -4.6120161    0.8472012   -1.5410954 
C     0.9951143   -3.9909761    3.6587597 
C    -0.9096893   -4.5586025   -1.6679770 
C    -0.9881298   -0.1640432    5.2040475 
C     0.1814625    0.5304949    5.5468121 
C    -2.0190449    5.3516299    2.1302860 
C    -4.2794473    0.2448337   -2.7662526 
C     2.3397915   -3.6784149    3.9191797 
C    -2.3017166   -4.4720121   -1.8298775 
H    -2.1691053   -0.5348757    1.6451109 
H     1.1439396    1.2696573    2.3549763 
H    -2.5101582    2.0225437    2.7493624 
H    -0.8780618    0.0985183   -2.3970320 
H     2.7851332   -1.1942269    1.6057228 
H    -2.9180487   -1.6683672    0.0230312 
H    -0.2921479    3.9400738   -0.4636889 
H    -3.8702913    1.6640636    0.3234231 
H    -0.7542117   -3.5487319    2.4557294 
H     0.8552487   -3.6855221   -0.7708828 
H     1.8847685    1.6126572    4.7341977 
H    -3.0859832    4.2554907    3.6707278 
H    -2.6767053   -0.4867591   -4.0337181 
H     4.0367321   -2.4345500    3.3853370 
H    -4.1010712   -3.3617906   -1.3354865 
H    -0.8778607    6.1679851    0.4703122 
H    -5.6588028    1.0588858   -1.2998410 
H     0.4912574   -4.7723488    4.2368232 
H    -0.3446066   -5.3644423   -2.1472879 
H    -1.6349792   -0.5874018    5.9833460 
H     0.4634227    0.6574497    6.5965200 
H    -2.2731576    6.3328438    2.5443804 
H    -5.0693084   -0.0156641   -3.4784192 
H     2.8839231   -4.2209030    4.6992833 
H    -2.8302052   -5.2149081   -2.4362031 
