87
Energy =
C     2.6792017   -0.4510327   -2.1865635 
C     1.9384897    0.4383314   -3.0190772 
C     1.7502552    1.7911506   -2.6226105 
H     1.3536924    0.0343105   -3.8547560 
Pd    0.9953820    0.3975905   -1.0409456 
P    -0.7622723    1.3115126    0.2272806 
P     0.3832693   -1.2620642    0.4761972 
H     3.4739247   -0.0036032   -1.5685088 
H     2.5303659    2.2351136   -1.9841431 
C     3.0722460   -4.7086680   -2.6683308 
C     3.9599853   -3.9944860   -1.8503526 
C     3.8155390   -2.6099471   -1.6999705 
C     2.7845720   -1.9106600   -2.3680848 
C     1.8811327   -2.6490004   -3.1679601 
C     2.0297000   -4.0302419   -3.3208789 
H     3.1850384   -5.7907129   -2.7908647 
H     4.7724795   -4.5157209   -1.3335282 
H     4.5165341   -2.0549333   -1.0657616 
H     1.0486252   -2.1426196   -3.6671578 
H     1.3211417   -4.5845919   -3.9440969 
C    -0.7948157    4.7015989   -4.5122266 
C    -1.0102001    3.3334605   -4.7486101 
C    -0.1926460    2.3746872   -4.1424946 
C     0.8692219    2.7640979   -3.2926314 
C     1.0697515    4.1441702   -3.0580244 
C     0.2460693    5.1032182   -3.6605886 
H    -1.4370483    5.4498246   -4.9880799 
H    -1.8281007    3.0127389   -5.4018237 
H    -0.3944526    1.3125404   -4.3166117 
H     1.8839852    4.4636140   -2.3976350 
H     0.4211785    6.1671313   -3.4702493 
N    -3.1266811   -0.9367258    2.3191624 
C    -1.2295541   -0.3822008    0.9495436 
C    -1.8537594   -0.4856178    2.3157240 
C    -0.2961418    2.3679077    1.6431423 
C    -2.2954042    2.0237860   -0.4583036 
C     1.3863084   -1.5443057    1.9694398 
C    -0.0602460   -2.9071649   -0.1840773 
C    -1.1826074   -0.1073153    3.4960975 
C    -1.2785603    3.0052157    2.4291179 
C    -2.1649749    3.1577261   -1.2891163 
C     0.9379271   -2.3953910    3.0041821 
C    -1.1185281   -3.0168931   -1.1127991 
C     1.0642400    2.4786444    1.9943910 
C    -3.5725992    1.4838747   -0.1932508 
C     2.6236952   -0.8818581    2.0942855 
C     0.7236969   -4.0406665    0.1121645 
C    -1.8581165   -0.2214745    4.7174504 
C    -0.8973136    3.7324418    3.5641666 
C    -3.3061174    3.7509513   -1.8420294 
C     1.7202146   -2.5656565    4.1529021 
C    -1.4159749   -4.2532244   -1.6974275 
C     1.4384640    3.1986526    3.1369445 
C    -4.7074386    2.0875179   -0.7549239 
C     3.4011212   -1.0549185    3.2479630 
C     0.4244087   -5.2727722   -0.4842802 
C    -3.7634448   -1.0408249    3.4953706 
C    -3.1735956   -0.7018732    4.7234556 
C     0.4573246    3.8236114    3.9225210 
C    -4.5769007    3.2170262   -1.5770571 
C     2.9474696   -1.8934306    4.2772698 
C    -0.6474267   -5.3845388   -1.3808380 
H    -1.9641721   -0.7893569    0.2309183 
H    -0.1577464    0.2705888    3.4597531 
H    -2.3358165    2.9288757    2.1537972 
H    -1.1756840    3.5732415   -1.5089880 
H    -0.0185007   -2.9199951    2.9100207 
H    -1.7139475   -2.1384183   -1.3868449 
H     1.8252694    1.9987423    1.3682322 
H    -3.6930774    0.6084257    0.4557646 
H     2.9751310   -0.2388031    1.2793752 
H     1.5691198   -3.9637915    0.8020680 
H    -1.3609559    0.0653263    5.6497935 
H    -1.6607442    4.2278660    4.1727372 
H    -3.1959581    4.6261915   -2.4898905 
H     1.3706773   -3.2239761    4.9548020 
H    -2.2478158   -4.3321626   -2.4047282 
H     2.4959345    3.2805432    3.4084678 
H    -5.6982761    1.6716074   -0.5447901 
H     4.3627197   -0.5400127    3.3408657 
H     1.0378854   -6.1478792   -0.2477892 
H    -4.7962282   -1.4102265    3.4541713 
H    -3.7372469   -0.8066232    5.6556917 
H     0.7499807    4.3924913    4.8111770 
H    -5.4673548    3.6806969   -2.0141865 
H     3.5550692   -2.0300649    5.1778554 
H    -0.8799931   -6.3505984   -1.8403757 
