87
Energy =
C     2.9574464   -0.2921626   -1.3834983 
C     2.5002053    0.8507720   -2.1059263 
C     2.2803361    2.0768929   -1.4235632 
H     2.1243768    0.7344001   -3.1301936 
Pd    1.0688046    0.4375631   -0.5088795 
P    -1.0019746    1.2065785    0.3280591 
P     0.0401320   -1.3544385    0.6185824 
H     3.5883528   -0.1050503   -0.5010320 
H     2.8947148    2.2652769   -0.5290815 
C     3.0889759   -4.3600634   -2.7920137 
C     2.5135760   -3.3655862   -3.6001394 
C     2.4698913   -2.0367956   -3.1634901 
C     3.0158284   -1.6694025   -1.9112807 
C     3.6014111   -2.6801312   -1.1132645 
C     3.6317977   -4.0109044   -1.5448863 
H     3.1180185   -5.3995391   -3.1342207 
H     2.0914738   -3.6283088   -4.5756810 
H     2.0012303   -1.2829760   -3.8041103 
H     4.0244504   -2.4167851   -0.1378609 
H     4.0845120   -4.7777335   -0.9080779 
C     0.3288152    5.5973481   -2.9420494 
C     0.0322758    4.3417959   -3.5022963 
C     0.6718993    3.1913394   -3.0323830 
C     1.6222017    3.2701366   -1.9868624 
C     1.9079890    4.5375224   -1.4308437 
C     1.2713891    5.6910304   -1.9075977 
H    -0.1760691    6.4958726   -3.3110653 
H    -0.7093186    4.2615136   -4.3037032 
H     0.4054206    2.2175686   -3.4572160 
H     2.6359532    4.6149532   -0.6156217 
H     1.5100061    6.6645820   -1.4671258 
N    -0.9244179   -0.6799726    3.9438081 
C    -1.1029233   -0.1808390    1.6014298 
C    -0.4524641    0.0897336    2.9456263 
C    -1.5078083    2.7811906    1.0956931 
C    -2.3337023    0.7855233   -0.8618504 
C     0.9605264   -2.3739462    1.8168599 
C    -0.9844606   -2.5055883   -0.3549922 
C     0.6030578    1.0047195    3.1241088 
C    -1.2057647    3.9632099    0.3860715 
C    -3.6888081    0.9314869   -0.4994236 
C     2.2110720   -1.9143505    2.2758129 
C    -2.3914370   -2.5385845   -0.3073473 
C    -2.1947128    2.8516636    2.3255586 
C    -1.9988945    0.2579814   -2.1243331 
C     0.4145155   -3.5677219    2.3297582 
C    -0.2905078   -3.3661900   -1.2345371 
C     1.1905815    1.1112545    4.3911385 
C    -1.5926944    5.2050333    0.9045746 
C    -4.6941824    0.5309768   -1.3885700 
C     2.9088340   -2.6402349    3.2497051 
C    -3.0966156   -3.4223678   -1.1359555 
C    -2.5766581    4.1003200    2.8360127 
C    -3.0089384   -0.1405797   -3.0099802 
C     1.1214366   -4.2923301    3.2976838 
C    -1.0030637   -4.2464254   -2.0566849 
C    -0.3527034   -0.5711429    5.1526790 
C     0.7095468    0.3039986    5.4293370 
C    -2.2758849    5.2748937    2.1289141 
C    -4.3552465   -0.0080499   -2.6411562 
C     2.3641798   -3.8293241    3.7590725 
C    -2.4063564   -4.2735668   -2.0116889 
H    -2.1095702   -0.5917532    1.7800023 
H     0.9533298    1.6253927    2.2909688 
H    -0.6731918    3.9121868   -0.5690888 
H    -3.9569166    1.3605341    0.4727110 
H     2.6288523   -0.9861667    1.8699381 
H    -2.9474318   -1.8712446    0.3569721 
H    -2.4298395    1.9419364    2.8876280 
H    -0.9429371    0.1400699   -2.3964037 
H    -0.5573261   -3.9250425    1.9742319 
H     0.8036188   -3.3487749   -1.2740949 
H     2.0103366    1.8164371    4.5631427 
H    -1.3552934    6.1180786    0.3490504 
H    -5.7459615    0.6436214   -1.1058391 
H     3.8792291   -2.2812761    3.6076080 
H    -4.1904200   -3.4400524   -1.0971329 
H    -3.1106090    4.1544051    3.7902994 
H    -2.7434447   -0.5603915   -3.9853651 
H     0.6987109   -5.2200624    3.6966196 
H    -0.4563928   -4.9091927   -2.7353610 
H    -0.7645472   -1.2155515    5.9401219 
H     1.1398990    0.3532510    6.4342509 
H    -2.5741607    6.2471069    2.5346560 
H    -5.1451228   -0.3197486   -3.3324366 
H     2.9118333   -4.3999280    4.5163565 
H    -2.9622715   -4.9598751   -2.6588382 
