87
Energy =
C     2.9336715   -0.2893393   -1.4359585 
C     2.4596985    0.8481279   -2.1560628 
C     2.2460172    2.0767412   -1.4762299 
H     2.0667216    0.7249327   -3.1730310 
Pd    1.0569482    0.4370672   -0.5333283 
P    -0.9998733    1.2041781    0.3397953 
P     0.0555190   -1.3508389    0.6255361 
H     3.5772921   -0.0959331   -0.5641072 
H     2.8745729    2.2726968   -0.5933145 
C     3.0546969   -4.3636966   -2.8266996 
C     2.4749289   -3.3726936   -3.6359558 
C     2.4349246   -2.0417192   -3.2054102 
C     2.9891130   -1.6687688   -1.9584970 
C     3.5800624   -2.6759401   -1.1599070 
C     3.6063356   -4.0088101   -1.5850756 
H     3.0806507   -5.4048441   -3.1640106 
H     2.0468975   -3.6396961   -4.6077564 
H     1.9630470   -1.2906990   -3.8469130 
H     4.0099188   -2.4082244   -0.1886843 
H     4.0625572   -4.7728714   -0.9474498 
C     0.2525794    5.5812218   -2.9771070 
C     1.2100291    5.6834875   -1.9572476 
C     1.8598813    4.5350349   -1.4862603 
C     1.5728002    3.2642444   -2.0337627 
C     0.6074961    3.1767736   -3.0647532 
C    -0.0454234    4.3221803   -3.5287259 
H    -0.2626987    6.4757434   -3.3414448 
H     1.4498064    6.6597712   -1.5235146 
H     2.5994126    4.6190890   -0.6821917 
H     0.3399883    2.2002118   -3.4825222 
H    -0.7984154    4.2352064   -4.3187292 
N    -0.8210409   -0.6581791    3.9661002 
C    -1.0657592   -0.1718274    1.6272457 
C    -0.3817674    0.1104696    2.9522677 
C    -1.4963991    2.7836286    1.1033772 
C    -2.3553588    0.7639419   -0.8157776 
C     0.9996377   -2.3652465    1.8095788 
C    -0.9914501   -2.5040070   -0.3215860 
C     0.6714883    1.0337333    3.0984115 
C    -2.1496852    2.8634199    2.3508525 
C    -3.7025662    0.9019522   -0.4223789 
C     2.2531170   -1.8970316    2.2516874 
C    -2.3951258   -2.5544494   -0.2215601 
C    -1.2215101    3.9596697    0.3730169 
C    -2.0460713    0.2286721   -2.0815041 
C     0.4689851   -3.5628114    2.3294538 
C    -0.3208533   -3.3481477   -1.2343958 
C     1.2926441    1.1494486    4.3485597 
C    -2.5251435    4.1152910    2.8582737 
C    -4.7253815    0.4856469   -1.2839352 
C     2.9681845   -2.6173765    3.2170479 
C    -3.1204828   -3.4385811   -1.0320986 
C    -1.6019417    5.2046937    0.8885250 
C    -3.0734692   -0.1861849   -2.9392410 
C     1.1934533   -4.2821673    3.2883495 
C    -1.0532909   -4.2295091   -2.0376883 
C    -0.2173135   -0.5405676    5.1584102 
C     0.8461260    0.3428324    5.4025057 
C    -2.2514346    5.2838374    2.1305256 
C    -4.4116975   -0.0617227   -2.5394536 
C     2.4383870   -3.8099428    3.7340548 
C    -2.4535260   -4.2735234   -1.9409424 
H    -2.0666355   -0.5833873    1.8343529 
H     0.9944463    1.6537862    2.2538778 
H    -2.3637214    1.9584767    2.9288373 
H    -3.9510084    1.3366489    0.5524820 
H     2.6595450   -0.9664350    1.8398648 
H    -2.9333452   -1.9000774    0.4697648 
H    -0.7150407    3.9013932   -0.5958515 
H    -0.9959750    0.1173383   -2.3777950 
H    -0.5048227   -3.9271615    1.9866100 
H     0.7706796   -3.3167790   -1.3146818 
H     2.1117902    1.8610305    4.4953298 
H    -3.0327215    4.1766355    3.8264086 
H    -5.7710683    0.5923564   -0.9773108 
H     3.9405042   -2.2514015    3.5623925 
H    -4.2118211   -3.4694861   -0.9531727 
H    -1.3858676    6.1130357    0.3168241 
H    -2.8276926   -0.6126103   -3.9169048 
H     0.7825935   -5.2129180    3.6926029 
H    -0.5248405   -4.8797565   -2.7424343 
H    -0.6031278   -1.1844424    5.9593525 
H     1.3036687    0.3988974    6.3949692 
H    -2.5445048    6.2586245    2.5338726 
H    -5.2150810   -0.3862680   -3.2088987 
H     2.9994227   -4.3759642    4.4849521 
H    -3.0252868   -4.9601312   -2.5738074 
