87
Energy =
C     1.4202380   -0.6913140   -2.8802685 
C     1.6344754    0.7139029   -2.8123630 
C     2.5642295    1.2582474   -1.8845635 
H     0.9375035    1.3884683   -3.3248326 
Pd    1.0393978    0.0178188   -0.8192140 
P     0.6254336    0.7456150    1.3992146 
P    -0.5500031   -1.4192951    0.1267696 
H     2.2528157   -1.3419871   -2.5683858 
H     3.4258071    0.6305819   -1.6093321 
C    -1.6308462   -2.7091679   -5.1543884 
C    -1.4401067   -1.3288819   -5.3233363 
C    -0.4526131   -0.6563934   -4.5940161 
C     0.3753132   -1.3553156   -3.6860965 
C     0.1794041   -2.7478131   -3.5389837 
C    -0.8156396   -3.4170319   -4.2578393 
H    -2.4075988   -3.2312217   -5.7220321 
H    -2.0623355   -0.7722446   -6.0318967 
H    -0.3151691    0.4183689   -4.7511104 
H     0.8109055   -3.3072900   -2.8398500 
H    -0.9563962   -4.4936272   -4.1190418 
C     3.0904784    5.4393413   -1.0086894 
C     4.1262427    4.5223003   -0.7736031 
C     3.9429430    3.1645602   -1.0660834 
C     2.7212144    2.6968648   -1.6015279 
C     1.6823509    3.6319951   -1.8215982 
C     1.8672468    4.9870505   -1.5316537 
H     3.2324929    6.5010493   -0.7824698 
H     5.0824804    4.8656954   -0.3656804 
H     4.7567113    2.4536757   -0.8835078 
H     0.7130922    3.2926469   -2.2035242 
H     1.0504797    5.6954247   -1.7039499 
N    -3.4315506    0.2985966    1.2498634 
C    -1.0686511   -0.0904628    1.3908927 
C    -2.2235904    0.7118736    0.8236279 
C    -2.0196802   -2.0085787   -0.7704464 
C     0.1186314   -2.8271313    1.0796059 
C     0.4193494    2.4444887    2.0345486 
C     1.5290063   -0.1856703    2.6937072 
C    -2.0622576    1.7527181   -0.1120387 
C    -2.6570821   -3.2238529   -0.4503554 
C    -0.3382556   -3.1585140    2.3705646 
C    -0.6826555    2.8196441    2.8330344 
C     1.1294284   -0.1129894    4.0440338 
C    -2.5086413   -1.2088901   -1.8240252 
C     1.1559122   -3.5809363    0.4918108 
C     1.4182462    3.3897190    1.7245087 
C     2.5882080   -1.0347097    2.3207700 
C    -3.2070423    2.3734181   -0.6276119 
C    -3.7902762   -3.6210667   -1.1722441 
C     0.2457012   -4.2263699    3.0654623 
C    -0.7730901    4.1292272    3.3225660 
C     1.7743690   -0.9015419    5.0045893 
C    -3.6472266   -1.6080841   -2.5315523 
C     1.7261363   -4.6555782    1.1849277 
C     1.3190495    4.6966281    2.2195661 
C     3.2274029   -1.8252075    3.2856505 
C    -4.5212552    0.8985786    0.7472198 
C    -4.4659303    1.9361625   -0.1967951 
C    -4.2880513   -2.8136574   -2.2068253 
C     1.2756072   -4.9745267    2.4752920 
C     0.2258855    5.0671760    3.0167766 
C     2.8185998   -1.7613611    4.6253515 
H    -1.3803293   -0.5108258    2.3603748 
H    -1.0619875    2.0740761   -0.4251890 
H    -2.2707638   -3.8550213    0.3564571 
H    -1.1424214   -2.5846140    2.8417010 
H    -1.4732441    2.0994668    3.0684254 
H     0.3193042    0.5602439    4.3459197 
H    -1.9903981   -0.2826913   -2.0915069 
H     1.5259177   -3.3103662   -0.5033624 
H     2.2681051    3.1091594    1.0941337 
H     2.8963626   -1.0870667    1.2699595 
H    -3.1150312    3.1888475   -1.3526992 
H    -4.2879509   -4.5639586   -0.9233416 
H    -0.1049018   -4.4726692    4.0727468 
H    -1.6282789    4.4179757    3.9422303 
H     1.4634461   -0.8440675    6.0528470 
H    -4.0225919   -0.9857645   -3.3495972 
H     2.5302185   -5.2374591    0.7228620 
H     2.0968250    5.4255161    1.9713708 
H     4.0421943   -2.4929944    2.9889544 
H    -5.4873776    0.5332016    1.1187742 
H    -5.3863905    2.3922626   -0.5739925 
H    -5.1738978   -3.1300953   -2.7673178 
H     1.7301004   -5.8060131    3.0236796 
H     0.1484247    6.0904450    3.3986037 
H     3.3178212   -2.3787136    5.3793453 
