87
Energy =
C     2.6825442    1.1509141   -1.6402568 
C     2.5546958   -0.2100081   -2.0475690 
C     1.5035170   -0.6088383   -2.9160483 
H     3.1350518   -0.9735376   -1.5143088 
Pd    0.6793059    0.3679773   -1.1000932 
P    -1.3964658   -0.5617477   -0.5149138 
P    -0.0368689    1.4087023    0.8767383 
H     2.3703722    1.9249128   -2.3579920 
H     1.0881169    0.1557411   -3.5912523 
C     5.4521073    2.4509921    1.3863186 
C     4.8158970    1.2046813    1.5093661 
C     3.9015294    0.7831144    0.5403376 
C     3.6116117    1.5954302   -0.5813023 
C     4.2342012    2.8597289   -0.6772587 
C     5.1516275    3.2800720    0.2950652 
H     6.1669693    2.7809059    2.1470954 
H     5.0183691    0.5694660    2.3777606 
H     3.3642798   -0.1618896    0.6697095 
H     4.0113709    3.5073871   -1.5328975 
H     5.6368418    4.2568896    0.1973137 
C     0.4371081   -4.6527716   -3.9482482 
C    -0.3799523   -3.5749828   -4.3232998 
C    -0.0100089   -2.2674202   -3.9934318 
C     1.1766823   -2.0048941   -3.2709149 
C     1.9920501   -3.1000173   -2.9042743 
C     1.6262441   -4.4081906   -3.2435721 
H     0.1526507   -5.6769388   -4.2099130 
H    -1.3075511   -3.7552379   -4.8760608 
H    -0.6534241   -1.4299859   -4.2870426 
H     2.9307159   -2.9316245   -2.3665649 
H     2.2782036   -5.2421210   -2.9626469 
N     1.0094912   -1.3164080    1.5597168 
C    -1.0831343   -0.1029752    1.3225239 
C    -0.2821661   -1.2248395    1.9385747 
C     1.0037370    1.9466729    2.2724839 
C    -1.2962010    2.7288535    0.6983070 
C    -1.7763736   -2.3449734   -0.5805029 
C    -2.9070371    0.3228097   -1.0394935 
C    -0.8786336   -2.1550271    2.8088264 
C     1.8145099    3.0750922    2.0240435 
C    -2.0297848    3.1758382    1.8171174 
C    -3.0986445   -2.8340196   -0.6004041 
C    -3.9368924    0.6961565   -0.1537594 
C     1.0467027    1.3157702    3.5309522 
C    -1.5688118    3.2604212   -0.5764078 
C    -0.6897996   -3.2431973   -0.6117756 
C    -3.0054037    0.6628653   -2.4051992 
C    -0.1008939   -3.2122679    3.2975082 
C     2.6542979    3.5686754    3.0279539 
C    -3.0415649    4.1295253    1.6516938 
C    -3.3247099   -4.2167985   -0.6321396 
C    -5.0452398    1.4097770   -0.6292141 
C     1.8935444    1.8157056    4.5305249 
C    -2.5841984    4.2132908   -0.7371191 
C    -0.9253816   -4.6224651   -0.6386412 
C    -4.1222412    1.3628719   -2.8780151 
C     1.7483678   -2.3296773    2.0362215 
C     1.2416403   -3.3054811    2.9061996 
C     2.6980938    2.9375573    4.2807434 
C    -3.3223649    4.6438893    0.3746878 
C    -2.2412441   -5.1098609   -0.6478694 
C    -5.1396577    1.7425734   -1.9889370 
H    -1.9941456    0.1168469    1.9021465 
H    -1.9324659   -2.0560812    3.0864444 
H     1.7934972    3.5622305    1.0430606 
H    -1.8045698    2.7829250    2.8154735 
H    -3.9450934   -2.1390796   -0.5979084 
H    -3.8751664    0.4492017    0.9106730 
H     0.4235670    0.4413590    3.7392941 
H    -0.9934650    2.9111576   -1.4416604 
H     0.3337640   -2.8568585   -0.6265165 
H    -2.1963300    0.3887716   -3.0918546 
H    -0.5386983   -3.9536407    3.9737000 
H     3.2846301    4.4397581    2.8255308 
H    -3.6104347    4.4766999    2.5205351 
H    -4.3510576   -4.5980024   -0.6483529 
H    -5.8349340    1.7101647    0.0666679 
H     1.9214551    1.3262706    5.5096312 
H    -2.7999743    4.6161614   -1.7316070 
H    -0.0785521   -5.3147714   -0.6706621 
H    -4.1933270    1.6223493   -3.9392638 
H     2.7955877   -2.3618247    1.7080375 
H     1.8847307   -4.1135121    3.2675732 
H     3.3598347    3.3209729    5.0642585 
H    -4.1156418    5.3881965    0.2492122 
H    -2.4249945   -6.1889765   -0.6773284 
H    -6.0060146    2.3026176   -2.3555280 
