87
Energy =
C     2.0873243    1.8039502   -2.2036604 
C     2.0371303    0.5136592   -2.8130080 
C     0.8476507    0.0896977   -3.4669758 
H     2.8234703   -0.2216408   -2.5998061 
Pd    0.4196210    0.6305688   -1.3505602 
P    -1.2670956   -0.7641954   -0.5205860 
P     0.0122076    1.3512868    0.8405156 
H     1.4630822    2.5896789   -2.6571222 
H     0.2194771    0.8756891   -3.9153074 
C     5.1305166    3.3288581    0.4344721 
C     4.1270741    4.1706832   -0.0714393 
C     3.1547793    3.6612429   -0.9397845 
C     3.1558032    2.2970746   -1.3143224 
C     4.1645167    1.4587614   -0.7849068 
C     5.1443149    1.9722946    0.0713762 
H     5.8975802    3.7273872    1.1063763 
H     4.1063448    5.2298153    0.2052833 
H     2.3772796    4.3252491   -1.3330021 
H     4.1843761    0.3937355   -1.0376145 
H     5.9194298    1.3072224    0.4657277 
C    -0.1369562   -3.8783675   -4.8126069 
C    -0.7189733   -2.7529878   -5.4146577 
C    -0.3817927   -1.4662290   -4.9744170 
C     0.5576813   -1.2788477   -3.9354871 
C     1.1412133   -2.4231158   -3.3416561 
C     0.7939016   -3.7067735   -3.7722671 
H    -0.4055559   -4.8849674   -5.1490755 
H    -1.4431638   -2.8761892   -6.2266937 
H    -0.8507987   -0.5918312   -5.4388395 
H     1.8470876   -2.3087794   -2.5126203 
H     1.2448376   -4.5800299   -3.2896213 
N    -1.8062847    0.7547072    3.3004406 
C    -1.6200712    0.3996698    0.9254191 
C    -2.1891808   -0.0142633    2.2644820 
C     1.2016583    0.7496329    2.0805475 
C    -0.2844061    3.1166634    1.1844283 
C    -0.5852840   -2.3501472    0.0932803 
C    -2.8282705   -1.1836708   -1.3611769 
C    -3.0673782   -1.1022050    2.4121393 
C     1.0547118   -0.4673230    2.7768435 
C    -0.3550232    3.6141979    2.5022217 
C    -1.4043332   -3.4669808    0.3617492 
C    -4.0609063   -0.5693555   -1.0603729 
C     2.3790963    1.5121441    2.2453508 
C    -0.4342277    3.9907334    0.0888450 
C     0.8109017   -2.4558351    0.2698129 
C    -2.7478784   -2.1091302   -2.4270401 
C    -3.5559535   -1.3987003    3.6919584 
C     2.0700073   -0.9071636    3.6357865 
C    -0.5727881    4.9813069    2.7117497 
C    -0.8328814   -4.6611826    0.8206008 
C    -5.2023017   -0.8876372   -1.8105257 
C     3.3860435    1.0658031    3.1102531 
C    -0.6619821    5.3564418    0.3078524 
C     1.3761103   -3.6490852    0.7362600 
C    -3.8925463   -2.4190440   -3.1702906 
C    -2.2823624    0.4672850    4.5211149 
C    -3.1561556   -0.6015055    4.7720030 
C     3.2345982   -0.1426175    3.8069006 
C    -0.7274621    5.8509570    1.6190499 
C     0.5547448   -4.7526638    1.0128283 
C    -5.1202277   -1.8099988   -2.8644733 
H    -2.2945921    1.1465414    0.4539044 
H    -3.3683379   -1.6975241    1.5460379 
H     0.1543255   -1.0747673    2.6579397 
H    -0.2523848    2.9244229    3.3445839 
H    -2.4846322   -3.4122955    0.1925559 
H    -4.1443064    0.1490323   -0.2380172 
H     2.5115915    2.4521365    1.6980164 
H    -0.3636414    3.5967249   -0.9319859 
H     1.4512138   -1.5946600    0.0433128 
H    -1.7932753   -2.5875431   -2.6725574 
H    -4.2399785   -2.2406219    3.8404334 
H     1.9453723   -1.8507637    4.1769958 
H    -0.6264820    5.3713385    3.7334824 
H    -1.4740375   -5.5247660    1.0250168 
H    -6.1586716   -0.4136142   -1.5673103 
H     4.2935702    1.6658111    3.2306793 
H    -0.7797665    6.0344254   -0.5437032 
H     2.4595116   -3.7173443    0.8777607 
H    -3.8200023   -3.1361346   -3.9943070 
H    -1.9444381    1.1182903    5.3376273 
H    -3.5116368   -0.7999404    5.7876299 
H     4.0231754   -0.4889994    4.4829746 
H    -0.8977254    6.9188308    1.7915513 
H     0.9965864   -5.6887320    1.3697715 
H    -6.0137693   -2.0537806   -3.4481447 
