87
Energy =
C     1.4013403   -0.6351711   -3.0590494 
C     1.7181034    0.7297898   -2.8096389 
C     2.6148901    1.0785414   -1.7656142 
H     1.1239780    1.5126899   -3.2970682 
Pd    0.9190223   -0.1130369   -0.9401731 
P     0.5720546    0.5287432    1.3041058 
P    -0.7017458   -1.5802597   -0.0415289 
H     2.1768292   -1.3803174   -2.8247041 
H     3.3456885    0.3143256   -1.4566138 
C    -1.6187329   -2.0426153   -5.7829445 
C    -1.7416767   -0.7668323   -5.2065038 
C    -0.7664656   -0.2961156   -4.3221235 
C     0.3589492   -1.0900898   -3.9977992 
C     0.4656535   -2.3744723   -4.5784815 
C    -0.5128943   -2.8454697   -5.4635887 
H    -2.3842018   -2.4093182   -6.4744767 
H    -2.6092257   -0.1415886   -5.4409854 
H    -0.8931359    0.6871736   -3.8556087 
H     1.3274002   -3.0054765   -4.3336062 
H    -0.4098299   -3.8408832   -5.9076275 
C     3.5199565    5.0320500   -0.3283639 
C     4.0670685    3.8968923    0.2900913 
C     3.7817821    2.6213426   -0.2079419 
C     2.9295628    2.4495913   -1.3229584 
C     2.4015803    3.6025988   -1.9477758 
C     2.6965825    4.8789463   -1.4551672 
H     3.7442657    6.0315415    0.0573897 
H     4.7238351    4.0084313    1.1591657 
H     4.2136385    1.7368649    0.2739738 
H     1.7606139    3.5078962   -2.8303976 
H     2.2846816    5.7610787   -1.9563548 
N    -2.9792657    0.7350510    2.3153596 
C    -1.0739746   -0.4259369    1.4116962 
C    -2.2417250    0.5188336    1.2110353 
C    -2.2928100   -2.1591468   -0.7242429 
C     0.0769029   -3.0390794    0.7494214 
C     0.2222691    2.2711051    1.7138999 
C     1.6663381   -0.0637464    2.6438648 
C    -2.5132268    1.1453965   -0.0212683 
C    -2.3112317   -2.6155820   -2.0578640 
C    -0.6721333   -3.8997268    1.5795579 
C    -0.0201518    2.6700400    3.0453946 
C     1.4696205   -1.2823627    3.3233111 
C    -3.4750517   -2.1901977    0.0475051 
C     1.4588203   -3.2550042    0.5829684 
C     0.1451705    3.2102853    0.6691086 
C     2.7906281    0.7345135    2.9582346 
C    -3.5900887    2.0349785   -0.0981519 
C    -3.5018941   -3.1034200   -2.6122547 
C    -0.0334070   -4.9499580    2.2507139 
C    -0.3339369    4.0065769    3.3188591 
C     2.3869317   -1.6965959    4.2997040 
C    -4.6602625   -2.6801884   -0.5163257 
C     2.0928606   -4.3088798    1.2560639 
C    -0.1601152    4.5480606    0.9517603 
C     3.7007866    0.3131189    3.9346021 
C    -4.0104707    1.5914715    2.2298921 
C    -4.3570671    2.2684436    1.0511723 
C    -4.6754711   -3.1350864   -1.8445290 
C     1.3486242   -5.1522366    2.0931517 
C    -0.4003388    4.9450696    2.2750545 
C     3.5031903   -0.9051433    4.6047949 
H    -1.2133083   -0.9364959    2.3783484 
H    -1.8932793    0.9338980   -0.9012859 
H    -1.4004808   -2.5885500   -2.6633010 
H    -1.7507877   -3.7509928    1.7001560 
H     0.0341823    1.9394962    3.8590598 
H     0.6093373   -1.9189433    3.1005724 
H    -3.4799934   -1.8273991    1.0804833 
H     2.0368965   -2.5834133   -0.0634364 
H     0.3349180    2.8907218   -0.3600224 
H     2.9390589    1.6938829    2.4509301 
H    -3.8281098    2.5367630   -1.0416915 
H    -3.5074600   -3.4517981   -3.6498600 
H    -0.6157217   -5.6161513    2.8955786 
H    -0.5267658    4.3182639    4.3505368 
H     2.2216236   -2.6437004    4.8231067 
H    -5.5755085   -2.7028903    0.0841151 
H     3.1683469   -4.4680459    1.1287379 
H    -0.2021184    5.2789093    0.1381422 
H     4.5639967    0.9412941    4.1777880 
H    -4.5892354    1.7411892    3.1505348 
H    -5.2087881    2.9553853    1.0362891 
H    -5.6059708   -3.5121598   -2.2814155 
H     1.8428694   -5.9750382    2.6200171 
H    -0.6385272    5.9904734    2.4975813 
H     4.2157371   -1.2322030    5.3689155 
