87
Energy =
C     1.4013173   -0.6992433   -3.0469110 
C     1.7389930    0.6638412   -2.8152590 
C     2.6368649    1.0127736   -1.7722042 
H     1.1593974    1.4492212   -3.3159989 
Pd    0.9195800   -0.1396599   -0.9371583 
P     0.5757324    0.5404218    1.2960633 
P    -0.7230501   -1.5717972   -0.0215338 
H     2.1638101   -1.4533949   -2.7991497 
H     3.3540512    0.2413935   -1.4494349 
C    -1.6305584   -2.0965103   -5.7629086 
C    -0.5395839   -2.9127928   -5.4268832 
C     0.4430341   -2.4450011   -4.5446141 
C     0.3553450   -1.1505593   -3.9833986 
C    -0.7554191   -0.3429720   -4.3241844 
C    -1.7346121   -0.8104642   -5.2058736 
H    -2.3991823   -2.4606763   -6.4522804 
H    -0.4513772   -3.9163298   -5.8555710 
H     1.2930462   -3.0865802   -4.2865634 
H    -0.8677885    0.6489790   -3.8726151 
H    -2.5906085   -0.1744170   -5.4534127 
C     3.5994384    4.9706933   -0.3853955 
C     4.1256501    3.8355156    0.2509209 
C     3.8218980    2.5579471   -0.2307789 
C     2.9718446    2.3846337   -1.3472027 
C     2.4652359    3.5372449   -1.9901823 
C     2.7784845    4.8153460   -1.5136567 
H     3.8381259    5.9716733   -0.0123293 
H     4.7805200    3.9484578    1.1212517 
H     4.2369972    1.6733845    0.2654943 
H     1.8266847    3.4406938   -2.8743634 
H     2.3829505    5.6970002   -2.0286717 
N    -2.9767700    0.7919914    2.3074172 
C    -1.0808456   -0.3944154    1.4171591 
C    -2.2392207    0.5594189    1.2064180 
C    -2.3212868   -2.1369349   -0.6990390 
C     0.0353421   -3.0306399    0.7889913 
C     0.2435498    2.2929865    1.6761827 
C     1.6609385   -0.0411014    2.6479490 
C    -2.5028368    1.1774496   -0.0319013 
C    -3.5038975   -2.1460617    0.0727243 
C    -0.7250943   -3.8689369    1.6315775 
C     0.1862903    3.2172879    0.6170108 
C     2.7872157    0.7555540    2.9593197 
C    -2.3456380   -2.6040455   -2.0288640 
C     1.4138989   -3.2685503    0.6246303 
C    -0.0053281    2.7146015    2.9995191 
C     1.4553491   -1.2514695    3.3395516 
C    -3.5717930    2.0755518   -0.1187907 
C    -4.6954355   -2.6248826   -0.4873092 
C    -0.1008404   -4.9188908    2.3166466 
C    -0.1052384    4.5626883    0.8772086 
C     3.6902368    0.3409491    3.9452206 
C    -3.5426338   -3.0805204   -2.5795130 
C     2.0334554   -4.3219964    1.3117833 
C    -0.3055497    4.0586463    3.2504562 
C     2.3654237   -1.6587142    4.3255757 
C    -4.0002522    1.6566669    2.2123683 
C    -4.3388231    2.3259383    1.0269676 
C    -4.7165828   -3.0903110   -1.8117842 
C     1.2779996   -5.1431171    2.1608396 
C    -0.3518859    4.9822085    2.1923458 
C     3.4834727   -0.8687237    4.6280301 
H    -1.2240318   -0.8915611    2.3902266 
H    -1.8828219    0.9530902   -0.9086751 
H    -3.5041841   -1.7746061    1.1026436 
H    -1.8013811   -3.7031406    1.7510777 
H     0.3806403    2.8802059   -0.4056598 
H     2.9428341    1.7084526    2.4421038 
H    -1.4345121   -2.5940832   -2.6342366 
H     2.0009012   -2.6142382   -0.0313542 
H     0.0333657    1.9956600    3.8243408 
H     0.5933615   -1.8866372    3.1193025 
H    -3.8036821    2.5709884   -1.0671916 
H    -5.6109944   -2.6303321    0.1130597 
H    -0.6920075   -5.5676383    2.9711685 
H    -0.1316656    5.2818172    0.0525555 
H     4.5549934    0.9679257    4.1860081 
H    -3.5527252   -3.4371929   -3.6142628 
H     3.1064599   -4.4982222    1.1859741 
H    -0.5034476    4.3878875    4.2756997 
H     2.1929938   -2.5990893    4.8587309 
H    -4.5791883    1.8198418    3.1306143 
H    -5.1844875    3.0201123    1.0043063 
H    -5.6520458   -3.4582635   -2.2458399 
H     1.7608682   -5.9657488    2.6984103 
H    -0.5795356    6.0335407    2.3972826 
H     4.1902514   -1.1902185    5.3998290 
