87
Energy =
C     1.2141311   -0.5968725   -3.1459410 
C     1.4113033    0.7915690   -2.9103693 
C     2.3512819    1.2332982   -1.9378124 
H     0.6935014    1.5089126   -3.3270165 
Pd    0.8810012   -0.1196910   -0.9881024 
P     0.6850135    0.5319737    1.2537106 
P    -0.6787302   -1.5665425    0.0603513 
H     2.0754598   -1.2625229   -2.9819336 
H     3.1985224    0.5643389   -1.7172866 
C    -1.8911926   -2.3101880   -5.5849186 
C    -2.0745399   -1.0377078   -5.0177486 
C    -1.0740734   -0.4691356   -4.2238361 
C     0.1383202   -1.1581575   -3.9840337 
C     0.3048732   -2.4414351   -4.5526785 
C    -0.6992945   -3.0112489   -5.3462520 
H    -2.6762030   -2.7534251   -6.2061118 
H    -3.0080655   -0.4918441   -5.1883340 
H    -1.2442658    0.5122585   -3.7672296 
H     1.2349851   -2.9922495   -4.3730018 
H    -0.5482622   -4.0035250   -5.7836298 
C     2.8924014    5.2784333   -0.5608257 
C     3.5509131    4.2107413    0.0683290 
C     3.3749859    2.9057694   -0.4013779 
C     2.5273561    2.6331538   -1.4996713 
C     1.8727555    3.7190935   -2.1243503 
C     2.0590782    5.0270871   -1.6618803 
H     3.0317320    6.3017557   -0.1981880 
H     4.2026793    4.3963527    0.9278722 
H     3.8904088    2.0772167    0.0969080 
H     1.2281774    3.5491177   -2.9928795 
H     1.5542205    5.8566294   -2.1679239 
N    -2.6356131    1.3531313    2.1440362 
C    -1.0400683   -0.2689277    1.3847472 
C    -2.0964018    0.7684393    1.0580983 
C    -2.2713335   -2.1959929   -0.5717761 
C     0.0702940   -2.9303786    1.0290671 
C     0.5842583    2.2724104    1.7767032 
C     1.7674464   -0.3407406    2.4385754 
C    -2.4414565    1.1400679   -0.2561837 
C    -3.4666807   -2.0977704    0.1726631 
C     1.4383950   -3.2206492    0.8685863 
C     0.0910282    3.2094205    0.8452041 
C     1.2891581   -0.8874746    3.6459036 
C    -2.2787108   -2.8187961   -1.8364297 
C    -0.6912146   -3.6398955    1.9804475 
C     0.9893092    2.6953918    3.0583637 
C     3.1282030   -0.4871916    2.0972250 
C    -3.3740742    2.1689601   -0.4384679 
C    -4.6544966   -2.6301354   -0.3454634 
C     2.0480969   -4.1948534    1.6708731 
C    -0.0250651    4.5559059    1.2057557 
C     2.1639659   -1.5796475    4.4943454 
C    -3.4715891   -3.3487183   -2.3455130 
C    -0.0781141   -4.6152773    2.7761175 
C     0.8797733    4.0481284    3.4066960 
C     4.0008150   -1.1674336    2.9553426 
C    -3.5262004    2.3390638    1.9574246 
C    -3.9260672    2.7894149    0.6892910 
C    -4.6578734   -3.2551299   -1.6027058 
C     1.2916607   -4.8886473    2.6260898 
C     0.3691452    4.9759786    2.4855493 
C     3.5173589   -1.7197304    4.1515657 
H    -1.2527123   -0.6789464    2.3849887 
H    -1.9942550    0.6305302   -1.1176799 
H    -3.4778346   -1.6022857    1.1491548 
H     2.0263600   -2.6675746    0.1268085 
H    -0.1900684    2.8824180   -0.1606903 
H     0.2363904   -0.7824611    3.9268328 
H    -1.3582523   -2.8852890   -2.4252331 
H    -1.7610895   -3.4341742    2.0977377 
H     1.3871800    1.9733162    3.7786519 
H     3.4958664   -0.0815493    1.1481528 
H    -3.6665246    2.4778438   -1.4475244 
H    -5.5803098   -2.5536798    0.2339602 
H     3.1149009   -4.4082574    1.5513066 
H    -0.4061351    5.2803425    0.4795389 
H     1.7851809   -2.0120682    5.4258706 
H    -3.4698972   -3.8273439   -3.3297492 
H    -0.6705086   -5.1654971    3.5144399 
H     1.1922054    4.3777748    4.4028781 
H     5.0561522   -1.2768247    2.6853022 
H    -3.9426345    2.7911374    2.8669129 
H    -4.6572394    3.5979789    0.5932424 
H    -5.5896096   -3.6663257   -2.0047427 
H     1.7678930   -5.6494454    3.2531974 
H     0.2865454    6.0317778    2.7638871 
H     4.1959737   -2.2634766    4.8167860 
