87
Energy =
C     1.2865316   -0.5317679   -3.1272882 
C     1.4576568    0.8561657   -2.8696821 
C     2.3698831    1.2991210   -1.8715815 
H     0.7379423    1.5679085   -3.2926104 
Pd    0.9010024   -0.0890442   -0.9707314 
P     0.6514089    0.5231287    1.2769906 
P    -0.6561571   -1.5753272    0.0226833 
H     2.1541030   -1.1868140   -2.9535531 
H     3.2228234    0.6405212   -1.6421512 
C    -1.7393817   -2.2568061   -5.6561345 
C    -1.9554635   -0.9967221   -5.0730935 
C    -0.9810402   -0.4246150   -4.2498881 
C     0.2374255   -1.0975176   -3.9957442 
C     0.4368008   -2.3688217   -4.5804289 
C    -0.5412198   -2.9421174   -5.4035827 
H    -2.5039742   -2.7027964   -6.3003892 
H    -2.8943434   -0.4636025   -5.2542627 
H    -1.1768926    0.5464362   -3.7815501 
H     1.3719064   -2.9073444   -4.3898154 
H    -0.3647611   -3.9246793   -5.8532058 
C     2.8198151    5.3329558   -0.4300962 
C     3.4882083    4.2679928    0.1931972 
C     3.3420106    2.9670235   -0.2974084 
C     2.5150972    2.6954606   -1.4116205 
C     1.8503233    3.7787361   -2.0302147 
C     2.0067267    5.0829372   -1.5465049 
H     2.9357974    6.3532153   -0.0509850 
H     4.1247799    4.4526412    1.0642616 
H     3.8650576    2.1405140    0.1963430 
H     1.2211422    3.6102228   -2.9102260 
H     1.4941159    5.9106676   -2.0477035 
N    -2.6961615    1.2806819    2.1153830 
C    -1.0631372   -0.3060925    1.3611318 
C    -2.1277341    0.7217353    1.0307994 
C    -2.2255975   -2.2191392   -0.6512551 
C     0.0955830   -2.9438439    0.9827195 
C     0.5109509    2.2524957    1.8267633 
C     1.7247221   -0.3519226    2.4684796 
C    -2.4519997    1.1107411   -0.2837343 
C    -2.1966410   -2.8253062   -1.9237167 
C    -0.6737808   -3.6829267    1.9048215 
C     0.0277383    3.1978452    0.8985759 
C     1.2315221   -0.9312089    3.6544128 
C    -3.4380419   -2.1476199    0.0680944 
C     1.4714469   -3.2086492    0.8462897 
C     0.8725270    2.6584494    3.1267963 
C     3.0950639   -0.4657586    2.1539702 
C    -3.3951947    2.1296980   -0.4674322 
C    -3.3704822   -3.3649349   -2.4656941 
C    -0.0612810   -4.6625404    2.6957549 
C    -0.1209753    4.5355466    1.2794763 
C     2.1013790   -1.6228052    4.5083996 
C    -4.6067055   -2.6892345   -0.4830158 
C     2.0803494   -4.1873540    1.6436706 
C     0.7300499    4.0025424    3.4959544 
C     3.9621459   -1.1461578    3.0175219 
C    -3.5965215    2.2574683    1.9274615 
C    -3.9777609    2.7235237    0.6592734 
C    -4.5739470   -3.2973481   -1.7480848 
C     1.3156910   -4.9108215    2.5699102 
C     0.2300337    4.9385511    2.5771925 
C     3.4641800   -1.7305391    4.1923763 
H    -1.2895261   -0.7359706    2.3499430 
H    -1.9808968    0.6218634   -1.1444561 
H    -1.2626609   -2.8713477   -2.4929013 
H    -1.7491785   -3.4968376    2.0027366 
H    -0.2203865    2.8842579   -0.1202059 
H     0.1710706   -0.8524348    3.9141671 
H    -3.4773134   -1.6659571    1.0507062 
H     2.0655317   -2.6324682    0.1273404 
H     1.2623145    1.9299262    3.8450226 
H     3.4750292   -0.0342685    1.2212998 
H    -3.6720963    2.4515515   -1.4768169 
H    -3.3405650   -3.8305993   -3.4556745 
H    -0.6597419   -5.2357243    3.4113662 
H    -0.4938271    5.2667268    0.5557531 
H     1.7113198   -2.0801472    5.4232149 
H    -5.5459488   -2.6331991    0.0767904 
H     3.1528152   -4.3812481    1.5429228 
H     1.0083193    4.3189959    4.5064358 
H     5.0248609   -1.2305363    2.7682275 
H    -4.0369440    2.6884550    2.8358785 
H    -4.7180935    3.5235714    0.5621013 
H    -5.4908729   -3.7157790   -2.1758832 
H     1.7912730   -5.6752030    3.1931383 
H     0.1218356    5.9875977    2.8718142 
H     4.1389358   -2.2739729    4.8617591 
