87
Energy =
C     2.3334813   -1.3272471   -2.4777563 
C     2.5679129    0.0748513   -2.5310556 
C     3.2055312    0.7292917   -1.4373412 
H     2.0632234    0.6699115   -3.3028895 
Pd    1.3996671   -0.3241195   -0.7208383 
P     0.6689852    0.7024855    1.2570362 
P    -0.5849196   -1.4216688   -0.1179702 
H     3.0488678   -1.9296101   -1.8958996 
H     3.8996280    0.1306987   -0.8267795 
C    -0.1451809   -3.6594944   -5.1098515 
C     0.9536101   -4.2410854   -4.4600591 
C     1.7605800   -3.4679512   -3.6147965 
C     1.4920370   -2.0950929   -3.4150595 
C     0.3838822   -1.5205236   -4.0813634 
C    -0.4265968   -2.2952662   -4.9158951 
H    -0.7829080   -4.2642872   -5.7625750 
H     1.1809124   -5.3020824   -4.6066622 
H     2.6092910   -3.9304943   -3.0990878 
H     0.1319330   -0.4681263   -3.9133034 
H    -1.2895035   -1.8377359   -5.4106153 
C     3.3855593    4.9715837   -0.7259920 
C     3.8450643    4.0574036    0.2355099 
C     3.8127130    2.6841291   -0.0275921 
C     3.3043702    2.1912808   -1.2522125 
C     2.8608569    3.1229293   -2.2185411 
C     2.9036562    4.4979561   -1.9565832 
H     3.4139321    6.0469119   -0.5230165 
H     4.2335975    4.4164267    1.1943722 
H     4.1633203    1.9759844    0.7316797 
H     2.4867427    2.7768715   -3.1877396 
H     2.5643493    5.2052193   -2.7207716 
N    -2.1042978   -1.1699925    3.4256138 
C    -0.6104591   -0.6568428    1.6140559 
C    -1.9170114   -0.4156344    2.3212319 
C    -2.0364482   -0.7534299   -1.0095582 
C    -0.8974212   -3.2077835    0.0552470 
C    -0.1415596    2.3300042    1.1723285 
C     1.8046642    0.7706302    2.6908312 
C    -2.8870790    0.4921501    1.8504269 
C    -3.3016177   -1.3649238   -0.8934303 
C    -0.8172610   -3.9824419   -1.1237988 
C    -0.8381053    2.8633946    2.2800657 
C     2.3313727   -0.4273612    3.2210198 
C    -1.8974374    0.4296726   -1.7634556 
C    -1.1867569   -3.8246884    1.2902349 
C    -0.0404549    3.0742336   -0.0191978 
C     2.2711580    2.0097532    3.1787611 
C    -4.0831453    0.6250681    2.5667229 
C    -4.4145927   -0.7872040   -1.5188770 
C    -1.0245797   -5.3650507   -1.0635288 
C    -1.4426726    4.1221382    2.1784222 
C     3.2840742   -0.3846931    4.2458002 
C    -3.0155735    1.0083583   -2.3777677 
C    -1.3924269   -5.2120899    1.3358635 
C    -0.6410747    4.3372132   -0.1102783 
C     3.2306293    2.0433961    4.2009033 
C    -3.2546156   -1.0339646    4.1025109 
C    -4.2741713   -0.1483154    3.7187881 
C    -4.2747630    0.3997525   -2.2554303 
C    -1.3093590   -5.9816211    0.1658452 
C    -1.3471738    4.8571224    0.9844975 
C     3.7350623    0.8505740    4.7384360 
H    -0.0416146   -1.3770087    2.2314085 
H    -2.7096639    1.0800820    0.9463643 
H    -3.4140332   -2.2870972   -0.3138503 
H    -0.5968359   -3.5053907   -2.0847421 
H    -0.9031707    2.2985834    3.2157245 
H     2.0058765   -1.4002310    2.8348878 
H    -0.9089165    0.8935988   -1.8600615 
H    -1.2780567   -3.2339437    2.2091633 
H     0.5320965    2.6731073   -0.8617892 
H     1.8889725    2.9459259    2.7608016 
H    -4.8545365    1.3229926    2.2251503 
H    -5.3956708   -1.2645759   -1.4279059 
H    -0.9596702   -5.9604934   -1.9800724 
H    -1.9873284    4.5332093    3.0346094 
H     3.6780570   -1.3189255    4.6585193 
H    -2.9028993    1.9301147   -2.9577675 
H    -1.6240442   -5.6907938    2.2929370 
H    -0.5463504    4.9173383   -1.0337109 
H     3.5817249    3.0089826    4.5794955 
H    -3.3682629   -1.6652362    4.9932288 
H    -5.1938877   -0.0750652    4.3074189 
H    -5.1478101    0.8474044   -2.7416192 
H    -1.4692831   -7.0638738    0.2111127 
H    -1.8176973    5.8433204    0.9134450 
H     4.4815061    0.8814014    5.5386180 
