87
Energy =
C     3.2512998    0.5913171   -1.4588870 
C     2.3607450    0.7410373   -2.5591456 
C     1.4985599    1.8752984   -2.6218473 
H     2.1903302   -0.1117531   -3.2285154 
Pd    1.1530579    0.7740382   -0.7397081 
P    -1.0434409    1.1548538   -0.0477516 
P     0.8362284   -0.5002266    1.2153261 
H     3.6179351    1.5164094   -0.9867934 
H     1.8564964    2.8006630   -2.1442200 
C     5.5178517   -2.9042157   -0.3815750 
C     5.9510377   -1.6250107   -0.0029172 
C     5.2093922   -0.4944004   -0.3697434 
C     4.0288637   -0.6198100   -1.1362720 
C     3.6064627   -1.9161127   -1.5153923 
C     4.3407389   -3.0441778   -1.1385825 
H     6.0905644   -3.7898211   -0.0878998 
H     6.8662892   -1.5059786    0.5861568 
H     5.5448510    0.5010378   -0.0586176 
H     2.6763042   -2.0457636   -2.0780208 
H     3.9896881   -4.0401594   -1.4275899 
C    -1.8730614    2.4687333   -5.2361838 
C    -1.4577341    3.4781168   -4.3521788 
C    -0.3459681    3.2754005   -3.5267325 
C     0.3692986    2.0546868   -3.5549493 
C    -0.0655754    1.0448513   -4.4445574 
C    -1.1687867    1.2543593   -5.2799132 
H    -2.7364434    2.6290600   -5.8899943 
H    -1.9985084    4.4292216   -4.3102174 
H    -0.0295982    4.0665226   -2.8379459 
H     0.4589762    0.0850405   -4.4879240 
H    -1.4837174    0.4626457   -5.9676072 
N    -1.4266930   -1.1356494    3.2680429 
C    -0.6620768    0.5407285    1.7010971 
C    -1.7159041    0.0239815    2.6534877 
C     0.3520308   -2.2068999    0.7640735 
C     1.9732106   -0.6420838    2.6266054 
C    -2.3254783    0.1204310   -0.8196662 
C    -1.7127167    2.8519078    0.0566668 
C    -2.9117456    0.7305214    2.8845886 
C     0.2924786   -3.2336220    1.7291434 
C     1.7297466   -0.0475596    3.8800327 
C    -2.8133165   -1.0727586   -0.2486615 
C    -3.0921510    3.1331732   -0.0249178 
C     0.0775132   -2.5006581   -0.5875416 
C     3.1766762   -1.3469407    2.4018172 
C    -2.7461314    0.5029567   -2.1145629 
C    -0.7897805    3.9070073    0.2167671 
C    -3.8410446    0.1917818    3.7820817 
C    -0.0498496   -4.5341183    1.3393021 
C     2.6858497   -0.1578013    4.8994653 
C    -3.7248521   -1.8632939   -0.9624386 
C    -3.5380570    4.4593051    0.0650382 
C    -0.2773620   -3.8011739   -0.9690599 
C     4.1231617   -1.4539856    3.4274422 
C    -3.6572448   -0.2935881   -2.8169349 
C    -1.2432693    5.2285304    0.3150947 
C    -2.3230289   -1.6436004    4.1305246 
C    -3.5462879   -1.0228338    4.4183850 
C    -0.3399682   -4.8186747   -0.0056686 
C     3.8812057   -0.8579946    4.6753618 
C    -4.1490692   -1.4768647   -2.2423251 
C    -2.6177518    5.5050074    0.2374435 
H    -0.1833734    1.4504951    2.1222836 
H    -3.1058975    1.6779012    2.3721286 
H     0.5077081   -3.0051865    2.7761008 
H     0.7916057    0.4809759    4.0744188 
H    -2.4794896   -1.4003940    0.7388133 
H    -3.8119077    2.3199722   -0.1662472 
H     0.1358854   -1.7020022   -1.3378974 
H     3.3698138   -1.8150301    1.4303962 
H    -2.3607775    1.4202218   -2.5735244 
H     0.2849011    3.6879795    0.2522401 
H    -4.7822413    0.7137903    3.9833119 
H    -0.0924416   -5.3307471    2.0893878 
H     2.4913276    0.2991246    5.8752206 
H    -4.0997446   -2.7883806   -0.5131197 
H    -4.6092133    4.6761717   -0.0010496 
H    -0.4991437   -4.0187945   -2.0187801 
H     5.0531395   -2.0023496    3.2458007 
H    -3.9753532    0.0112843   -3.8190672 
H    -0.5241294    6.0443719    0.4410183 
H    -2.0475084   -2.5918202    4.6098662 
H    -4.2466881   -1.4785825    5.1248177 
H    -0.6080805   -5.8380395   -0.3027983 
H     4.6236689   -0.9414517    5.4757076 
H    -4.8606691   -2.0994872   -2.7944728 
H    -2.9716223    6.5388831    0.3049600 
