87
Energy =
C     2.2463185   -1.3627334   -2.5357020 
C     2.4947498    0.0364269   -2.6036516 
C     3.1702066    0.6894196   -1.5321211 
H     1.9747960    0.6329563   -3.3641504 
Pd    1.3736945   -0.3406270   -0.7594763 
P     0.7103021    0.7030189    1.2331792 
P    -0.6025191   -1.4159649   -0.0940393 
H     2.9716322   -1.9700671   -1.9715453 
H     3.8742221    0.0862502   -0.9376103 
C    -0.3311952   -3.6810960   -5.0838773 
C     0.7804750   -4.2708540   -4.4640456 
C     1.6194263   -3.5022649   -3.6462306 
C     1.3702455   -2.1260414   -3.4446687 
C     0.2485864   -1.5432776   -4.0805870 
C    -0.5935074   -2.3133858   -4.8876931 
H    -0.9937382   -4.2822540   -5.7148789 
H     0.9930356   -5.3346296   -4.6126317 
H     2.4784558   -3.9710282   -3.1537421 
H     0.0118015   -0.4878010   -3.9095599 
H    -1.4660962   -1.8493983   -5.3588432 
C     3.4158581    4.9331500   -0.8496789 
C     3.8894333    4.0190360    0.1050503 
C     3.8350492    2.6448231   -0.1493118 
C     3.2901963    2.1511716   -1.3577887 
C     2.8325991    3.0825114   -2.3178296 
C     2.8974255    4.4583751   -2.0648794 
H     3.4615911    6.0091734   -0.6536676 
H     4.3062275    4.3788402    1.0516746 
H     4.1968378    1.9368890    0.6048787 
H     2.4303135    2.7354284   -3.2753076 
H     2.5467210    5.1652795   -2.8242364 
N    -2.0161262   -1.1357123    3.4896988 
C    -0.5706839   -0.6424782    1.6339643 
C    -1.8542861   -0.3872242    2.3773604 
C    -2.0727551   -0.7377014   -0.9465888 
C    -0.9263162   -3.1981735    0.0967925 
C    -0.0857394    2.3384559    1.1632844 
C     1.8874640    0.7670260    2.6334335 
C    -2.8300866    0.5264569    1.9304550 
C    -3.3386766   -1.3401837   -0.7968413 
C    -1.1828229   -3.8071379    1.3429229 
C    -0.7482136    2.8830629    2.2863377 
C     2.3773915    2.0038804    3.1037424 
C    -1.9455239    0.4446962   -1.7037663 
C    -0.8896744   -3.9785552   -1.0806591 
C    -0.0052594    3.0784016   -0.0325138 
C     2.4197599   -0.4334703    3.1522545 
C    -4.0044814    0.6713912    2.6795243 
C    -4.4638527   -0.7542374   -1.3921420 
C    -1.3992585   -5.1924262    1.4012310 
C    -1.3398118    4.1488353    2.1961480 
C     3.3659244    2.0330614    4.0979448 
C    -3.0756173    1.0319187   -2.2872637 
C    -1.1071953   -5.3589816   -1.0076660 
C    -0.5928552    4.3482431   -0.1123468 
C     3.4015414   -0.3952184    4.1493716 
C    -3.1457911   -0.9880307    4.1982018 
C    -4.1689633   -0.0960769    3.8396116 
C    -4.3354434    0.4323254   -2.1313476 
C    -1.3591246   -5.9676989    0.2327490 
C    -1.2650935    4.8795706    0.9981536 
C     3.8760425    0.8379501    4.6249010 
H     0.0097723   -1.3647478    2.2379315 
H    -2.6735521    1.1096463    1.0194776 
H    -3.4421797   -2.2618203   -0.2147626 
H    -1.2404283   -3.2116334    2.2615086 
H    -0.7969294    2.3215263    3.2249609 
H     1.9908573    2.9417453    2.6936820 
H    -0.9566404    0.9013955   -1.8273992 
H    -0.6953525   -3.5075828   -2.0501962 
H     0.5418007    2.6685743   -0.8877868 
H     2.0758245   -1.4048693    2.7785966 
H    -4.7798373    1.3739543    2.3569536 
H    -5.4454568   -1.2248698   -1.2753747 
H    -1.6053417   -5.6649004    2.3671933 
H    -1.8577939    4.5687838    3.0644945 
H     3.7353455    2.9969935    4.4630716 
H    -2.9719037    1.9532454   -2.8696123 
H    -1.0759719   -5.9589205   -1.9230493 
H    -0.5142463    4.9246851   -1.0395941 
H     3.7998096   -1.3312592    4.5538009 
H    -3.2391082   -1.6148703    5.0943977 
H    -5.0712107   -0.0134677    4.4535041 
H    -5.2180820    0.8868084   -2.5932675 
H    -1.5268596   -7.0483098    0.2879073 
H    -1.7251640    5.8712855    0.9360161 
H     4.6450329    0.8653123    5.4035697 
