87
Energy =
C     1.3219361   -0.5978581   -3.0467545 
C     1.5172272    0.8010814   -2.8836521 
C     2.4510276    1.2868293   -1.9275463 
H     0.8308640    1.5033134   -3.3739144 
Pd    0.9227493    0.0002156   -0.9355921 
P     0.6065575    0.6633179    1.3205922 
P    -0.6684086   -1.4520119    0.0585649 
H     2.1781282   -1.2512524   -2.8174614 
H     3.3110744    0.6391733   -1.6963588 
C    -1.6342064   -2.4050509   -5.5964260 
C    -1.8662951   -1.1274237   -5.0596443 
C    -0.9168644   -0.5308321   -4.2251066 
C     0.2921311   -1.1966490   -3.9154270 
C     0.5074219   -2.4863937   -4.4519996 
C    -0.4462772   -3.0843916   -5.2858872 
H    -2.3800870   -2.8706197   -6.2487130 
H    -2.7994213   -0.6007527   -5.2837029 
H    -1.1279959    0.4501905   -3.7857417 
H     1.4358580   -3.0189490   -4.2169492 
H    -0.2591832   -4.0812920   -5.6979799 
C     3.0537096    5.4302496   -0.9406508 
C     1.8008717    5.0027461   -1.4117499 
C     1.5896243    3.6584590   -1.7312228 
C     2.6314928    2.7115148   -1.5937829 
C     3.8828438    3.1525967   -1.1066733 
C     4.0925991    4.4998620   -0.7850470 
H     3.2160300    6.4836011   -0.6903244 
H     0.9815737    5.7210770   -1.5171009 
H     0.5973272    3.3342885   -2.0632995 
H     4.6987372    2.4307311   -0.9874745 
H     5.0710740    4.8246800   -0.4166451 
N    -3.2349374    0.8709121    1.8189243 
C    -1.0985585   -0.1598871    1.3744687 
C    -2.2155842    0.7740330    0.9427681 
C    -2.2301292   -2.1127750   -0.6202067 
C     0.0814928   -2.8475511    0.9777692 
C     0.4520160    2.3380160    2.0337524 
C     1.6331176   -0.2699432    2.5166062 
C    -2.1944064    1.4867228   -0.2713974 
C    -2.1780789   -2.7658153   -1.8683521 
C    -0.5823723   -3.4356405    2.0736584 
C     1.4611109    3.2747322    1.7315848 
C     1.2042105   -0.4612865    3.8458827 
C    -3.4451733   -2.0552134    0.0959874 
C     1.3306532   -3.3475372    0.5641847 
C    -0.5875406    2.6834334    2.9240610 
C     2.8771985   -0.7806285    2.1008893 
C    -3.2689383    2.3287836   -0.5780536 
C    -3.3345996   -3.3536116   -2.3969035 
C     0.0129422   -4.5016279    2.7581549 
C     1.4271698    4.5488084    2.3129961 
C     2.0092144   -1.1746088    4.7415923 
C    -4.5963716   -2.6437693   -0.4440406 
C     1.9183393   -4.4207993    1.2477971 
C    -0.6134740    3.9620574    3.4965037 
C     3.6831370   -1.4870114    3.0042888 
C    -4.2621547    1.6809151    1.5148146 
C    -4.3289957    2.4321803    0.3322439 
C    -4.5436942   -3.2907296   -1.6887244 
C     1.2629415   -4.9935299    2.3468900 
C     0.3899031    4.8951198    3.1913437 
C     3.2475141   -1.6881532    4.3215632 
H    -1.3620420   -0.5866144    2.3557549 
H    -1.3445981    1.3778509   -0.9591261 
H    -1.2385083   -2.8182243   -2.4264552 
H    -1.5639319   -3.0661406    2.3914220 
H     2.2725597    3.0119272    1.0463460 
H     0.2457831   -0.0516045    4.1841972 
H    -3.5028599   -1.5509474    1.0654616 
H     1.8431569   -2.8862517   -0.2879743 
H    -1.3784951    1.9681114    3.1692554 
H     3.2056037   -0.6306717    1.0658533 
H    -3.2781610    2.8965624   -1.5142862 
H    -3.2858283   -3.8554210   -3.3683300 
H    -0.5007791   -4.9533106    3.6129468 
H     2.2131728    5.2707503    2.0703170 
H     1.6724072   -1.3272538    5.7720632 
H    -5.5381772   -2.5962384    0.1124062 
H     2.8912627   -4.8054960    0.9254181 
H    -1.4220206    4.2283777    4.1851585 
H     4.6490884   -1.8850987    2.6772102 
H    -5.0706027    1.7310283    2.2554688 
H    -5.1891472    3.0786906    0.1335970 
H    -5.4473187   -3.7473459   -2.1056979 
H     1.7244240   -5.8279215    2.8850201 
H     0.3624247    5.8933703    3.6404115 
H     3.8745151   -2.2441745    5.0261858 
