87
Energy =
C     2.4139135    1.0946922   -1.9166093 
C     2.4433210   -0.2950286   -2.2182109 
C     1.3803940   -0.9010031   -2.9418051 
H     3.1639349   -0.9340577   -1.6942611 
Pd    0.5912670    0.1329910   -1.1293800 
P    -1.4371331   -0.7822857   -0.3492253 
P    -0.0706841    1.3656204    0.7479174 
H     1.8581922    1.7519951   -2.6033971 
H     0.8262084   -0.2661282   -3.6497940 
C     5.0667026    3.1735529    0.7639937 
C     5.3710523    1.8619701    0.3692001 
C     4.5222401    1.1709420   -0.5036106 
C     3.3553617    1.7851489   -1.0109660 
C     3.0702234    3.1123467   -0.6150051 
C     3.9108265    3.7966438    0.2678335 
H     5.7287245    3.7093185    1.4516438 
H     6.2783427    1.3742366    0.7408212 
H     4.7859656    0.1530368   -0.8085875 
H     2.1639940    3.6003529   -0.9927372 
H     3.6640208    4.8187524    0.5720795 
C     0.7427910   -5.1203430   -3.5214019 
C    -0.0912117   -4.1744178   -4.1365684 
C     0.1402768   -2.8074655   -3.9485448 
C     1.2040715   -2.3528034   -3.1361837 
C     2.0359068   -3.3181586   -2.5218806 
C     1.8081802   -4.6851347   -2.7157742 
H     0.5667702   -6.1904883   -3.6707159 
H    -0.9237004   -4.5034430   -4.7667239 
H    -0.5163893   -2.0736479   -4.4301426 
H     2.8686747   -3.0032925   -1.8848294 
H     2.4681105   -5.4170471   -2.2381466 
N     0.6112664   -1.8039139    1.4723876 
C    -1.1138476   -0.1060423    1.3979932 
C    -0.2482767   -1.0517149    2.1896952 
C     1.1365117    1.8831138    2.0153151 
C    -1.2939323    2.7057609    0.5410460 
C    -1.9932998   -2.5210261   -0.2608743 
C    -2.8771969    0.1750678   -0.9631219 
C    -0.2982268   -1.1029277    3.5940213 
C     2.2599150    1.0487494    2.2072384 
C    -1.4448227    3.2931405   -0.7302714 
C    -3.3264707   -2.8522217    0.0591935 
C    -3.8949329    0.6911742   -0.1366946 
C     1.0361116    3.0940828    2.7310087 
C    -2.1369211    3.1063723    1.6003294 
C    -1.0634070   -3.5385571   -0.5526384 
C    -2.9307231    0.4120177   -2.3533069 
C     0.5802986   -1.9624114    4.2657606 
C     3.2430803    1.4002804    3.1376343 
C    -2.4257486    4.2718368   -0.9403500 
C    -3.7156312   -4.1971855    0.1073968 
C    -4.9409291    1.4407959   -0.6918836 
C     2.0314861    3.4424548    3.6542135 
C    -3.1093611    4.0911724    1.3872014 
C    -1.4639670   -4.8799455   -0.5112447 
C    -3.9850163    1.1492844   -2.9066510 
C     1.4433038   -2.6319428    2.1213455 
C     1.4714232   -2.7452280    3.5185118 
C     3.1296540    2.5953120    3.8644149 
C    -3.2555860    4.6719353    0.1170537 
C    -2.7858363   -5.2105002   -0.1769454 
C    -4.9881807    1.6700370   -2.0750097 
H    -1.9998821    0.2117932    1.9708230 
H    -1.0053676   -0.4767946    4.1469436 
H     2.3664898    0.1362481    1.6126682 
H    -0.8069948    2.9614984   -1.5573397 
H    -4.0617832   -2.0655729    0.2584960 
H    -3.8722021    0.5270345    0.9453984 
H     0.1936578    3.7710918    2.5621600 
H    -2.0398889    2.6460885    2.5903328 
H    -0.0353418   -3.2751961   -0.8132128 
H    -2.1348353    0.0217348   -2.9982436 
H     0.5673669   -2.0211523    5.3589335 
H     4.1113722    0.7492928    3.2786263 
H    -2.5466759    4.7162378   -1.9332090 
H    -4.7498011   -4.4541865    0.3590589 
H    -5.7189084    1.8504458   -0.0397637 
H     1.9489607    4.3834483    4.2079009 
H    -3.7598096    4.4015134    2.2115168 
H    -0.7399888   -5.6654584   -0.7500858 
H    -4.0188835    1.3255886   -3.9867225 
H     2.1131051   -3.2330718    1.4928059 
H     2.1693165   -3.4329618    4.0055320 
H     3.9055224    2.8741574    4.5849145 
H    -4.0233856    5.4346341   -0.0488794 
H    -3.0970779   -6.2599722   -0.1459440 
H    -5.8060497    2.2577329   -2.5044676 
