87
Energy =
C     2.1008257    1.3906832   -2.1890045 
C     2.2892192    0.0032243   -2.4515106 
C     1.2473512   -0.7638784   -3.0361904 
H     3.1374639   -0.5162417   -1.9896279 
Pd    0.5056852    0.2324543   -1.1819873 
P    -1.2300145   -1.0046993   -0.1977367 
P    -0.2761116    1.5212862    0.5958881 
H     1.4069728    1.9354888   -2.8478257 
H     0.5161014   -0.2275205   -3.6611560 
C     4.6645865    3.9463391    0.1452472 
C     3.4252972    4.4058824   -0.3269524 
C     2.6140987    3.5665532   -1.0964104 
C     3.0137509    2.2447264   -1.4020543 
C     4.2629349    1.7954911   -0.9175549 
C     5.0805510    2.6406921   -0.1580461 
H     5.3037743    4.6029124    0.7440893 
H     3.0904642    5.4215931   -0.0935540 
H     1.6446711    3.9298660   -1.4564453 
H     4.6125039    0.7839219   -1.1482885 
H     6.0511463    2.2784795    0.1968148 
C     1.0627032   -5.0480650   -3.4041794 
C    -0.0389157   -4.2458793   -3.7419694 
C     0.0502679   -2.8537205   -3.6434359 
C     1.2369919   -2.2313584   -3.1907912 
C     2.3439074   -3.0497046   -2.8701174 
C     2.2555759   -4.4430729   -2.9775117 
H     0.9960699   -6.1378176   -3.4837044 
H    -0.9694451   -4.7089114   -4.0866977 
H    -0.8144729   -2.2309992   -3.8999955 
H     3.2862076   -2.5990965   -2.5419060 
H     3.1260170   -5.0608893   -2.7327845 
N     0.7378930   -1.0340909    2.1804116 
C    -1.2538819    0.0754393    1.3844368 
C    -0.4992288   -0.5985578    2.4979000 
C     0.8683790    2.3040947    1.7847795 
C    -1.5753020    2.7484956    0.1998814 
C    -1.0264797   -2.7448089    0.3125002 
C    -2.9012479   -0.9359977   -0.9447118 
C    -1.0581792   -0.7747315    3.7751725 
C     2.1494683    1.7247888    1.9130593 
C    -2.5543718    3.1280918    1.1451810 
C    -2.0364101   -3.4108915    1.0379751 
C    -3.7523673    0.1798270   -0.8090998 
C     0.5609705    3.4862128    2.4898854 
C    -1.6245542    3.2858268   -1.1019042 
C     0.1730537   -3.4082245   -0.0022432 
C    -3.2936034   -2.0081683   -1.7790183 
C    -0.3007749   -1.4345372    4.7526015 
C     3.0952690    2.3009706    2.7676592 
C    -3.5621273    4.0338012    0.7883261 
C    -1.8367265   -4.7354347    1.4460665 
C    -4.9792196    0.2162670   -1.4863016 
C     1.5166101    4.0584643    3.3401769 
C    -2.6343019    4.1925203   -1.4543077 
C     0.3594988   -4.7386203    0.3956568 
C    -4.5202297   -1.9622243   -2.4534410 
C     1.4537129   -1.6652478    3.1211387 
C     0.9805845   -1.8934273    4.4219731 
C     2.7799401    3.4650637    3.4844816 
C    -3.6032578    4.5652784   -0.5112520 
C    -0.6415278   -5.3998036    1.1224133 
C    -5.3659024   -0.8511730   -2.3095371 
H    -2.2701815    0.3641684    1.6975969 
H    -2.0653033   -0.4072089    3.9963699 
H     2.3962116    0.8304610    1.3338728 
H    -2.5378792    2.7114752    2.1589145 
H    -2.9749390   -2.8984053    1.2765538 
H    -3.4673806    1.0297866   -0.1835686 
H    -0.4121688    3.9709848    2.3688041 
H    -0.8790493    2.9754312   -1.8421424 
H     0.9523879   -2.8824987   -0.5608675 
H    -2.6433000   -2.8824785   -1.8906314 
H    -0.7085966   -1.5897914    5.7567561 
H     4.0882851    1.8501025    2.8577248 
H    -4.3187987    4.3234606    1.5247397 
H    -2.6169341   -5.2534598    2.0133743 
H    -5.6334549    1.0860351   -1.3664549 
H     1.2736288    4.9751995    3.8873157 
H    -2.6688465    4.6012376   -2.4692274 
H     1.2873363   -5.2567229    0.1333109 
H    -4.8186395   -2.8014351   -3.0903909 
H     2.4527769   -2.0066004    2.8210611 
H     1.6030387   -2.4170033    5.1538100 
H     3.5244295    3.9196106    4.1463976 
H    -4.3949422    5.2689200   -0.7884273 
H    -0.4943129   -6.4384352    1.4367205 
H    -6.3252327   -0.8197761   -2.8360738 
