87
Energy =
C     2.4482654    1.1005090   -1.8702262 
C     2.4694862   -0.2851780   -2.1904414 
C     1.4112932   -0.8719966   -2.9363647 
H     3.1772884   -0.9376741   -1.6656545 
Pd    0.6063504    0.1446570   -1.1206776 
P    -1.4387565   -0.7648026   -0.3787710 
P    -0.0691173    1.3567729    0.7650617 
H     1.9075882    1.7720949   -2.5551645 
H     0.8720290   -0.2229016   -3.6429700 
C     5.0838086    3.1182312    0.8733942 
C     3.9402911    3.7586221    0.3706922 
C     3.1051850    3.0940892   -0.5322365 
C     3.3835029    1.7697824   -0.9425095 
C     4.5378520    1.1379520   -0.4281622 
C     5.3813120    1.8092547    0.4649711 
H     5.7416130    3.6385552    1.5767644 
H     3.6987856    4.7787807    0.6855414 
H     2.2084731    3.5955110   -0.9150929 
H     4.7962980    0.1218535   -0.7434726 
H     6.2791242    1.3081703    0.8418233 
C     0.7472333   -5.0777013   -3.5817807 
C    -0.0701161   -4.1166711   -4.1958678 
C     0.1698514   -2.7543291   -3.9861552 
C     1.2256462   -2.3194954   -3.1528088 
C     2.0407075   -3.2999584   -2.5398931 
C     1.8045706   -4.6622498   -2.7553802 
H     0.5646058   -6.1442432   -3.7479679 
H    -0.8961565   -4.4302432   -4.8421769 
H    -0.4738501   -2.0086817   -4.4670861 
H     2.8668602   -3.0007017   -1.8868847 
H     2.4515737   -5.4059838   -2.2783285 
N     0.5795755   -1.8278487    1.4532770 
C    -1.1314916   -0.1156410    1.3816558 
C    -0.2834983   -1.0794838    2.1704098 
C     1.1256895    1.8481142    2.0544232 
C    -1.2799202    2.7087222    0.5619395 
C    -2.0096486   -2.5001186   -0.3216432 
C    -2.8640099    0.2121937   -0.9962985 
C    -0.3522683   -1.1510562    3.5730461 
C     1.0272309    3.0523394    2.7817101 
C    -1.4124309    3.3136043   -0.7031825 
C    -3.3497020   -2.8248412   -0.0244095 
C    -3.8874643    0.7248049   -0.1747748 
C     2.2385623    1.0010845    2.2522192 
C    -2.1314689    3.1020520    1.6171036 
C    -1.0839853   -3.5211276   -0.6147483 
C    -2.8995671    0.4682162   -2.3836638 
C     0.5106767   -2.0273116    4.2433428 
C     2.0133178    3.3812481    3.7218427 
C    -2.3836477    4.3023830   -0.9111999 
C    -3.7502058   -4.1671176   -0.0002033 
C    -4.9213774    1.4896467   -0.7318042 
C     3.2123429    1.3331938    3.1994456 
C    -3.0941307    4.0968863    1.4062241 
C    -1.4957470   -4.8596473   -0.5973603 
C    -3.9419166    1.2207321   -2.9391181 
C     1.3965686   -2.6719369    2.1006413 
C     1.4054447   -2.8060789    3.4962268 
C     3.1004458    2.5213879    3.9375941 
C    -3.2220445    4.6950904    0.1422095 
C    -2.8246912   -5.1839824   -0.2857934 
C    -4.9508588    1.7377536   -2.1121577 
H    -2.0219707    0.2013989    1.9479723 
H    -1.0617693   -0.5276029    4.1259604 
H     0.1935630    3.7391527    2.6089180 
H    -0.7680768    2.9878268   -1.5274993 
H    -4.0813836   -2.0350320    0.1757098 
H    -3.8785231    0.5459126    0.9051661 
H     2.3446169    0.0941187    1.6492281 
H    -2.0486012    2.6284733    2.6021198 
H    -0.0504238   -3.2626407   -0.8577831 
H    -2.0991142    0.0806314   -3.0245908 
H     0.4828816   -2.1020966    5.3352549 
H     1.9322680    4.3170534    4.2844708 
H    -2.4903545    4.7604719   -1.8994566 
H    -4.7897721   -4.4190845    0.2336742 
H    -5.7037939    1.8963916   -0.0831890 
H     4.0725101    0.6724821    3.3449471 
H    -3.7511659    4.4015710    2.2274196 
H    -0.7748222   -5.6476718   -0.8371499 
H    -3.9619152    1.4118606   -4.0170098 
H     2.0699482   -3.2690050    1.4720475 
H     2.0915214   -3.5064544    3.9820138 
H     3.8691551    2.7850687    4.6713486 
H    -3.9822252    5.4657335   -0.0220968 
H    -3.1446644   -6.2312132   -0.2735583 
H    -5.7592669    2.3373680   -2.5430461 
