87
Energy =
C     2.2241136    1.1801275   -2.0915794 
C     2.4635621   -0.2174634   -2.2085738 
C     1.5029512   -1.0659331   -2.8227008 
H     3.2731883   -0.6665109   -1.6212999 
Pd    0.5697812    0.0698671   -1.1445111 
P    -1.2846997   -1.0365018   -0.2007760 
P    -0.2854933    1.4366693    0.5533091 
H     1.5769920    1.6490555   -2.8490199 
H     0.8536483   -0.6185323   -3.5907047 
C     4.5266006    3.9799435    0.2332104 
C     3.2991109    4.3537244   -0.3358615 
C     2.5733054    3.4359879   -1.1009018 
C     3.0482198    2.1194911   -1.3033399 
C     4.2843987    1.7570415   -0.7228825 
C     5.0175057    2.6810835    0.0309682 
H     5.0989646    4.6985633    0.8283287 
H     2.9065720    5.3637233   -0.1809832 
H     1.6111894    3.7303722   -1.5365417 
H     4.6922896    0.7528604   -0.8774959 
H     5.9805191    2.3860425    0.4607831 
C     1.5038031   -5.3722153   -2.8406362 
C     0.5159968   -4.6488027   -3.5260053 
C     0.5410666   -3.2500722   -3.5216274 
C     1.5469414   -2.5406549   -2.8263035 
C     2.5361725   -3.2834170   -2.1403777 
C     2.5146492   -4.6826435   -2.1508765 
H     1.4893301   -6.4668649   -2.8465770 
H    -0.2754976   -5.1770165   -4.0672202 
H    -0.2351200   -2.6908357   -4.0566492 
H     3.3326133   -2.7682694   -1.5937599 
H     3.2944350   -5.2399799   -1.6211342 
N     0.8961994   -1.4420247    1.7115963 
C    -1.0812613   -0.0736049    1.4264004 
C    -0.0810653   -0.7473897    2.3294245 
C     0.8121377    2.3249597    1.7097106 
C    -1.7117991    2.5136783    0.1774942 
C    -1.5402223   -2.8129043    0.1440501 
C    -2.8636645   -0.4303888   -0.9120672 
C    -0.1365277   -0.6126654    3.7279743 
C     0.5177442    3.6043371    2.2251471 
C    -1.9571271    2.8692701   -1.1630893 
C    -2.7975968   -3.3124550    0.5426077 
C    -3.9538314    0.0258165   -0.1450442 
C     2.0490379    1.7157556    2.0164137 
C    -2.6098968    2.9265948    1.1854952 
C    -0.4525465   -3.6921610   -0.0263437 
C    -2.9549167   -0.4118614   -2.3202134 
C     0.8621304   -1.2188709    4.5006398 
C     1.4364889    4.2444660    3.0680364 
C    -3.0866876    3.6305228   -1.4929064 
C    -2.9540479   -4.6826075    0.7894118 
C    -5.1099445    0.5024606   -0.7779161 
C     2.9546603    2.3580504    2.8667138 
C    -3.7319540    3.6949151    0.8516482 
C    -0.6209005   -5.0617402    0.2132959 
C    -4.1169872    0.0518150   -2.9492718 
C     1.8442243   -2.0278010    2.4579067 
C     1.8755572   -1.9426557    3.8570646 
C     2.6495173    3.6212023    3.3961700 
C    -3.9719064    4.0445379   -0.4870656 
C    -1.8672653   -5.5567888    0.6254770 
C    -5.1937483    0.5155930   -2.1781216 
H    -2.0097668    0.1785932    1.9631444 
H    -0.9412884   -0.0390781    4.1982341 
H    -0.4171433    4.1077548    1.9622475 
H    -1.2725782    2.5254737   -1.9466239 
H    -3.6544147   -2.6388169    0.6490910 
H    -3.9048454    0.0283269    0.9484985 
H     2.3036606    0.7487717    1.5720353 
H    -2.4380036    2.6441920    2.2305401 
H     0.5156885   -3.3008751   -0.3484700 
H    -2.1042918   -0.7550541   -2.9206081 
H     0.8474022   -1.1286916    5.5916392 
H     1.2031231    5.2375084    3.4658539 
H    -3.2790426    3.8934073   -2.5377724 
H    -3.9292550   -5.0698637    1.1022455 
H    -5.9459368    0.8688580   -0.1735978 
H     3.9114382    1.8796875    3.0976915 
H    -4.4249946    4.0160062    1.6361964 
H     0.2244468   -5.7417479    0.0678015 
H    -4.1787513    0.0603995   -4.0423832 
H     2.6091828   -2.5931295    1.9099189 
H     2.6700726   -2.4356711    4.4252945 
H     3.3643881    4.1272586    4.0531864 
H    -4.8553318    4.6371854   -0.7460498 
H    -1.9968112   -6.6281587    0.8115511 
H    -6.0978574    0.8907680   -2.6685641 
