87
Energy =
C     0.9142804   -0.2054110   -3.2059153 
C     1.3625414    1.0737332   -2.7806231 
C     2.4765834    1.1942950   -1.8980362 
H     0.7286113    1.9534121   -2.9486242 
Pd    0.9053025   -0.0769078   -0.9873859 
P     0.9484205    0.2341317    1.3356329 
P    -0.8312106   -1.3636406   -0.0611983 
H     1.6536124   -1.0216997   -3.2168598 
H     3.2721700    0.4383157   -1.9828641 
C    -2.6915069   -1.0526797   -5.4045184 
C    -1.9112389   -2.0915208   -4.8736186 
C    -0.7349830   -1.7983403   -4.1766227 
C    -0.3159237   -0.4620960   -3.9815504 
C    -1.1092950    0.5735249   -4.5263059 
C    -2.2816991    0.2788850   -5.2326385 
H    -3.6097305   -1.2795964   -5.9556076 
H    -2.2207484   -3.1333313   -5.0051638 
H    -0.1306072   -2.6135256   -3.7623128 
H    -0.8019196    1.6185018   -4.4160504 
H    -2.8756490    1.0942722   -5.6590077 
C     3.6613540    4.9137501   -0.0870638 
C     2.2989784    4.6374956   -0.2891782 
C     1.9043775    3.4244122   -0.8595897 
C     2.8664387    2.4636585   -1.2512688 
C     4.2310071    2.7400865   -1.0131610 
C     4.6246408    3.9579325   -0.4428046 
H     3.9688899    5.8639734    0.3614157 
H     1.5408088    5.3639619    0.0206760 
H     0.8399778    3.1894664   -0.9622564 
H     4.9887013    2.0012865   -1.2984150 
H     5.6880255    4.1623692   -0.2797594 
N    -1.2994005    1.8524072    0.1808977 
C    -0.8934540   -0.1806590    1.4500972 
C    -1.7931653    0.9734882    1.0777488 
C    -2.5181452   -1.4584131   -0.7505857 
C    -0.4252237   -3.0280136    0.5748957 
C     1.3599750    1.7699736    2.2258593 
C     1.7242102   -1.0984562    2.3266818 
C    -3.0978148    1.0775091    1.5929336 
C    -2.9095161   -0.4531335   -1.6585232 
C     0.2529251   -3.8983201   -0.3045455 
C     2.7281315    2.1186352    2.2258860 
C     2.4891980   -2.0883715    1.6810759 
C    -3.4189513   -2.4853416   -0.4011138 
C    -0.7265812   -3.4565390    1.8825450 
C     0.4246955    2.6023550    2.8707605 
C     1.5159795   -1.1691826    3.7200052 
C    -3.9106501    2.1309564    1.1558175 
C    -4.2019856   -0.4627081   -2.1954278 
C     0.6198677   -5.1817666    0.1186343 
C     3.1537041    3.2849541    2.8698688 
C     3.0218438   -3.1553223    2.4177507 
C    -4.7096498   -2.4891799   -0.9472803 
C    -0.3439833   -4.7364163    2.3058628 
C     0.8602828    3.7708013    3.5121628 
C     2.0521003   -2.2357724    4.4517888 
C    -2.0830248    2.8615728   -0.2282003 
C    -3.3967933    3.0449883    0.2258958 
C    -5.1021823   -1.4788180   -1.8400494 
C     0.3273677   -5.5991361    1.4263837 
C     2.2202589    4.1146571    3.5102830 
C     2.7998796   -3.2310688    3.8003369 
H    -1.2053596   -0.6561013    2.3940863 
H    -3.4692779    0.3408130    2.3118249 
H    -2.1965221    0.3246532   -1.9474943 
H     0.5034435   -3.5599375   -1.3164774 
H     3.4582740    1.4799386    1.7168361 
H     2.6494344   -2.0268201    0.5983507 
H    -3.1116973   -3.2796087    0.2875751 
H    -1.2435293   -2.7930024    2.5825543 
H    -0.6381492    2.3453022    2.8819164 
H     0.9414615   -0.3875111    4.2306782 
H    -4.9322908    2.2345751    1.5352979 
H    -4.4977595    0.3155210   -2.9055802 
H     1.1444150   -5.8529976   -0.5690647 
H     4.2147930    3.5516114    2.8600279 
H     3.6073375   -3.9283866    1.9103548 
H    -5.4101528   -3.2863444   -0.6775345 
H    -0.5672476   -5.0577930    3.3280987 
H     0.1316862    4.4129029    4.0179479 
H     1.8911378   -2.2897916    5.5335573 
H    -1.6385762    3.5570867   -0.9521838 
H    -3.9973481    3.8836963   -0.1387621 
H    -6.1103775   -1.4909395   -2.2672703 
H     0.6266954   -6.5972534    1.7621921 
H     2.5533933    5.0304287    4.0094247 
H     3.2161080   -4.0644367    4.3758747 
