87
Energy =
C     2.3157748   -1.3257852   -2.4938563 
C     2.5439523    0.0770473   -2.5540357 
C     3.1889284    0.7377899   -1.4684085 
H     2.0297334    0.6671934   -3.3233538 
Pd    1.3942261   -0.3202696   -0.7315560 
P     0.6759852    0.7104293    1.2490675 
P    -0.5799261   -1.4248221   -0.1071062 
H     3.0390848   -1.9234584   -1.9169669 
H     3.8911475    0.1440044   -0.8624533 
C    -0.1766586   -3.6754606   -5.0972989 
C    -0.4646923   -2.3129859   -4.9008420 
C     0.3500570   -1.5326436   -4.0757433 
C     1.4691539   -2.0997692   -3.4214724 
C     1.7443717   -3.4709287   -3.6236090 
C     0.9330826   -4.2496194   -4.4596131 
H    -0.8177655   -4.2847234   -5.7425110 
H    -1.3360497   -1.8612786   -5.3860011 
H     0.0933460   -0.4817788   -3.9052972 
H     2.6017192   -3.9277525   -3.1171809 
H     1.1657805   -5.3091086   -4.6086225 
C     3.3609283    4.9832974   -0.7741934 
C     3.8341405    4.0742992    0.1855693 
C     3.8037715    2.6999434   -0.0721246 
C     3.2839114    2.2007757   -1.2893212 
C     2.8262575    3.1272931   -2.2540148 
C     2.8670245    4.5034069   -1.9975862 
H     3.3880228    6.0594779   -0.5756113 
H     4.2320222    4.4382838    1.1387091 
H     4.1654044    1.9958462    0.6857408 
H     2.4424345    2.7763531   -3.2176411 
H     2.5166534    5.2066262   -2.7605115 
N    -2.0707761   -1.1667769    3.4474728 
C    -0.5939331   -0.6530115    1.6221865 
C    -1.8957444   -0.4152001    2.3392158 
C    -2.0430134   -0.7683222   -0.9882265 
C    -0.8800107   -3.2119848    0.0763763 
C    -0.1423846    2.3340952    1.1650262 
C     1.8232487    0.7898728    2.6730876 
C    -2.8737812    0.4863988    1.8730484 
C    -3.3029483   -1.3883826   -0.8614039 
C    -0.8031186   -3.9917215   -1.0995406 
C    -0.8314179    2.8690597    2.2766662 
C     2.2915256    2.0334814    3.1478791 
C    -1.9179410    0.4142064   -1.7455236 
C    -1.1565701   -3.8249222    1.3162885 
C    -0.0544039    3.0741313   -0.0301607 
C     2.3568480   -0.4031050    3.2076103 
C    -4.0650855    0.6155408    2.5978945 
C    -4.4245666   -0.8198308   -1.4797957 
C    -1.0004277   -5.3754284   -1.0311846 
C    -1.4417767    4.1250192    2.1754124 
C     3.2596263    2.0765602    4.1614576 
C    -3.0447472    0.9840529   -2.3521609 
C    -1.3522945   -5.2134674    1.3700016 
C    -0.6607451    4.3343955   -0.1209185 
C     3.3181345   -0.3509948    4.2239069 
C    -3.2165420   -1.0342075    4.1327384 
C    -4.2435089   -0.1551067    3.7538048 
C    -4.2986759    0.3668109   -2.2193330 
C    -1.2720107   -5.9880520    0.2031334 
C    -1.3594585    4.8557533    0.9778964 
C     3.7709084    0.8887128    4.7035347 
H    -0.0166546   -1.3683858    2.2372300 
H    -2.7060327    1.0723679    0.9658751 
H    -3.4045381   -2.3101502   -0.2791775 
H    -0.5932615   -3.5177614   -2.0643521 
H    -0.8861525    2.3075635    3.2149918 
H     1.9040610    2.9657900    2.7261503 
H    -0.9334346    0.8847255   -1.8508444 
H    -1.2450095   -3.2304122    2.2330715 
H     0.5128120    2.6720984   -0.8759302 
H     2.0301262   -1.3794729    2.8315436 
H    -4.8425757    1.3084408    2.2599398 
H    -5.4014189   -1.3042953   -1.3811764 
H    -0.9381100   -5.9747847   -1.9453519 
H    -1.9806075    4.5373329    3.0346791 
H     3.6120757    3.0455952    4.5298396 
H    -2.9430071    1.9057837   -2.9342234 
H    -1.5736658   -5.6891465    2.3309964 
H    -0.5762025    4.9113100   -1.0473478 
H     3.7174505   -1.2813942    4.6401457 
H    -3.3200830   -1.6628362    5.0265523 
H    -5.1591328   -0.0846556    4.3491188 
H    -5.1785571    0.8076710   -2.6993565 
H    -1.4235588   -7.0712257    0.2547604 
H    -1.8346545    5.8397234    0.9070829 
H     4.5239007    0.9268595    5.4972383 
