87
Energy =
C     1.9443980    1.9319325   -2.2585853 
C     1.9551247    0.6591246   -2.9018502 
C     0.7726861    0.1739230   -3.5280013 
H     2.7909720   -0.0312302   -2.7313549 
Pd    0.3838136    0.6382729   -1.3847868 
P    -1.2228356   -0.8351048   -0.4918718 
P    -0.0016442    1.3267112    0.8120613 
H     1.2521221    2.6881493   -2.6601156 
H     0.0816216    0.9275238   -3.9374895 
C     4.9170728    3.5480582    0.4073887 
C     3.8118932    4.3165588    0.0065263 
C     2.8684019    3.7823251   -0.8783902 
C     2.9992876    2.4632017   -1.3735824 
C     4.1131526    1.6988753   -0.9547120 
C     5.0635812    2.2393920   -0.0811214 
H     5.6613171    3.9674335    1.0920899 
H     3.6878431    5.3382519    0.3800393 
H     2.0078821    4.3873027   -1.1847011 
H     4.2419987    0.6716419   -1.3103347 
H     5.9226471    1.6332162    0.2245314 
C     0.0202665   -3.8120260   -4.9638371 
C     0.9710776   -3.6061253   -3.9480686 
C     1.2422580   -2.3146653   -3.4875047 
C     0.5618837   -1.1975844   -4.0276670 
C    -0.3960163   -1.4197263   -5.0425510 
C    -0.6584354   -2.7135442   -5.5116473 
H    -0.1896975   -4.8248934   -5.3223770 
H     1.4962430   -4.4596620   -3.5071528 
H     1.9626521   -2.1762142   -2.6747043 
H    -0.9400053   -0.5672563   -5.4639744 
H    -1.4001194   -2.8638581   -6.3030085 
N    -2.7189610   -1.3256945    2.2042679 
C    -1.6451806    0.3910021    0.8806218 
C    -2.2997592   -0.0493093    2.1699709 
C     1.1439817    0.6911625    2.0743683 
C    -0.3059007    3.0860263    1.2003153 
C    -0.3872994   -2.3242050    0.1686589 
C    -2.7478889   -1.4134455   -1.2947894 
C    -2.4659096    0.8357538    3.2525344 
C     0.8914142   -0.4601193    2.8480942 
C    -0.0588175    3.6386851    2.4739135 
C     1.0218510   -2.3480028    0.2164984 
C    -2.5908830   -2.2836128   -2.3965682 
C     2.3945341    1.3440638    2.1739330 
C    -0.7981361    3.9060276    0.1631408 
C    -1.1206287   -3.4543793    0.5858909 
C    -4.0357949   -0.9994461   -0.9028234 
C    -3.0800958    0.3575058    4.4158933 
C     1.8762200   -0.9400533    3.7228213 
C    -0.3143760    4.9978690    2.7036531 
C     1.6925827   -3.4785050    0.7011657 
C    -3.7174825   -2.7337719   -3.0945378 
C     3.3692670    0.8566120    3.0515853 
C    -1.0598182    5.2609763    0.4025177 
C    -0.4439017   -4.5860149    1.0568855 
C    -5.1574020   -1.4537996   -1.6107406 
C    -3.3106758   -1.7751293    3.3237053 
C    -3.5098732   -0.9768541    4.4584449 
C     3.1119522   -0.2848957    3.8281567 
C    -0.8158674    5.8076298    1.6726418 
C     0.9596437   -4.5981894    1.1210767 
C    -5.0007330   -2.3181915   -2.7050621 
H    -2.3003144    1.1142126    0.3498740 
H    -2.1210146    1.8720272    3.1819013 
H    -0.0576016   -0.9953678    2.7656091 
H     0.3394355    3.0109648    3.2780481 
H     1.5898828   -1.4716041   -0.1208546 
H    -1.5918205   -2.6121228   -2.7033264 
H     2.6063180    2.2302139    1.5653274 
H    -0.9634993    3.4793371   -0.8342086 
H    -2.2126834   -3.4360092    0.5446877 
H    -4.1719536   -0.3445004   -0.0370125 
H    -3.2224960    1.0179535    5.2775288 
H     1.6733563   -1.8342851    4.3206656 
H    -0.1193214    5.4262066    3.6922264 
H     2.7864024   -3.4848518    0.7454769 
H    -3.5880078   -3.4081452   -3.9472016 
H     4.3342091    1.3690722    3.1201550 
H    -1.4433012    5.8937605   -0.4043933 
H    -1.0146128   -5.4637666    1.3776426 
H    -6.1582029   -1.1366452   -1.3000233 
H    -3.6372098   -2.8229493    3.3091844 
H    -3.9921107   -1.3901403    5.3494706 
H     3.8767477   -0.6653652    4.5131563 
H    -1.0109389    6.8690211    1.8572413 
H     1.4818290   -5.4862206    1.4925626 
H    -5.8805960   -2.6704953   -3.2532188 
