87
Energy =
C     2.3239920   -1.3015289   -2.4970491 
C     2.5483705    0.1024046   -2.5479708 
C     3.1890461    0.7580280   -1.4568766 
H     2.0340633    0.6960967   -3.3145048 
Pd    1.3956294   -0.3104755   -0.7311276 
P     0.6698770    0.7062261    1.2536072 
P    -0.5743957   -1.4268985   -0.1161551 
H     3.0481419   -1.9006031   -1.9226815 
H     3.8909903    0.1622469   -0.8525603 
C    -0.1579748   -3.6420021   -5.1187799 
C     0.9515167   -4.2173951   -4.4817648 
C     1.7594998   -3.4416049   -3.6398928 
C     1.4810968   -2.0721057   -3.4308804 
C     0.3622247   -1.5037192   -4.0844398 
C    -0.4491607   -2.2811990   -4.9155398 
H    -0.7964468   -4.2490318   -5.7686926 
H     1.1864965   -5.2756673   -4.6357824 
H     2.6167762   -3.8993981   -3.1342148 
H     0.1028813   -0.4543600   -3.9087206 
H    -1.3203856   -1.8285915   -5.4001011 
C     3.3484955    4.9994711   -0.7354934 
C     2.8616676    4.5261961   -1.9642762 
C     2.8251702    3.1516018   -2.2295219 
C     3.2798509    2.2201130   -1.2682540 
C     3.7925045    2.7127318   -0.0453488 
C     3.8187955    4.0855095    0.2209891 
H     3.3724373    6.0744605   -0.5301598 
H     2.5135515    5.2334185   -2.7245304 
H     2.4475109    2.8059054   -3.1974680 
H     4.1513998    2.0046796    0.7101245 
H     4.2111657    4.4443056    1.1783710 
N    -2.0697118   -1.1929545    3.4399738 
C    -0.5949501   -0.6650588    1.6171338 
C    -1.8985708   -0.4370593    2.3340476 
C    -2.0383050   -0.7716237   -0.9971652 
C    -0.8678418   -3.2162658    0.0568165 
C    -0.1552007    2.3267572    1.1764805 
C     1.8149662    0.7823687    2.6794258 
C    -2.8813177    0.4607606    1.8705179 
C    -3.2952482   -1.3994567   -0.8793459 
C    -0.7869302   -3.9888787   -1.1235456 
C    -0.0641285    3.0754528   -0.0130735 
C     2.3584696   -0.4116743    3.2015818 
C    -1.9171591    0.4173082   -1.7450239 
C    -1.1429637   -3.8373804    1.2929191 
C    -0.8519325    2.8512944    2.2883266 
C     2.2721523    2.0248151    3.1676513 
C    -4.0732090    0.5816182    2.5958293 
C    -4.4178463   -0.8323937   -1.4973531 
C    -0.9788863   -5.3737076   -1.0633278 
C    -0.6749849    4.3339146   -0.0981370 
C     3.3187621   -0.3621412    4.2188970 
C    -3.0449646    0.9854758   -2.3513795 
C    -1.3334942   -5.2269558    1.3384488 
C    -1.4666410    4.1056032    2.1927376 
C     3.2396809    2.0654076    4.1819294 
C    -3.2161157   -1.0683606    4.1256642 
C    -4.2475482   -0.1933111    3.7495003 
C    -4.2959369    0.3603923   -2.2276044 
C    -1.2492459   -5.9944667    0.1672054 
C    -1.3811643    4.8449519    1.0007615 
C     3.7609303    0.8763133    4.7115873 
H    -0.0150357   -1.3808327    2.2292897 
H    -2.7166114    1.0505125    0.9652361 
H    -3.3938985   -2.3260233   -0.3042965 
H    -0.5779203   -3.5085338   -2.0853802 
H     0.5089016    2.6815698   -0.8587797 
H     2.0401535   -1.3866272    2.8147055 
H    -0.9349374    0.8940886   -1.8433488 
H    -1.2343408   -3.2485931    2.2130922 
H    -0.9092389    2.2831646    3.2224843 
H     1.8767592    2.9581805    2.7557498 
H    -4.8542890    1.2715273    2.2600328 
H    -5.3923932   -1.3228124   -1.4055603 
H    -0.9132630   -5.9676193   -1.9808107 
H    -0.5880714    4.9176018   -1.0200994 
H     3.7257332   -1.2934012    4.6256934 
H    -2.9461973    1.9119548   -2.9263730 
H    -1.5540275   -5.7089826    2.2964706 
H    -2.0113098    4.5098664    3.0521481 
H     3.5838881    3.0334681    4.5605244 
H    -3.3164469   -1.7003558    5.0174722 
H    -5.1634574   -0.1292263    4.3450987 
H    -5.1765081    0.7998368   -2.7076629 
H    -1.3968726   -7.0784684    0.2124166 
H    -1.8596579    5.8276379    0.9344125 
H     4.5135896    0.9125074    5.5057006 
