87
Energy =
C     1.9298704    2.2003336   -2.1169750 
C     1.6669533    1.0821786   -2.9577995 
C     0.3425003    0.8496992   -3.4323126 
H     2.4272717    0.2966693   -3.0548167 
Pd    0.3465094    0.9146920   -1.2260208 
P    -1.4412331   -0.3659254   -0.4445682 
P     0.4518498    0.9789922    1.1257806 
H     1.2947525    3.0889619   -2.2583344 
H    -0.3019769    1.7325576   -3.5651985 
C     5.4995837    2.9785061    0.1563791 
C     5.1671346    1.6555027   -0.1862168 
C     4.0227660    1.3896959   -0.9433906 
C     3.1785008    2.4422201   -1.3699258 
C     3.5204921    3.7657980   -1.0123765 
C     4.6742411    4.0319868   -0.2634262 
H     6.3964320    3.1832404    0.7499446 
H     5.7998376    0.8269050    0.1483081 
H     3.7620060    0.3516060   -1.1740207 
H     2.8719762    4.5914922   -1.3251498 
H     4.9249990    5.0652444   -0.0019500 
C    -1.1873132   -2.7115726   -5.3115195 
C    -1.9974507   -1.5759389   -5.1474706 
C    -1.4751168   -0.4197199   -4.5570176 
C    -0.1353930   -0.3749406   -4.1032959 
C     0.6663892   -1.5279688   -4.2699811 
C     0.1469622   -2.6787523   -4.8740450 
H    -1.5911067   -3.6138837   -5.7819743 
H    -3.0386583   -1.5893473   -5.4858781 
H    -2.1144254    0.4607830   -4.4292077 
H     1.7057232   -1.5312456   -3.9264427 
H     0.7872818   -3.5578009   -5.0014635 
N    -1.1017563   -0.1467394    3.5909047 
C    -1.3555377    0.4481225    1.2607333 
C    -1.9088869   -0.1845747    2.5170833 
C     1.5782165   -0.3291680    1.7339332 
C     0.7508055    2.4423485    2.1618109 
C    -1.1513164   -2.1571672   -0.3113023 
C    -3.1228447   -0.1393420   -1.1229185 
C    -3.1945626   -0.7579402    2.5505567 
C     2.0953069   -1.2630769    0.8124200 
C    -0.2469299    3.0576805    2.9424884 
C    -1.2186599   -2.8946660   -1.5162442 
C    -4.0907471   -1.1645732   -1.1215884 
C     1.9660496   -0.3941981    3.0884875 
C     2.0503382    2.9942724    2.1139756 
C    -0.7600795   -2.7988152    0.8815154 
C    -3.4349488    1.1197138   -1.6782893 
C    -3.6409862   -1.3224140    3.7511456 
C     2.9699700   -2.2691707    1.2430891 
C     0.0559519    4.2178153    3.6690558 
C    -0.9151761   -4.2605899   -1.5174001 
C    -5.3609970   -0.9224258   -1.6635619 
C     2.8504265   -1.3945995    3.5100220 
C     2.3431174    4.1509175    2.8458527 
C    -0.4569190   -4.1674733    0.8677475 
C    -4.7092368    1.3575953   -2.2083309 
C    -1.5399470   -0.6879416    4.7400040 
C    -2.7978084   -1.2920434    4.8715060 
C     3.3479974   -2.3349318    2.5922108 
C     1.3471981    4.7653819    3.6215029 
C    -0.5353087   -4.8997212   -0.3259610 
C    -5.6720132    0.3353068   -2.2032061 
H    -1.8909402    1.3980554    1.0479082 
H    -3.8258529   -0.7611649    1.6564449 
H     1.8015553   -1.2016776   -0.2431879 
H    -1.2505092    2.6264936    3.0065049 
H    -1.5059566   -2.4016056   -2.4514230 
H    -3.8490909   -2.1487271   -0.7066780 
H     1.5680610    0.3332516    3.8005620 
H     2.8312651    2.5179902    1.5110490 
H    -0.6739300   -2.2411591    1.8171285 
H    -2.6710615    1.9072204   -1.7035253 
H    -4.6342649   -1.7790983    3.8118356 
H     3.3584308   -2.9970738    0.5235910 
H    -0.7190522    4.6905404    4.2811484 
H    -0.9699567   -4.8217993   -2.4557313 
H    -6.1104269   -1.7206462   -1.6647178 
H     3.1526251   -1.4422986    4.5614348 
H     3.3526007    4.5724793    2.8040430 
H    -0.1536926   -4.6594187    1.7974296 
H    -4.9483681    2.3365547   -2.6361547 
H    -0.8494681   -0.6361105    5.5916479 
H    -3.1080102   -1.7243207    5.8276443 
H     4.0380917   -3.1153846    2.9297857 
H     1.5778659    5.6707827    4.1922891 
H    -0.2969857   -5.9684021   -0.3293424 
H    -6.6650041    0.5179678   -2.6265631 
