87
Energy =
C     2.2930474    1.7874299   -2.1481217 
C     1.9974672    0.6053276   -2.8836304 
C     0.7026188    0.4340275   -3.4564677 
H     2.6844001   -0.2481907   -2.8216157 
Pd    0.5223303    0.7546856   -1.2796871 
P    -1.4345539   -0.2788612   -0.5367480 
P     0.4495948    1.0564423    1.0551721 
H     1.7589933    2.7038881   -2.4447768 
H     0.1621823    1.3476330   -3.7493915 
C     5.7109605    2.5228279    0.3604233 
C     5.2912825    1.2010350    0.1261204 
C     4.1967130    0.9456738   -0.7047582 
C     3.4899895    2.0088310   -1.3152762 
C     3.9179311    3.3321570   -1.0652652 
C     5.0227340    3.5862316   -0.2420451 
H     6.5686196    2.7193946    1.0118693 
H     5.8158576    0.3664334    0.6025729 
H     3.8648803   -0.0873563   -0.8510871 
H     3.3751948    4.1675391   -1.5211212 
H     5.3423316    4.6185986   -0.0660947 
C    -0.9875172   -3.1754568   -5.0905726 
C    -1.6874426   -1.9591621   -5.1487478 
C    -1.1124686   -0.7923403   -4.6325887 
C     0.1697091   -0.8150858   -4.0342483 
C     0.8588080   -2.0487927   -3.9757230 
C     0.2886554   -3.2120586   -4.5051969 
H    -1.4313281   -4.0874698   -5.5026783 
H    -2.6824061   -1.9183105   -5.6039236 
H    -1.6655739    0.1523104   -4.6800463 
H     1.8488937   -2.1056184   -3.5124249 
H     0.8426185   -4.1552815   -4.4569251 
N    -1.3690538    0.2787108    3.4692216 
C    -1.4030018    0.6935928    1.0864853 
C    -2.1049510    0.2388798    2.3453940 
C     1.4096512   -0.2710526    1.8726400 
C     0.7949196    2.5848094    1.9769557 
C    -1.3351529   -2.0655206   -0.2086242 
C    -3.0290344    0.0237729   -1.3762885 
C    -3.4484808   -0.1823188    2.3298430 
C     1.6985194   -0.2266681    3.2524201 
C     2.1364820    3.0272625    1.9883569 
C    -1.4122119   -2.9174275   -1.3348350 
C    -3.1612617    1.2205480   -2.1115949 
C     1.9031293   -1.3343858    1.0887736 
C    -0.2025914    3.3460430    2.6166822 
C    -1.0753380   -2.6105666    1.0654484 
C    -4.1035670   -0.8878492   -1.3212314 
C    -4.0330779   -0.5891504    3.5348591 
C     2.4623183   -1.2452126    3.8351932 
C     2.4706359    4.2209688    2.6383752 
C    -1.2490416   -4.2983573   -1.1786382 
C    -4.3630406    1.5122249   -2.7691747 
C     2.6557886   -2.3573011    1.6804007 
C     0.1423233    4.5417823    3.2622496 
C    -0.9122396   -3.9954667    1.2092722 
C    -5.3004057   -0.5933886   -1.9893248 
C    -1.9393501   -0.1104496    4.6218183 
C    -3.2648971   -0.5577730    4.7078826 
C     2.9362517   -2.3125338    3.0539235 
C     1.4752401    4.9805257    3.2734780 
C    -1.0003830   -4.8400615    0.0929383 
C    -5.4323183    0.6040717   -2.7096763 
H    -1.8320815    1.6579280    0.7400951 
H    -4.0183263   -0.1901453    1.3954439 
H     1.3183817    0.5996324    3.8585180 
H     2.9172360    2.4372403    1.4960383 
H    -1.5975779   -2.5021452   -2.3316610 
H    -2.3142098    1.9152298   -2.1749849 
H     1.6870946   -1.3596606    0.0130691 
H    -1.2412874    3.0025760    2.6349085 
H    -0.9837653   -1.9670148    1.9436744 
H    -4.0008117   -1.8263495   -0.7662883 
H    -5.0750161   -0.9248258    3.5584195 
H     2.6879937   -1.2076441    4.9060383 
H     3.5124965    4.5571451    2.6431314 
H    -1.3099575   -4.9488052   -2.0571141 
H    -4.4623336    2.4425449   -3.3377263 
H     3.0260930   -3.1848182    1.0667590 
H    -0.6334052    5.1282443    3.7652854 
H    -0.7111980   -4.4119312    2.2014329 
H    -6.1326584   -1.3036353   -1.9481046 
H    -1.3029918   -0.0627522    5.5148860 
H    -3.6836357   -0.8696422    5.6694782 
H     3.5315206   -3.1064595    3.5171937 
H     1.7385156    5.9145416    3.7804915 
H    -0.8720208   -5.9208796    0.2124457 
H    -6.3684385    0.8274361   -3.2316492 
