87
Energy =
C    -1.5108857    2.8468377   -0.8970994 
C    -1.5716852    2.0142548   -2.0535822 
C    -2.4406013    0.8907974   -2.0899847 
H    -0.7904527    2.1195644   -2.8170033 
Pd   -1.0567882    0.7441030   -0.3593216 
P    -0.5320940   -1.4965123    0.1103158 
P     0.4810494    0.7277176    1.4116110 
H    -2.4364648    2.9704515   -0.3142114 
H    -3.3364743    0.9239849   -1.4500284 
C     1.4170938    5.9586591   -0.3851778 
C     1.7706883    4.7663957   -1.0383210 
C     0.8312906    3.7433924   -1.1922060 
C    -0.4885896    3.8957386   -0.7059980 
C    -0.8225959    5.0864010   -0.0233952 
C     0.1208136    6.1112501    0.1292808 
H     2.1546683    6.7586145   -0.2637361 
H     2.7914145    4.6267364   -1.4087881 
H     1.1270435    2.7933316   -1.6486510 
H    -1.8368742    5.2155448    0.3712059 
H    -0.1592846    7.0340543    0.6480508 
C    -2.5471789   -2.1620320   -5.1272662 
C    -3.2886608   -2.2985000   -3.9434114 
C    -3.2543229   -1.2902462   -2.9750461 
C    -2.4698584   -0.1283002   -3.1586770 
C    -1.7317925   -0.0028750   -4.3579005 
C    -1.7746108   -1.0079547   -5.3316292 
H    -2.5767929   -2.9471716   -5.8894860 
H    -3.8966891   -3.1933706   -3.7761723 
H    -3.8338860   -1.4034831   -2.0515877 
H    -1.1332059    0.8946257   -4.5444765 
H    -1.2068282   -0.8858603   -6.2601363 
N     1.9614026    0.2014893   -1.1408867 
C     1.1547848   -0.9464172    0.8437923 
C     2.1330814   -0.8405643   -0.3013700 
C     1.8166017    1.9302598    1.7138141 
C    -0.1873590    0.3471601    3.0756058 
C    -0.1970291   -2.7580922   -1.1644337 
C    -1.4550282   -2.3282796    1.4501078 
C     3.1240718   -1.8171808   -0.5074022 
C     1.3951842    3.2036671    2.1537135 
C     0.6775511   -0.0118129    4.1304520 
C    -0.2751921   -4.1402486   -0.8967376 
C    -2.8630609   -2.2613502    1.3918851 
C     3.1885201    1.6709269    1.5289264 
C    -1.5793905    0.3619022    3.2848577 
C     0.1460157   -2.3064860   -2.4555726 
C    -0.8339177   -2.9912657    2.5266575 
C     3.9598712   -1.7005768   -1.6250997 
C     2.3390544    4.2034465    2.4108356 
C     0.1469465   -0.3742977    5.3745138 
C     0.0082668   -5.0597773   -1.9157215 
C    -3.6383716   -2.8546876    2.3957480 
C     4.1274414    2.6800624    1.7864610 
C    -2.1058027   -0.0041058    4.5313757 
C     0.4323698   -3.2321729   -3.4653251 
C    -1.6140302   -3.5705527    3.5363451 
C     2.7694297    0.3079459   -2.2063880 
C     3.7828950   -0.6166970   -2.4957104 
C     3.7056397    3.9446007    2.2235961 
C    -1.2439920   -0.3758912    5.5732644 
C     0.3645433   -4.6077734   -3.1964919 
C    -3.0140251   -3.5040131    3.4719858 
H     1.5363469   -1.5919473    1.6513436 
H     3.2283888   -2.6550040    0.1887758 
H     0.3284564    3.4140408    2.2879101 
H     1.7634204   -0.0007884    3.9797601 
H    -0.5621949   -4.4950867    0.0988051 
H    -3.3467295   -1.7299173    0.5643719 
H     3.5309629    0.6890110    1.1900532 
H    -2.2464504    0.6445628    2.4622071 
H     0.1755835   -1.2330949   -2.6651777 
H     0.2570099   -3.0465295    2.5939673 
H     4.7376919   -2.4475834   -1.8136206 
H     2.0040950    5.1898802    2.7452422 
H     0.8188579   -0.6521387    6.1932801 
H    -0.0530121   -6.1333946   -1.7095320 
H    -4.7306412   -2.8004381    2.3443413 
H     5.1938111    2.4743345    1.6468155 
H    -3.1892610   -0.0016192    4.6864793 
H     0.6906638   -2.8761899   -4.4673085 
H    -1.1253879   -4.0715188    4.3780000 
H     2.5993235    1.1744404   -2.8588892 
H     4.4163122   -0.4867648   -3.3783068 
H     4.4435006    4.7294814    2.4193675 
H    -1.6551478   -0.6617448    6.5470102 
H     0.5800046   -5.3317009   -3.9893403 
H    -3.6195217   -3.9556576    4.2644759 
