78
Energy =
C     1.2487042   -0.4353076   -2.7895805 
C     2.2358444    0.2917586   -2.0666162 
C     2.9185809   -0.3104379   -0.9725958 
H     2.2840051    1.3810379   -2.1854208 
Pd    0.7302201   -0.4192695   -0.6355390 
P     0.3018647   -0.5697779    1.6615502 
P    -1.5787806   -0.7284733   -0.3946721 
H     1.3566396   -1.5301885   -2.8357645 
H     3.0489115   -1.4034996   -0.9958958 
C    -1.7076968    1.1751047   -5.4728561 
C    -1.7188218   -0.1829377   -5.1160823 
C    -0.7264743   -0.6963556   -4.2747886 
C     0.2898173    0.1397527   -3.7547756 
C     0.2972274    1.5022924   -4.1327698 
C    -0.6902105    2.0114022   -4.9854144 
H    -2.4806635    1.5778877   -6.1352093 
H    -2.5037294   -0.8458353   -5.4944373 
H    -0.7506372   -1.7539313   -3.9897930 
H     1.0793826    2.1736804   -3.7641750 
H    -0.6636694    3.0675485   -5.2734691 
C     5.2237329    1.6881712    2.0648232 
C     4.9686777    0.3093941    2.1411086 
C     4.2519768   -0.3294999    1.1240779 
C     3.7560984    0.3980729    0.0162660 
C     4.0310813    1.7832993   -0.0544398 
C     4.7604719    2.4184903    0.9582682 
H     5.7888178    2.1893458    2.8572440 
H     5.3293637   -0.2713328    2.9962708 
H     4.0456825   -1.4028433    1.1979786 
H     3.6768742    2.3742992   -0.9050868 
H     4.9701426    3.4905792    0.8823571 
C    -1.4018968   -1.3038735    1.3827098 
C     1.2558506   -1.6637227    2.7694794 
C     0.1131619    1.0307338    2.5082273 
C    -2.5780596    0.7932389   -0.4095123 
C    -2.4927758   -1.9899922   -1.3477419 
C     1.6751977   -2.9120007    2.2603861 
C    -1.0158729    1.3761956    3.2764824 
C    -3.5554586    1.0836657    0.5630625 
C    -1.8571355   -3.2289901   -1.5806469 
C     1.6443127   -1.2666462    4.0636009 
C     1.1824268    1.9442742    2.3783890 
C    -2.3579455    1.6909361   -1.4764631 
C    -3.7505891   -1.7272024   -1.9239837 
C     2.4556046   -3.7647079    3.0497756 
C    -1.0746925    2.6276213    3.9055604 
C    -4.2994022    2.2679433    0.4714627 
C    -2.4868982   -4.2041717   -2.3625147 
C     2.4359822   -2.1218072    4.8443349 
C     1.1200289    3.1875106    3.0189151 
C    -3.1136360    2.8664322   -1.5666394 
C    -4.3703123   -2.7054217   -2.7156953 
C     2.8389920   -3.3680253    4.3421259 
C    -0.0092082    3.5319753    3.7786426 
C    -4.0798936    3.1582538   -0.5913260 
C    -3.7436110   -3.9411197   -2.9335488 
H    -1.2782312   -2.4014872    1.3573530 
H    -2.2054670   -1.0622653    2.0988452 
H     1.4025262   -3.2071570    1.2391590 
H    -1.8491420    0.6764216    3.3927420 
H    -3.7463953    0.3900326    1.3881621 
H    -0.8615275   -3.4226808   -1.1614772 
H     1.3353119   -0.2924639    4.4561825 
H     2.0607232    1.6802130    1.7796522 
H    -1.6000767    1.4664524   -2.2347710 
H    -4.2396885   -0.7614280   -1.7607648 
H     2.7755780   -4.7342842    2.6546112 
H    -1.9547393    2.8950128    4.4993797 
H    -5.0558018    2.4937959    1.2301233 
H    -1.9940339   -5.1660632   -2.5371105 
H     2.7375344   -1.8115887    5.8500643 
H     1.9542256    3.8892214    2.9176290 
H    -2.9414772    3.5565342   -2.3988936 
H    -5.3481055   -2.4992766   -3.1630484 
H     3.4574153   -4.0311691    4.9556671 
H    -0.0602178    4.5077108    4.2726757 
H    -4.6646454    4.0814636   -0.6586208 
H    -4.2313694   -4.7005207   -3.5532053 
