78
Energy =
C     1.2869308   -0.3798588   -2.7815171 
C     2.2361350    0.3431166   -2.0091457 
C     2.9175024   -0.2882171   -0.9273968 
H     2.2586763    1.4371501   -2.0852045 
Pd    0.7320065   -0.4746154   -0.6355297 
P     0.2910420   -0.5556284    1.6553247 
P    -1.5922109   -0.7395486   -0.4229363 
H     1.4157124   -1.4711305   -2.8580423 
H     3.1073187   -1.3690408   -1.0173447 
C    -1.6405876    1.2936972   -5.4568558 
C    -1.6962837   -0.0577131   -5.0791451 
C    -0.7138502   -0.5940966   -4.2407496 
C     0.3380681    0.2126669   -3.7468658 
C     0.3932474    1.5664995   -4.1492561 
C    -0.5868405    2.0989734   -4.9963946 
H    -2.4063697    1.7141110   -6.1165821 
H    -2.5087330   -0.6974798   -5.4392518 
H    -0.7725709   -1.6454137   -3.9370739 
H     1.2112565    2.2101691   -3.8094736 
H    -0.5236269    3.1477926   -5.3048223 
C     5.2276333    1.6224053    2.1656444 
C     4.5088485    2.4098877    1.2514805 
C     3.7549235    1.8081201    0.2382321 
C     3.7179887    0.4005781    0.1038359 
C     4.4501150   -0.3792329    1.0297280 
C     5.1911915    0.2232790    2.0526736 
H     5.8148330    2.0963432    2.9588693 
H     4.5288880    3.5014661    1.3335344 
H     3.1864199    2.4432519   -0.4484385 
H     4.4316736   -1.4712893    0.9448391 
H     5.7491166   -0.4004558    2.7586513 
C    -1.4823991   -1.1205590    1.4147784 
C     1.1214723   -1.6985299    2.8083733 
C     0.2802678    1.0890638    2.4348029 
C    -2.5864470    0.7804927   -0.5849868 
C    -2.5270857   -2.0752828   -1.2474243 
C     1.0097061   -1.5606537    4.2078618 
C    -0.8562916    1.9239781    2.4203212 
C    -3.8256951    0.9200718    0.0770378 
C    -3.5452160   -1.7756715   -2.1756992 
C     1.8785708   -2.7552209    2.2625112 
C     1.5033034    1.5769211    2.9473634 
C    -2.0939427    1.8286626   -1.3865300 
C    -2.1324926   -3.4166040   -1.0500396 
C     1.6501972   -2.4803979    5.0483085 
C    -0.7731346    3.2243438    2.9366054 
C    -4.5536436    2.1094918   -0.0536452 
C    -4.1745147   -2.8125180   -2.8799774 
C     2.5123313   -3.6743306    3.1096571 
C     1.5739561    2.8763966    3.4627952 
C    -2.8335328    3.0122057   -1.5208749 
C    -2.7719782   -4.4459332   -1.7511343 
C     2.3990250   -3.5353584    4.5014269 
C     0.4381033    3.7012726    3.4601832 
C    -4.0571309    3.1553380   -0.8507099 
C    -3.7933327   -4.1452399   -2.6675976 
H    -1.4938331   -2.2159370    1.5541609 
H    -2.2524922   -0.6729208    2.0667827 
H     0.4337106   -0.7332253    4.6359701 
H    -1.8053849    1.5764447    2.0011027 
H    -4.2251026    0.1015516    0.6868836 
H    -3.8436436   -0.7369139   -2.3490348 
H     1.9742563   -2.8454230    1.1738035 
H     2.3977836    0.9440082    2.9421516 
H    -1.1391967    1.7118763   -1.9096096 
H    -1.3215047   -3.6616891   -0.3536224 
H     1.5656379   -2.3731858    6.1346162 
H    -1.6605222    3.8655177    2.9279563 
H    -5.5130799    2.2197401    0.4621643 
H    -4.9685525   -2.5751732   -3.5955622 
H     3.1014580   -4.4933337    2.6844616 
H     2.5244748    3.2451796    3.8613649 
H    -2.4499970    3.8218247   -2.1498814 
H    -2.4696209   -5.4851915   -1.5866392 
H     2.8997139   -4.2489794    5.1638939 
H     0.4976294    4.7173545    3.8635540 
H    -4.6311830    4.0823207   -0.9511593 
H    -4.2891011   -4.9515711   -3.2175515 
