78
Energy =
C     1.2967308    0.0457244   -2.7254435 
C     2.1969610    0.9042460   -2.0301905 
C     3.0024255    0.3751025   -0.9827985 
H     2.1314869    1.9904043   -2.1701185 
Pd    0.8320424    0.0153462   -0.5687304 
P     0.2973413   -0.1290911    1.7298061 
P    -1.4835707   -0.2741297   -0.4164013 
H     1.5841912   -1.0161333   -2.7900024 
H     3.2730938   -0.6900415   -1.0545558 
C    -1.7520925    1.1614183   -5.5474068 
C    -1.2933875   -0.1621356   -5.4724548 
C    -0.2967670   -0.5067960   -4.5521553 
C     0.2642558    0.4638089   -3.6904584 
C    -0.2185349    1.7906219   -3.7688518 
C    -1.2108364    2.1342323   -4.6913470 
H    -2.5316633    1.4345035   -6.2657191 
H    -1.7091265   -0.9270257   -6.1364491 
H     0.0644572   -1.5407540   -4.5034652 
H     0.1732782    2.5579748   -3.0931582 
H    -1.5747938    3.1653698   -4.7352919 
C     5.4908196    2.6162724    1.7194268 
C     4.4274476    3.2569771    1.0612565 
C     3.6099773    2.5428959    0.1799170 
C     3.8441352    1.1703280   -0.0712153 
C     4.9122846    0.5364555    0.6047603 
C     5.7275583    1.2519019    1.4909190 
H     6.1294388    3.1783937    2.4085827 
H     4.2299674    4.3181030    1.2446029 
H     2.7681665    3.0515547   -0.3019323 
H     5.1046255   -0.5276596    0.4265579 
H     6.5536939    0.7443194    1.9994850 
C    -1.5159435    0.2263510    1.3863909 
C     0.2966531   -1.8212634    2.4327429 
C     0.8463424    0.9981674    3.0528065 
C    -2.6344574    0.7957502   -1.3447114 
C    -2.1116437   -1.9828363   -0.5260042 
C     0.5389794   -2.9138910    1.5767993 
C     2.2346578    1.1974408    3.2063189 
C    -2.5492929    2.1964083   -1.1878385 
C    -1.4555300   -2.8778091   -1.3957169 
C    -0.0047647   -2.0476290    3.7915683 
C    -0.0576221    1.6570426    3.9128450 
C    -3.5265893    0.2501101   -2.2886544 
C    -3.2139230   -2.4250139    0.2331153 
C     0.4516280   -4.2236412    2.0671919 
C     2.7103223    2.0405000    4.2182922 
C    -3.3805108    3.0367102   -1.9370788 
C    -1.8931323   -4.2048658   -1.4993892 
C    -0.0802271   -3.3592514    4.2781021 
C     0.4279093    2.5006807    4.9217240 
C    -4.3428584    1.1002259   -3.0471286 
C    -3.6407755   -3.7554599    0.1329680 
C     0.1410289   -4.4463672    3.4167957 
C     1.8099311    2.6921195    5.0749958 
C    -4.2776809    2.4895005   -2.8682976 
C    -2.9808297   -4.6450545   -0.7299882 
H    -2.2476805   -0.2871276    2.0323400 
H    -1.6819054    1.3171894    1.4349157 
H     0.7899022   -2.7347975    0.5247491 
H     2.9419138    0.7028974    2.5323468 
H    -1.8303875    2.6346274   -0.4853952 
H    -0.5988785   -2.5294589   -1.9836174 
H    -0.1719790   -1.2020849    4.4680158 
H    -1.1381287    1.5119250    3.8057530 
H    -3.5861502   -0.8340063   -2.4278572 
H    -3.7413918   -1.7360403    0.9015784 
H     0.6323065   -5.0689057    1.3954402 
H     3.7884938    2.1943415    4.3261106 
H    -3.3214185    4.1215088   -1.8014586 
H    -1.3814029   -4.8971319   -2.1757938 
H    -0.3100208   -3.5336625    5.3343201 
H    -0.2754162    3.0083656    5.5898259 
H    -5.0354865    0.6720153   -3.7787503 
H    -4.4919833   -4.0990673    0.7295094 
H     0.0798726   -5.4692857    3.8024807 
H     2.1845751    3.3544086    5.8622509 
H    -4.9226837    3.1484801   -3.4584871 
H    -3.3174275   -5.6843028   -0.8032944 
