78
Energy =
C     1.3777667   -0.6157669   -2.7926006 
C     2.2518211    0.2427379   -2.0695521 
C     2.9561652   -0.2595315   -0.9352067 
H     2.2121301    1.3241383   -2.2512109 
Pd    0.7862719   -0.5437125   -0.6501790 
P     0.3075576   -0.6105444    1.6468041 
P    -1.5406905   -0.7888792   -0.4327315 
H     1.6275550   -1.6884630   -2.7984699 
H     3.2072213   -1.3316640   -0.9388867 
C    -1.5082062    0.4871348   -5.7881092 
C    -1.0666923    1.4486135   -4.8611097 
C    -0.1156679    1.1112303   -3.8938870 
C     0.4133802   -0.1996652   -3.8278453 
C    -0.0453058   -1.1574241   -4.7603448 
C    -0.9911676   -0.8155219   -5.7356457 
H    -2.2520306    0.7555722   -6.5452255 
H    -1.4720742    2.4652420   -4.8915516 
H     0.1980139    1.8657445   -3.1649738 
H     0.3460553   -2.1797895   -4.7169360 
H    -1.3280786   -1.5707841   -6.4531692 
C     5.0813164    2.0100254    2.0444114 
C     5.0758310    0.6058430    2.0739987 
C     4.4002374   -0.1147973    1.0828738 
C     3.7026389    0.5503692    0.0468929 
C     3.7133107    1.9645736    0.0327398 
C     4.4012614    2.6838513    1.0166340 
H     5.6166246    2.5755671    2.8139082 
H     5.6044846    0.0703791    2.8692516 
H     4.3977311   -1.2099103    1.1145342 
H     3.1803131    2.5126669   -0.7506682 
H     4.4042660    3.7782948    0.9832796 
C    -1.3992625   -1.3350303    1.3550884 
C     1.2355993   -1.6975601    2.7816299 
C     0.1302681    1.0011169    2.4740053 
C    -2.3854522    0.8353156   -0.3822278 
C    -2.6571526   -1.8984879   -1.3466554 
C     1.9384905   -2.7860978    2.2239106 
C    -1.1136565    1.5894934    2.7755632 
C    -3.7794618    0.9136986   -0.1802389 
C    -2.9119204   -1.5620700   -2.6955280 
C     1.2731112   -1.4725704    4.1727582 
C     1.3249964    1.7086208    2.7392478 
C    -1.6247561    2.0159966   -0.4920873 
C    -3.2115307   -3.0718355   -0.7978878 
C     2.6606271   -3.6531037    3.0538954 
C    -1.1598001    2.8706143    3.3434384 
C    -4.3978129    2.1663182   -0.0757839 
C    -3.7205581   -2.3927735   -3.4791618 
C     2.0053657   -2.3393820    4.9955012 
C     1.2683828    2.9853890    3.3084572 
C    -2.2491728    3.2660918   -0.3869109 
C    -4.0223818   -3.8964302   -1.5916635 
C     2.6958941   -3.4277206    4.4392547 
C     0.0269446    3.5691936    3.6097001 
C    -3.6339040    3.3413012   -0.1770612 
C    -4.2760152   -3.5597038   -2.9297301 
H    -1.2572816   -2.4308517    1.3741247 
H    -2.2153785   -1.0614912    2.0458276 
H     1.9247228   -2.9428944    1.1381532 
H    -2.0505091    1.0676916    2.5598887 
H    -4.3784790   -0.0014108   -0.1126807 
H    -2.4808172   -0.6529000   -3.1297601 
H     0.7402200   -0.6203530    4.6075868 
H     2.2962848    1.2605580    2.5027867 
H    -0.5405925    1.9473111   -0.6426312 
H    -3.0258485   -3.3449838    0.2461627 
H     3.2046604   -4.4981446    2.6196623 
H    -2.1295172    3.3229229    3.5742716 
H    -5.4798672    2.2267001    0.0802815 
H    -3.9125129   -2.1271873   -4.5237413 
H     2.0366913   -2.1638608    6.0757317 
H     2.1990006    3.5253084    3.5107781 
H    -1.6530559    4.1807483   -0.4664648 
H    -4.4588100   -4.8031326   -1.1604577 
H     3.2680824   -4.0997378    5.0871488 
H    -0.0150273    4.5699660    4.0518323 
H    -4.1229277    4.3177647   -0.0975979 
H    -4.9079192   -4.2079374   -3.5454419 
