78
Energy =
C     1.2490502   -0.4441098   -2.7700167 
C     2.2057236    0.3260464   -2.0452994 
C     2.9221139   -0.2518670   -0.9622738 
H     2.2060223    1.4170493   -2.1586717 
Pd    0.7410292   -0.4708825   -0.6184645 
P     0.3010939   -0.5657297    1.6860625 
P    -1.5708699   -0.7070176   -0.4051326 
H     1.4346772   -1.5264767   -2.8507169 
H     3.0887694   -1.3404046   -0.9837423 
C    -1.7158955    1.0115368   -5.5348674 
C    -1.5137432   -0.3660504   -5.3528038 
C    -0.5323312   -0.8201609   -4.4644706 
C     0.2609163    0.0903350   -3.7275314 
C     0.0372258    1.4745733   -3.9129641 
C    -0.9332028    1.9275191   -4.8132225 
H    -2.4760786    1.3690796   -6.2369506 
H    -2.1172239   -1.0891766   -5.9110736 
H    -0.3774958   -1.8965289   -4.3318682 
H     0.6202967    2.2084308   -3.3476885 
H    -1.0851504    3.0035152   -4.9467674 
C     5.1352813    1.8649158    2.0622899 
C     4.7383836    2.5414182    0.8979576 
C     4.0441185    1.8641895   -0.1125788 
C     3.7346293    0.4917114    0.0227208 
C     4.1657016   -0.1839452    1.1884947 
C     4.8503095    0.4967229    2.2002374 
H     5.6746088    2.3983552    2.8515843 
H     4.9768946    3.6028253    0.7726939 
H     3.7516549    2.4092869   -1.0160954 
H     3.9325182   -1.2477984    1.3102893 
H     5.1625051   -0.0431979    3.1002621 
C    -1.4795739   -1.1100757    1.4256344 
C     1.1221518   -1.7519280    2.8070837 
C     0.2412515    1.0350575    2.5567522 
C    -2.4695755    0.8614438   -0.6162268 
C    -2.5340217   -2.0067912   -1.2468626 
C     1.8907740   -1.3026267    3.9001821 
C    -0.5655711    1.2192410    3.7006345 
C    -2.6516431    1.7761949    0.4416960 
C    -3.9421914   -1.9680095   -1.3193582 
C     1.0924026   -3.1277325    2.4904402 
C     1.0210250    2.1002784    2.0655557 
C    -2.8720595    1.2120162   -1.9246361 
C    -1.8283390   -3.0842247   -1.8206295 
C     2.6029821   -2.2267098    4.6787432 
C    -0.5989813    2.4680260    4.3339949 
C    -3.2533648    3.0176935    0.1944943 
C    -4.6321925   -3.0057828   -1.9593919 
C     1.7992500   -4.0439938    3.2782077 
C     0.9901074    3.3443556    2.7112886 
C    -3.4742328    2.4536357   -2.1592715 
C    -2.5258291   -4.1218686   -2.4534616 
C     2.5563516   -3.5944890    4.3729097 
C     0.1770482    3.5301005    3.8387699 
C    -3.6676986    3.3571102   -1.1023544 
C    -3.9268339   -4.0809523   -2.5240749 
H    -1.5328167   -2.2093908    1.5164266 
H    -2.2438829   -0.6635884    2.0852401 
H     1.9349396   -0.2356545    4.1404450 
H    -1.1604562    0.3900269    4.1004628 
H    -2.3199437    1.5368418    1.4565399 
H    -4.4934240   -1.1264451   -0.8863291 
H     0.5232702   -3.4868366    1.6243572 
H     1.6563106    1.9503911    1.1863811 
H    -2.7144215    0.5175341   -2.7573841 
H    -0.7325517   -3.0979543   -1.7760976 
H     3.1944871   -1.8735965    5.5298006 
H    -1.2269719    2.6126405    5.2191534 
H    -3.3970794    3.7209586    1.0211470 
H    -5.7250539   -2.9753661   -2.0180718 
H     1.7647037   -5.1108068    3.0347486 
H     1.6026841    4.1674575    2.3299391 
H    -3.7863807    2.7155788   -3.1753110 
H    -1.9764187   -4.9572639   -2.8994813 
H     3.1120759   -4.3123220    4.9847282 
H     0.1488742    4.5037319    4.3389515 
H    -4.1387237    4.3274447   -1.2900264 
H    -4.4719890   -4.8875141   -3.0251311 
