78
Energy =
C     1.3668951   -0.5622184   -2.8082061 
C     2.2330385    0.2937441   -2.0731346 
C     2.9517363   -0.2221890   -0.9537709 
H     2.1785933    1.3778288   -2.2340334 
Pd    0.7866953   -0.5378145   -0.6606271 
P     0.3189443   -0.6386555    1.6378309 
P    -1.5405629   -0.7836151   -0.4382202 
H     1.6313259   -1.6311087   -2.8360241 
H     3.2184951   -1.2901093   -0.9828375 
C    -1.5481159    0.5594827   -5.7682182 
C    -1.0013189   -0.7320207   -5.7539400 
C    -0.0461518   -1.0801178   -4.7899033 
C     0.3923041   -0.1390848   -3.8310288 
C    -0.1661214    1.1609219   -3.8590570 
C    -1.1267833    1.5039377   -4.8147223 
H    -2.2997771    0.8321816   -6.5160110 
H    -1.3222348   -1.4738193   -6.4925347 
H     0.3683535   -2.0941563   -4.7761580 
H     0.1308493    1.9006477   -3.1083904 
H    -1.5560921    2.5111473   -4.8146786 
C     5.0840188    2.0161139    2.0443727 
C     5.1107629    0.6119089    2.0366552 
C     4.4302408   -0.0979912    1.0410382 
C     3.6963650    0.5777936    0.0375752 
C     3.6732732    1.9917491    0.0622422 
C     4.3658661    2.7007040    1.0502102 
H     5.6233545    2.5734903    2.8170174 
H     5.6689530    0.0682929    2.8057663 
H     4.4541788   -1.1933108    1.0426268 
H     3.1095685    2.5476483   -0.6937323 
H     4.3421717    3.7953860    1.0468763 
C    -1.3966191   -1.3421298    1.3456131 
C     1.2414281   -1.7539613    2.7495126 
C     0.1613315    0.9571259    2.4996967 
C    -2.3795432    0.8439260   -0.3802943 
C    -2.6644969   -1.8848086   -1.3534108 
C     1.2343669   -1.5876343    4.1496183 
C     1.3654044    1.6342254    2.7995208 
C    -3.7784642    0.9273201   -0.2187189 
C    -2.9045788   -1.5546476   -2.7065033 
C     1.9799330   -2.8053405    2.1676747 
C    -1.0753549    1.5632973    2.7961466 
C    -1.6100224    2.0223100   -0.4488701 
C    -3.2438772   -3.0433107   -0.7990167 
C     1.9576494   -2.4761219    4.9566376 
C     1.3250302    2.8981422    3.3980363 
C    -4.3933107    2.1818068   -0.1142993 
C    -3.7227101   -2.3769713   -3.4890517 
C     2.6946034   -3.6937109    2.9817341 
C    -1.1050810    2.8310889    3.3943173 
C    -2.2307297    3.2740596   -0.3427179 
C    -4.0639726   -3.8597557   -1.5917931 
C     2.6846425   -3.5274076    4.3756177 
C     0.0909112    3.4991971    3.6951485 
C    -3.6209583    3.3539391   -0.1743584 
C    -4.3025697   -3.5294095   -2.9341791 
H    -1.2668994   -2.4395807    1.3561427 
H    -2.2068701   -1.0644042    2.0415054 
H     0.6741436   -0.7633070    4.6036288 
H     2.3314033    1.1725352    2.5672929 
H    -4.3840253    0.0147923   -0.1831731 
H    -2.4551557   -0.6564023   -3.1446655 
H     1.9988720   -2.9164147    1.0764718 
H    -2.0188704    1.0656386    2.5540651 
H    -0.5221581    1.9503344   -0.5690635 
H    -3.0706373   -3.3110633    0.2485625 
H     1.9542894   -2.3465370    6.0437879 
H     2.2628867    3.4144782    3.6265910 
H    -5.4793283    2.2456817    0.0094941 
H    -3.9032007   -2.1159998   -4.5368495 
H     3.2671647   -4.5095664    2.5287647 
H    -2.0691753    3.2968434    3.6220279 
H    -1.6275995    4.1863769   -0.3898057 
H    -4.5192772   -4.7551116   -1.1564120 
H     3.2499638   -4.2164726    5.0115320 
H     0.0618355    4.4895300    4.1611755 
H    -4.1072079    4.3318076   -0.0951886 
H    -4.9419914   -4.1711547   -3.5489276 
