78
Energy =
C     1.3367283   -0.5403272   -2.8419795 
C     2.2126787    0.3144292   -2.1168796 
C     2.9443442   -0.2015628   -1.0063988 
H     2.1548536    1.3987282   -2.2749389 
Pd    0.7845574   -0.5195687   -0.6870224 
P     0.3534807   -0.6499248    1.6180156 
P    -1.5339772   -0.8068575   -0.4240777 
H     1.6007691   -1.6090596   -2.8762214 
H     3.2068983   -1.2705280   -1.0349276 
C    -1.6166688    0.5902831   -5.7603594 
C    -1.0729068   -0.7025134   -5.7543715 
C    -0.1052685   -1.0534963   -4.8039005 
C     0.3484966   -0.1143010   -3.8504096 
C    -0.2076065    1.1869006   -3.8695224 
C    -1.1801421    1.5330127   -4.8119502 
H    -2.3776829    0.8654365   -6.4977104 
H    -1.4057649   -1.4430804   -6.4888990 
H     0.3071707   -2.0684377   -4.7967081 
H     0.1012684    1.9252941   -3.1221874 
H    -1.6067769    2.5413437   -4.8057524 
C     5.0862718    2.0366508    1.9847732 
C     5.0787526    0.6322088    2.0009854 
C     4.3994757   -0.0779206    1.0049574 
C     3.6990697    0.5982263   -0.0220918 
C     3.7139308    2.0123861   -0.0244499 
C     4.4058543    2.7212629    0.9643987 
H     5.6241191    2.5940647    2.7584006 
H     5.6080211    0.0883417    2.7900960 
H     4.3941288   -1.1732429    1.0271562 
H     3.1820197    2.5687200   -0.8027373 
H     4.4123527    3.8159542    0.9402015 
C    -1.3388699   -1.4115100    1.3396380 
C     1.3323243   -1.7362653    2.7099722 
C     0.1466247    0.9382532    2.4832385 
C    -2.3962004    0.8037791   -0.2918709 
C    -2.6632099   -1.8997866   -1.3421975 
C     2.0149891   -2.8204220    2.1190908 
C    -1.1043642    1.4599471    2.8666410 
C    -3.7837964    0.8567290   -0.0434837 
C    -2.9300106   -1.5446459   -2.6838107 
C     1.4334804   -1.5117933    4.0977512 
C     1.3199019    1.6968931    2.6974579 
C    -1.6534857    1.9973810   -0.3836009 
C    -3.2239804   -3.0733320   -0.8003175 
C     2.7795511   -3.6838449    2.9137792 
C    -1.1785276    2.7263128    3.4637575 
C    -4.4131834    2.0966399    0.1262629 
C    -3.7563286   -2.3575695   -3.4676315 
C     2.2085482   -2.3747989    4.8847933 
C     1.2358497    2.9584622    3.2965671 
C    -2.2888195    3.2346486   -0.2127754 
C    -4.0525833   -3.8800573   -1.5941931 
C     2.8783947   -3.4588734    4.2963176 
C    -0.0127308    3.4760435    3.6786371 
C    -3.6667331    3.2842608    0.0441577 
C    -4.3177964   -3.5249704   -2.9252542 
H    -1.1671930   -2.5030368    1.3147964 
H    -2.1458237   -1.1857534    2.0578812 
H     1.9527062   -2.9766877    1.0348535 
H    -2.0262616    0.8979654    2.6915624 
H    -4.3694703   -0.0679772    0.0095195 
H    -2.4946269   -0.6347673   -3.1121423 
H     0.9162708   -0.6631466    4.5576159 
H     2.2959449    1.3003901    2.3977096 
H    -0.5740381    1.9483221   -0.5710997 
H    -3.0292550   -3.3601481    0.2384567 
H     3.3072694   -4.5257274    2.4540224 
H    -2.1538169    3.1272147    3.7574716 
H    -5.4903494    2.1374131    0.3183429 
H    -3.9574862   -2.0776952   -4.5067402 
H     2.2892023   -2.1994597    5.9624953 
H     2.1500707    3.5384821    3.4587686 
H    -1.7063405    4.1591928   -0.2774614 
H    -4.4937128   -4.7871451   -1.1686041 
H     3.4839567   -4.1280168    4.9162355 
H    -0.0767226    4.4652183    4.1436478 
H    -4.1642992    4.2507877    0.1753430 
H    -4.9635164   -4.1593285   -3.5410900 
