78
Energy =
C     1.1771207   -0.3802905   -2.8074292 
C     2.1388938    0.4001725   -2.0999916 
C     2.8963505   -0.1771875   -1.0453198 
H     2.1163633    1.4922107   -2.2009253 
Pd    0.7296823   -0.4402170   -0.6425905 
P     0.3549399   -0.5617545    1.6725282 
P    -1.5699688   -0.7280996   -0.3711842 
H     1.3855919   -1.4564508   -2.9118273 
H     3.0789408   -1.2627740   -1.0832896 
C    -1.8841037    1.0543829   -5.4763831 
C    -1.6191851   -0.3190848   -5.3552207 
C    -0.6090291   -0.7660149   -4.4957421 
C     0.1521121    0.1472241   -3.7292882 
C    -0.1361175    1.5266152   -3.8518691 
C    -1.1358135    1.9731977   -4.7224617 
H    -2.6672065    1.4068664   -6.1554794 
H    -2.1957369   -1.0441420   -5.9388873 
H    -0.4041095   -1.8389316   -4.4116656 
H     0.4172287    2.2606218   -3.2574824 
H    -1.3388517    3.0457472   -4.8063145 
C     5.1601355    1.9452687    1.9371546 
C     4.8923841    0.5734014    2.0741545 
C     4.1915911   -0.1089176    1.0747823 
C     3.7261001    0.5687573   -0.0765954 
C     4.0187779    1.9448786   -0.2119023 
C     4.7298224    2.6237906    0.7859721 
H     5.7120696    2.4800268    2.7167818 
H     5.2306267    0.0321191    2.9639015 
H     3.9718285   -1.1756741    1.1961485 
H     3.6996834    2.4914677   -1.1054102 
H     4.9549081    3.6881456    0.6608883 
C    -1.4261935   -1.1247530    1.4579456 
C     1.2220140   -1.7567745    2.7491273 
C     0.3073437    1.0242997    2.5706956 
C    -2.5155558    0.8160079   -0.5601019 
C    -2.5245075   -2.0517087   -1.1846184 
C     1.2130821   -3.1243243    2.3973009 
C    -0.4906467    1.1942753    3.7228785 
C    -2.6434043    1.7503972    0.4889734 
C    -3.9347238   -2.0818717   -1.1519990 
C     1.9989687   -1.3206351    3.8414377 
C     1.0947567    2.0913745    2.0954165 
C    -3.0120828    1.1304957   -1.8447392 
C    -1.8128100   -3.0756422   -1.8419782 
C     1.9493026   -4.0466739    3.1502556 
C    -0.5075946    2.4307990    4.3806949 
C    -3.2860856    2.9742775    0.2584179 
C    -4.6200296   -3.1349063   -1.7712392 
C     2.7409550   -2.2504701    4.5846636 
C     1.0810101    3.3224139    2.7660911 
C    -3.6546779    2.3550231   -2.0627024 
C    -2.5053486   -4.1281547   -2.4560055 
C     2.7151379   -3.6106344    4.2443715 
C     0.2767679    3.4942663    3.9021476 
C    -3.7950201    3.2771046   -1.0137475 
C    -3.9077687   -4.1563256   -2.4212279 
H    -1.4674368   -2.2238639    1.5566241 
H    -2.1778185   -0.6803421    2.1332484 
H     0.6370352   -3.4714035    1.5307751 
H    -1.0913307    0.3636711    4.1107960 
H    -2.2380613    1.5394418    1.4833872 
H    -4.4918913   -1.2810353   -0.6539149 
H     2.0263314   -0.2594847    4.1085983 
H     1.7226289    1.9534138    1.2091327 
H    -2.8951711    0.4222360   -2.6724715 
H    -0.7174516   -3.0364618   -1.8757676 
H     1.9310398   -5.1074132    2.8799661 
H    -1.1290004    2.5642672    5.2722260 
H    -3.3878143    3.6925666    1.0783627 
H    -5.7143861   -3.1584677   -1.7479442 
H     3.3393371   -1.9079633    5.4352446 
H     1.7000178    4.1462991    2.3969878 
H    -4.0405115    2.5891474   -3.0600541 
H    -1.9514291   -4.9215727   -2.9681724 
H     3.2940672   -4.3329633    4.8287739 
H     0.2618115    4.4579805    4.4217240 
H    -4.2982866    4.2335883   -1.1884007 
H    -4.4495977   -4.9748560   -2.9062324 
