78
Energy =
C     1.2987240   -0.3830562   -2.7738696 
C     2.2449838    0.3400678   -1.9983155 
C     2.9189572   -0.2895179   -0.9106301 
H     2.2705770    1.4338231   -2.0777758 
Pd    0.7322412   -0.4692127   -0.6294558 
P     0.2825129   -0.5509595    1.6591236 
P    -1.5928483   -0.7300611   -0.4272629 
H     1.4244424   -1.4750720   -2.8447538 
H     3.1092915   -1.3704692   -0.9977483 
C    -1.6102793    1.2888198   -5.4701536 
C    -1.6739881   -0.0601025   -5.0847786 
C    -0.6972137   -0.5963899   -4.2397729 
C     0.3566805    0.2082420   -3.7465538 
C     0.4200593    1.5594120   -4.1566113 
C    -0.5542451    2.0916365   -5.0106287 
H    -2.3718114    1.7091644   -6.1348333 
H    -2.4883745   -0.6979416   -5.4439307 
H    -0.7621147   -1.6456533   -3.9303215 
H     1.2399266    2.2009623   -3.8173306 
H    -0.4848065    3.1383312   -5.3248876 
C     5.2177755    1.6272548    2.1870129 
C     4.4900245    2.4124235    1.2779329 
C     3.7392766    1.8085329    0.2636723 
C     3.7146266    0.4013034    0.1230103 
C     4.4545959   -0.3761843    1.0445319 
C     5.1928331    0.2283910    2.0683973 
H     5.8027149    2.1028333    2.9809367 
H     4.5004030    3.5037530    1.3649370 
H     3.1628976    2.4414424   -0.4185165 
H     4.4450313   -1.4680271    0.9551582 
H     5.7574790   -0.3934648    2.7706906 
C    -1.4926025   -1.1078390    1.4116931 
C     1.1040144   -1.7013860    2.8110627 
C     0.2758358    1.0908962    2.4447769 
C    -2.5871401    0.7885591   -0.6006525 
C    -2.5214818   -2.0690383   -1.2537364 
C     0.9772766   -1.5749303    4.2104437 
C    -0.8535721    1.9352263    2.4162972 
C    -3.8237208    0.9365262    0.0644444 
C    -2.1191051   -3.4082672   -1.0576040 
C     1.8683723   -2.7525651    2.2648029 
C     1.4952448    1.5671455    2.9763127 
C    -2.0986002    1.8260076   -1.4186105 
C    -3.5420278   -1.7744451   -2.1808289 
C     1.6101076   -2.5005317    5.0501733 
C    -0.7675593    3.2329950    2.9385111 
C    -4.5530885    2.1235715   -0.0797127 
C    -2.7533754   -4.4407084   -1.7588095 
C     2.4946949   -3.6774877    3.1112273 
C     1.5687601    2.8642586    3.4974335 
C    -2.8398041    3.0069016   -1.5665425 
C    -4.1659123   -2.8143582   -2.8854846 
C     2.3663172   -3.5499986    4.5027371 
C     0.4397020    3.6981816    3.4815853 
C    -4.0608399    3.1584601   -0.8934874 
C    -3.7770537   -4.1450513   -2.6743662 
H    -1.5112205   -2.2028308    1.5532644 
H    -2.2627320   -0.6543867    2.0596295 
H     0.3955291   -0.7517689    4.6390473 
H    -1.7990673    1.5967763    1.9816486 
H    -4.2203110    0.1263372    0.6870895 
H    -1.3058431   -3.6489113   -0.3622233 
H     1.9754085   -2.8339039    1.1764849 
H     2.3847427    0.9272722    2.9813124 
H    -1.1458970    1.7029475   -1.9440122 
H    -3.8464815   -0.7372372   -2.3530231 
H     1.5137918   -2.4024283    6.1363667 
H    -1.6495085    3.8814068    2.9191255 
H    -5.5103683    2.2403599    0.4386640 
H    -2.4450804   -5.4783680   -1.5952199 
H     3.0895979   -4.4921267    2.6856884 
H     2.5163447    3.2240823    3.9109131 
H    -2.4594352    3.8077823   -2.2085392 
H    -4.9618314   -2.5810073   -3.6002973 
H     2.8608473   -4.2683554    5.1647153 
H     0.5014478    4.7122458    3.8896742 
H    -4.6361080    4.0834638   -1.0046464 
H    -4.2686407   -4.9537534   -3.2246012 
