78
Energy =
C     1.1631326    0.3086101   -2.8867901 
C     2.0860545    1.0135437   -2.0558790 
C     2.8589334    0.2952406   -1.1001247 
H     2.0486560    2.1095542   -2.0166439 
Pd    0.7019252   -0.0511745   -0.7476149 
P     0.3211155   -0.1716592    1.5596364 
P    -1.5994965   -0.3741347   -0.4465954 
H     1.4257479   -0.7267177   -3.1555953 
H     3.0853536   -0.7560064   -1.3417350 
C    -1.7419547    2.1363377   -5.4833184 
C    -1.2333065    0.8605304   -5.7668737 
C    -0.2984961    0.2692545   -4.9075109 
C     0.1567968    0.9485144   -3.7549025 
C    -0.3852902    2.2243756   -3.4691602 
C    -1.3196252    2.8118782   -4.3260187 
H    -2.4726289    2.5997110   -6.1540797 
H    -1.5613113    0.3245376   -6.6636439 
H     0.1025656   -0.7240217   -5.1393338 
H    -0.0854549    2.7514044   -2.5564330 
H    -1.7318008    3.7970983   -4.0858884 
C     5.2666263    1.8655041    2.0986825 
C     5.3849936    0.5251799    1.7013930 
C     4.6016209    0.0345409    0.6508045 
C     3.6852865    0.8724708   -0.0261582 
C     3.5705901    2.2182103    0.3926017 
C     4.3568038    2.7078562    1.4394159 
H     5.8776189    2.2526857    2.9203465 
H     6.0931208   -0.1383673    2.2084661 
H     4.7006431   -1.0123518    0.3405131 
H     2.8514097    2.8853680   -0.0936966 
H     4.2519326    3.7513090    1.7522892 
C    -1.5031790    0.2075884    1.3345417 
C     0.4425061   -1.8140162    2.3430102 
C     1.0345026    1.0468504    2.7168604 
C    -2.8577151    0.5742284   -1.3584490 
C    -2.2048034   -2.0949837   -0.3368166 
C    -0.4123801   -2.2124661    3.3905374 
C     0.7810727    2.4214584    2.5182028 
C    -3.3670603    1.8080873   -0.9070223 
C    -3.5673281   -2.3685430   -0.0921161 
C     1.4217651   -2.7057353    1.8590542 
C     1.9276521    0.6402736    3.7281800 
C    -3.2311101    0.0864791   -2.6304964 
C    -1.2795810   -3.1536181   -0.4223975 
C    -0.2973316   -3.4988206    3.9329480 
C     1.3810428    3.3726241    3.3513236 
C    -4.2573641    2.5339127   -1.7109860 
C    -3.9903428   -3.6929284    0.0764017 
C     1.5394526   -3.9875568    2.4129866 
C     2.5384539    1.6006029    4.5459815 
C    -4.1190638    0.8174948   -3.4262417 
C    -1.7080926   -4.4759470   -0.2427662 
C     0.6752868   -4.3860206    3.4441262 
C     2.2617492    2.9634717    4.3652111 
C    -4.6336397    2.0408229   -2.9688923 
C    -3.0616786   -4.7449406    0.0070160 
H    -2.2085023   -0.2657967    2.0382303 
H    -1.6254481    1.3037661    1.3773235 
H    -1.1672948   -1.5235443    3.7847353 
H     0.1200254    2.7542216    1.7092622 
H    -3.0846455    2.2067531    0.0729651 
H    -4.2930949   -1.5491720   -0.0404143 
H     2.0837631   -2.3906964    1.0439869 
H     2.1412553   -0.4228513    3.8789482 
H    -2.8260563   -0.8630969   -2.9963421 
H    -0.2240061   -2.9371531   -0.6227852 
H    -0.9674889   -3.8097126    4.7408610 
H     1.1696578    4.4364887    3.2022910 
H    -4.6602487    3.4856570   -1.3498074 
H    -5.0481157   -3.9058066    0.2623675 
H     2.3010899   -4.6776222    2.0357188 
H     3.2303821    1.2795621    5.3311672 
H    -4.4019890    0.4350011   -4.4115914 
H    -0.9844789   -5.2950995   -0.3024573 
H     0.7602066   -5.3907346    3.8708682 
H     2.7358473    3.7091519    5.0115205 
H    -5.3273798    2.6113498   -3.5947550 
H    -3.3978544   -5.7782655    0.1415570 
