78
Energy =
C     0.9768825   -0.2732245   -3.0169638 
C     1.8528964    0.6779370   -2.4217794 
C     2.6892662    0.2806213   -1.3385701 
H     1.7460008    1.7423520   -2.6652269 
Pd    0.5790035   -0.0996514   -0.8215866 
P     0.4163573    0.2489883    1.4846087 
P    -1.6457983   -0.6012941   -0.1976637 
H     1.2928275   -1.3277572   -2.9844757 
H     2.9964640   -0.7774862   -1.3198106 
C    -2.0713555    0.5330416   -5.9454552 
C    -1.5355309   -0.7564048   -5.8045588 
C    -0.5402133   -1.0029679   -4.8504098 
C    -0.0598516    0.0345122   -4.0182493 
C    -0.6193879    1.3259090   -4.1633336 
C    -1.6098274    1.5715837   -5.1191415 
H    -2.8467046    0.7287101   -6.6933315 
H    -1.8890852   -1.5717417   -6.4441053 
H    -0.1222337   -2.0108695   -4.7479677 
H    -0.2926738    2.1405595   -3.5081873 
H    -2.0328250    2.5767605   -5.2153086 
C     5.0839161    2.7952823    1.2001969 
C     5.3116971    1.4124659    1.1388434 
C     4.5270207    0.6099864    0.3026793 
C     3.5009080    1.1723304   -0.4911005 
C     3.2747689    2.5657151   -0.4076285 
C     4.0622807    3.3665820    0.4243282 
H     5.6955777    3.4259811    1.8531988 
H     6.1063675    0.9584734    1.7398430 
H     4.7146305   -0.4689469    0.2517390 
H     2.4676496    3.0266827   -0.9864459 
H     3.8707274    4.4426813    0.4784897 
C    -1.4533544    0.3135088    1.4328928 
C    -3.1678309    0.0024786   -0.9986357 
C    -1.9523425   -2.3393927    0.2944880 
C     0.8913523   -1.1329158    2.5753616 
C     1.0340615    1.7876087    2.2479179 
C    -4.1847332    0.6743271   -0.2876349 
C    -3.2357333   -2.7718292    0.6874964 
C     0.2355922   -1.3772750    3.7991529 
C     0.5691743    3.0293309    1.7622253 
C    -3.3138245   -0.2296878   -2.3826696 
C    -0.8665522   -3.2363435    0.3373237 
C     1.9459036   -1.9737752    2.1650803 
C     2.0390684    1.7540522    3.2345637 
C    -5.3396233    1.1013320   -0.9578510 
C    -3.4197961   -4.0862812    1.1358830 
C     0.6240387   -2.4639042    4.5932866 
C     1.0746452    4.2220276    2.2916994 
C    -4.4718983    0.1989408   -3.0431856 
C    -1.0553179   -4.5468378    0.7962886 
C     2.3362069   -3.0540333    2.9677719 
C     2.5514946    2.9536392    3.7472010 
C    -5.4836984    0.8638373   -2.3336962 
C    -2.3309489   -4.9713609    1.1963362 
C     1.6711754   -3.3024205    4.1780728 
C     2.0668905    4.1854592    3.2845455 
H    -1.7549195    1.3662506    1.2897504 
H    -1.9887812   -0.1095061    2.2993737 
H    -4.0857489    0.8610712    0.7872493 
H    -4.0888458   -2.0862672    0.6356814 
H    -0.5752008   -0.7221912    4.1358037 
H    -0.1836481    3.0683092    0.9658650 
H    -2.5220259   -0.7357341   -2.9448368 
H     0.1267378   -2.9026994    0.0149499 
H     2.4524050   -1.7792699    1.2130291 
H     2.4171880    0.7953103    3.6034242 
H    -6.1286243    1.6196004   -0.4032033 
H    -4.4175368   -4.4221170    1.4367563 
H     0.1091288   -2.6563919    5.5400197 
H     0.7007659    5.1823941    1.9221634 
H    -4.5739773    0.0205732   -4.1181384 
H    -0.2065319   -5.2371175    0.8351152 
H     3.1554187   -3.7052020    2.6461542 
H     3.3313247    2.9228828    4.5148329 
H    -6.3858657    1.2019143   -2.8538387 
H    -2.4806861   -5.9974073    1.5479441 
H     1.9699153   -4.1511001    4.8019450 
H     2.4658036    5.1194007    3.6934184 
