78
Energy =
C     1.1969348   -1.0043412   -2.7619829 
C     1.9890117    0.0928960   -2.3243298 
C     2.8636178   -0.0690926   -1.2085259 
H     1.7673060    1.0986908   -2.7028005 
Pd    0.7980862   -0.5719731   -0.6164273 
P     0.5414558   -0.2148182    1.6897472 
P    -1.4455729   -1.0378700   -0.0903639 
H     1.6085119   -2.0121767   -2.5941383 
H     3.2789629   -1.0754361   -1.0437819 
C    -2.0810319   -0.9332263   -5.5487748 
C    -1.3494558   -2.1102116   -5.3326335 
C    -0.2786518   -2.1162682   -4.4291975 
C     0.0912007   -0.9416569   -3.7359874 
C    -0.6543544    0.2390267   -3.9656990 
C    -1.7291216    0.2412607   -4.8593507 
H    -2.9225930   -0.9275249   -6.2490020 
H    -1.6153397   -3.0290961   -5.8653356 
H     0.2816558   -3.0415128   -4.2555098 
H    -0.4116713    1.1549704   -3.4169915 
H    -2.3020237    1.1610128   -5.0161536 
C     4.8959098    3.0250037    0.9920797 
C     5.1336616    1.6684369    1.2672555 
C     4.4801129    0.6767234    0.5270925 
C     3.5645984    1.0167974   -0.4967443 
C     3.3296888    2.3870650   -0.7571335 
C     3.9943897    3.3777093   -0.0256089 
H     5.4130311    3.8022649    1.5639048 
H     5.8356090    1.3824079    2.0572329 
H     4.6695251   -0.3794515    0.7483817 
H     2.6205679    2.6870377   -1.5352199 
H     3.8044171    4.4328645   -0.2478655 
C    -1.0788424   -1.1605366    1.7442111 
C    -2.4987338    0.4482942   -0.2873552 
C    -2.4739680   -2.4433038   -0.6197710 
C     1.6978458   -0.9410357    2.9004001 
C     0.2376081    1.5020547    2.2132569 
C    -3.8803123    0.3944632   -0.0074183 
C    -2.8609388   -2.4628240   -1.9789786 
C     2.5359528   -1.9900108    2.4688451 
C     1.3592160    2.3620011    2.2399876 
C    -1.9093140    1.6675669   -0.6767530 
C    -2.8460439   -3.5019241    0.2323141 
C     1.7699249   -0.4828031    4.2319459 
C    -1.0432229    2.0126372    2.5026404 
C    -4.6562146    1.5568594   -0.1057496 
C    -3.6178791   -3.5314711   -2.4719136 
C     3.4298667   -2.5871977    3.3672455 
C     1.1950270    3.7134082    2.5627785 
C    -2.6904339    2.8269922   -0.7719378 
C    -3.6069949   -4.5672268   -0.2714838 
C     2.6716014   -1.0805560    5.1225847 
C    -1.1973434    3.3688888    2.8234159 
C    -4.0624957    2.7721742   -0.4856691 
C    -3.9914204   -4.5840582   -1.6205446 
C     3.4983803   -2.1309497    4.6929952 
C    -0.0824827    4.2194637    2.8534824 
H    -1.8591732   -0.8299348    2.4510794 
H    -0.7988253   -2.2050089    1.9721829 
H    -4.3477696   -0.5545655    0.2779484 
H    -2.5738149   -1.6434853   -2.6475617 
H     2.4900292   -2.3274391    1.4260329 
H     2.3582158    1.9745713    2.0112215 
H    -0.8335200    1.7041710   -0.8878950 
H    -2.5572972   -3.4998992    1.2885795 
H     1.1312077    0.3418015    4.5660543 
H    -1.9269585    1.3689583    2.4680419 
H    -5.7287327    1.5137134    0.1102502 
H    -3.9125184   -3.5409189   -3.5262580 
H     4.0797394   -3.4016445    3.0311616 
H     2.0697166    4.3714558    2.5809762 
H    -2.2262835    3.7730737   -1.0681825 
H    -3.9017618   -5.3844115    0.3947507 
H     2.7295424   -0.7242572    6.1561934 
H    -2.1951595    3.7594186    3.0472677 
H    -4.6743500    3.6768919   -0.5637450 
H    -4.5835430   -5.4189346   -2.0090509 
H     4.2027003   -2.5919791    5.3931113 
H    -0.2086646    5.2780051    3.1031759 
