78
Energy =
C     1.0080016   -0.8272627   -2.7769567 
C     1.8984771    0.2005804   -2.3460781 
C     2.8075701   -0.0372672   -1.2802383 
H     1.7122688    1.2338073   -2.6640109 
Pd    0.7369350   -0.4745259   -0.6111765 
P     0.5561739   -0.1345301    1.7056051 
P    -1.4708032   -0.9817286   -0.0517182 
H     1.3612022   -1.8659800   -2.6840176 
H     3.1394927   -1.0744137   -1.1142836 
C    -2.4154085   -0.3895050   -5.3538115 
C    -1.9399796   -1.6614388   -4.9970085 
C    -0.8164758   -1.7847283   -4.1714311 
C    -0.1482256   -0.6410444   -3.6753391 
C    -0.6482288    0.6332826   -4.0315912 
C    -1.7624437    0.7553078   -4.8683766 
H    -3.2882690   -0.2907019   -6.0072833 
H    -2.4409414   -2.5605590   -5.3703185 
H    -0.4476459   -2.7806893   -3.9026878 
H    -0.1714708    1.5401043   -3.6461225 
H    -2.1301097    1.7512278   -5.1358405 
C     4.9592998    2.9467792    0.9535461 
C     4.8918828    1.6176695    1.4024377 
C     4.2241124    0.6523977    0.6424013 
C     3.5921535    0.9977239   -0.5753714 
C     3.6834072    2.3341898   -1.0258267 
C     4.3619048    3.2970620   -0.2675245 
H     5.4852763    3.7027012    1.5454341 
H     5.3613865    1.3315093    2.3493769 
H     4.1607282   -0.3790652    1.0071042 
H     3.2321912    2.6266499   -1.9796535 
H     4.4302504    4.3260590   -0.6358309 
C    -1.1378534   -0.9457264    1.7953750 
C    -2.6430940    0.3509100   -0.4567451 
C    -2.2803587   -2.5611415   -0.4694859 
C     1.6593669   -0.9522941    2.9110530 
C     0.3511971    1.5911524    2.2569570 
C    -2.8188172    1.4731000    0.3798368 
C    -3.6625900   -2.7646166   -0.2723949 
C     1.8279627   -2.3524527    2.8379816 
C    -0.3800500    1.9113283    3.4213908 
C    -3.2839643    0.3061217   -1.7148065 
C    -1.4808107   -3.6026264   -0.9823740 
C     2.4314100   -0.2013056    3.8203588 
C     0.9469440    2.6157638    1.4954477 
C    -3.6497101    2.5248004   -0.0292669 
C    -4.2318808   -4.0058610   -0.5840648 
C     2.7361872   -2.9945109    3.6880001 
C    -0.5230505    3.2505075    3.8064943 
C    -4.1139208    1.3613881   -2.1118927 
C    -2.0570144   -4.8430872   -1.2887098 
C     3.3456666   -0.8519358    4.6621119 
C     0.8087575    3.9527313    1.8937960 
C    -4.3003678    2.4698929   -1.2713825 
C    -3.4314843   -5.0433339   -1.0902813 
C     3.4968299   -2.2447370    4.6007366 
C     0.0699656    4.2704455    3.0428324 
H    -1.8936243   -0.4593601    2.4362686 
H    -1.0146263   -1.9924696    2.1248523 
H    -2.3067279    1.5418116    1.3445160 
H    -4.2899320   -1.9535108    0.1128888 
H     1.2556824   -2.9437220    2.1125450 
H    -0.8308119    1.1193793    4.0303277 
H    -3.1335230   -0.5489702   -2.3832084 
H    -0.4103848   -3.4310102   -1.1465031 
H     2.3207338    0.8866480    3.8693741 
H     1.5239408    2.3643502    0.5995838 
H    -3.7873707    3.3897590    0.6276400 
H    -5.3045594   -4.1644862   -0.4327338 
H     2.8561668   -4.0814093    3.6345443 
H    -1.0932616    3.4995309    4.7073861 
H    -4.6106186    1.3167702   -3.0864176 
H    -1.4352727   -5.6504344   -1.6889992 
H     3.9394458   -0.2652980    5.3707146 
H     1.2793316    4.7445158    1.3023256 
H    -4.9504324    3.2929026   -1.5856049 
H    -3.8832371   -6.0102689   -1.3346952 
H     4.2099556   -2.7483302    5.2612582 
H    -0.0429070    5.3154778    3.3495614 
