78
Energy =
C     1.0945941   -0.8079702   -2.7684367 
C     1.9893847    0.1774909   -2.2705990 
C     2.8374460   -0.1143311   -1.1616020 
H     1.8508682    1.2223900   -2.5742636 
Pd    0.7320348   -0.4930135   -0.6015760 
P     0.5004872   -0.1262452    1.6910828 
P    -1.5053347   -0.9846136   -0.0833926 
H     1.3702837   -1.8650429   -2.6271012 
H     3.1740147   -1.1567774   -1.0504315 
C    -2.2460036   -0.1380850   -5.3985126 
C    -1.2775124    0.8664741   -5.2443464 
C    -0.1664966    0.6581566   -4.4170203 
C    -0.0023476   -0.5649331   -3.7280204 
C    -0.9711045   -1.5788425   -3.9152513 
C    -2.0844721   -1.3646787   -4.7338383 
H    -3.1147464    0.0296913   -6.0431392 
H    -1.3843052    1.8169370   -5.7776088 
H     0.5812658    1.4518389   -4.3178451 
H    -0.8598544   -2.5323551   -3.3867100 
H    -2.8292338   -2.1584621   -4.8534086 
C     5.0974330    2.6909917    1.1992749 
C     4.1768324    3.1668934    0.2513812 
C     3.4346912    2.2715899   -0.5261793 
C     3.6114022    0.8751588   -0.3867470 
C     4.5433559    0.4109324    0.5707393 
C     5.2739900    1.3072765    1.3590577 
H     5.6752172    3.3942259    1.8078137 
H     4.0290563    4.2441068    0.1233485 
H     2.7064394    2.6667482   -1.2415351 
H     4.6916839   -0.6672172    0.6966823 
H     5.9898027    0.9252325    2.0941783 
C    -1.1968365   -0.9236860    1.7703353 
C    -2.7293840    0.3133803   -0.4597998 
C    -2.2845401   -2.5851832   -0.4947865 
C     1.5687953   -0.8976611    2.9513855 
C     0.3369744    1.6348193    2.1218814 
C    -2.4811259    1.1828283   -1.5399673 
C    -3.4200475   -2.6456053   -1.3280818 
C     1.5238621   -0.5085846    4.3068450 
C    -0.8918043    2.3206184    2.0231567 
C    -3.9080193    0.4552358    0.3043970 
C    -1.6583169   -3.7797243   -0.0765674 
C     2.4413432   -1.9263387    2.5419108 
C     1.5166848    2.3485475    2.4296628 
C    -3.4040494    2.1913042   -1.8511789 
C    -3.9331802   -3.8913098   -1.7182957 
C     2.3457575   -1.1528666    5.2403555 
C    -0.9404480    3.7015937    2.2568160 
C    -4.8198516    1.4720840   -0.0060963 
C    -2.1825507   -5.0187299   -0.4635344 
C     3.2579719   -2.5689944    3.4824354 
C     1.4555247    3.7274825    2.6636840 
C    -4.5674655    2.3402019   -1.0822400 
C    -3.3202370   -5.0761182   -1.2857225 
C     3.2102145   -2.1812599    4.8300830 
C     0.2295237    4.4057720    2.5800123 
H    -1.9624541   -0.4237400    2.3887352 
H    -1.0564517   -1.9530005    2.1447224 
H    -1.5727586    1.0624121   -2.1392413 
H    -3.8998995   -1.7239541   -1.6722047 
H     0.8569596    0.2993964    4.6265585 
H    -1.8119251    1.7919207    1.7554865 
H    -4.1181832   -0.2291995    1.1342797 
H    -0.7563307   -3.7461739    0.5466575 
H     2.4812754   -2.2113716    1.4838044 
H     2.4799494    1.8293079    2.4840786 
H    -3.2101647    2.8603048   -2.6956404 
H    -4.8184348   -3.9334969   -2.3612905 
H     2.3126315   -0.8512816    6.2923217 
H    -1.8982005    4.2270394    2.1849582 
H    -5.7322989    1.5848510    0.5884469 
H    -1.6995466   -5.9421226   -0.1280279 
H     3.9368052   -3.3662389    3.1627788 
H     2.3734796    4.2725547    2.9058673 
H    -5.2846535    3.1320820   -1.3220679 
H    -3.7258048   -6.0461274   -1.5906709 
H     3.8521799   -2.6788060    5.5643399 
H     0.1861583    5.4842711    2.7634238 
