78
Energy =
C     1.0109387   -0.7472511   -2.8110921 
C     1.9074725    0.2465958   -2.3336518 
C     2.7958051   -0.0436817   -1.2559425 
H     1.7423807    1.2922302   -2.6210564 
Pd    0.7165302   -0.4585030   -0.6307751 
P     0.5572816   -0.1458212    1.6760348 
P    -1.4934917   -0.9969030   -0.0492807 
H     1.3064215   -1.8014234   -2.6890911 
H     3.1513110   -1.0819357   -1.1670500 
C    -2.4336693   -0.1020115   -5.3091224 
C    -2.2338564   -1.3299656   -4.6572674 
C    -1.0871098   -1.5362577   -3.8842110 
C    -0.1229947   -0.5123994   -3.7289461 
C    -0.3262698    0.7120863   -4.4047077 
C    -1.4704592    0.9120809   -5.1879669 
H    -3.3286468    0.0595455   -5.9184917 
H    -2.9748956   -2.1305921   -4.7509138 
H    -0.9457973   -2.4907045   -3.3645675 
H     0.4163408    1.5131985   -4.3298732 
H    -1.6076679    1.8636902   -5.7121490 
C     5.0822584    2.7692901    1.0705034 
C     5.2750863    1.3862921    1.2177156 
C     4.5362577    0.4879197    0.4394543 
C     3.5791246    0.9490481   -0.4945209 
C     3.3871497    2.3445805   -0.6220500 
C     4.1375820    3.2421735    0.1450415 
H     5.6661882    3.4742524    1.6711202 
H     6.0096338    1.0064830    1.9353014 
H     4.6968030   -0.5895123    0.5560597 
H     2.6411918    2.7373426   -1.3202370 
H     3.9779078    4.3187529    0.0261437 
C    -1.1149968   -0.9894136    1.7931441 
C    -2.7577899    0.2818528   -0.3466837 
C    -2.2409048   -2.6059798   -0.4863486 
C     1.6894965   -0.9159702    2.8801875 
C     0.3681092    1.6011309    2.1503732 
C    -3.8823928    0.4220650    0.4950070 
C    -1.4880801   -3.7781109   -0.2543424 
C     2.5480503   -1.9367294    2.4237041 
C    -0.8828647    2.2523144    2.1494545 
C    -2.5975820    1.1356999   -1.4559887 
C    -3.4814378   -2.6904340   -1.1490787 
C     1.7090683   -0.5325720    4.2376782 
C     1.5458309    2.3430430    2.3935707 
C    -4.8282687    1.4212607    0.2316061 
C    -1.9871822   -5.0228534   -0.6550794 
C     3.4140999   -2.5775665    3.3200169 
C    -0.9540019    3.6266899    2.4148947 
C    -3.5540296    2.1261525   -1.7186943 
C    -3.9702171   -3.9411277   -1.5553115 
C     2.5807692   -1.1744775    5.1267104 
C     1.4624952    3.7148075    2.6596244 
C    -4.6636652    2.2733629   -0.8735344 
C    -3.2288694   -5.1053571   -1.3074765 
C     3.4306515   -2.1952355    4.6700647 
C     0.2150739    4.3585056    2.6727792 
H    -1.8664249   -0.5390088    2.4647438 
H    -0.9299290   -2.0294454    2.1154166 
H    -4.0255987   -0.2495946    1.3491664 
H    -0.5060526   -3.7179534    0.2314935 
H     2.5387366   -2.2167787    1.3634277 
H    -1.8036665    1.7021178    1.9333017 
H    -1.7309233    1.0181615   -2.1148596 
H    -4.0614053   -1.7841796   -1.3501949 
H     1.0533709    0.2695232    4.5932101 
H     2.5245789    1.8508365    2.3734315 
H    -5.6988435    1.5323061    0.8862628 
H    -1.4038876   -5.9298509   -0.4661982 
H     4.0816613   -3.3688884    2.9639330 
H    -1.9286918    4.1252037    2.4187954 
H    -3.4279473    2.7831770   -2.5851316 
H    -4.9364711   -4.0034844   -2.0664744 
H     2.5978040   -0.8768354    6.1801765 
H     2.3793600    4.2816599    2.8505343 
H    -5.4067501    3.0516828   -1.0759713 
H    -3.6149978   -6.0789424   -1.6260266 
H     4.1116238   -2.6910585    5.3695259 
H     0.1542851    5.4316943    2.8807495 
