64
Energy =
C    -1.1490922    1.1093507   -1.7274770 
C    -0.0541327    0.5432070   -2.4415456 
C     0.3358403   -0.8016951   -2.1798155 
H     0.5985620    1.1912223   -3.0393317 
Pd    0.3984581    0.3867524   -0.2959140 
P     1.9859728   -0.9009046    0.7956194 
P    -0.1424799    1.8169242    1.4455478 
H    -1.9248261    0.4102206   -1.3767471 
H    -0.4524803   -1.4850694   -1.8261439 
C    -2.4307114    5.2152401   -1.6605673 
C    -3.2676484    4.1928269   -1.1906938 
C    -2.8381966    2.8606317   -1.2289077 
C    -1.5634808    2.5247687   -1.7399526 
C    -0.7255037    3.5672765   -2.2016787 
C    -1.1578746    4.8964632   -2.1653438 
H    -2.7653248    6.2573250   -1.6349021 
H    -4.2596135    4.4311848   -0.7934845 
H    -3.4934520    2.0665855   -0.8535268 
H     0.2752440    3.3403463   -2.5845650 
H    -0.4996350    5.6909909   -2.5317423 
C     3.8400433   -2.8616539   -3.5871989 
C     3.7899232   -1.4580835   -3.6527939 
C     2.6573413   -0.7707294   -3.2058665 
C     1.5445997   -1.4759082   -2.6892390 
C     1.6125773   -2.8862483   -2.6207065 
C     2.7485889   -3.5723074   -3.0674891 
H     4.7282260   -3.3958486   -3.9398274 
H     4.6408139   -0.8981845   -4.0544359 
H     2.6427937    0.3236858   -3.2499714 
H     0.7659075   -3.4459894   -2.2075972 
H     2.7795860   -4.6651179   -3.0092450 
C     1.2205465    0.1582649    3.3595197 
C     2.4075442   -0.4009609    2.5437651 
C     0.8340065    1.6158441    3.0228461 
C     1.5468114   -2.6735009    0.8464412 
C    -1.9085058    1.7306382    1.9065661 
C     2.5255694   -3.6726354    0.6686974 
C    -2.6188962    2.8862912    2.2910585 
C     0.1974866   -3.0445459    1.0255796 
C    -2.5800640    0.4920818    1.8357507 
C     2.1551413   -5.0244344    0.6734481 
C    -3.9830248    2.7989717    2.6007240 
C    -0.1662622   -4.3975175    1.0383659 
C    -3.9419620    0.4084899    2.1544277 
C     0.8124614   -5.3879148    0.8589976 
C    -4.6446178    1.5630351    2.5336788 
H     0.3394796   -0.5077517    3.2704609 
H     1.5078635    0.1290199    4.4256300 
H     3.2131162    0.3536843    2.4748118 
H     2.8327690   -1.2892854    3.0423077 
H     1.7421910    2.2383147    2.9182742 
H     0.2300793    2.0519956    3.8375465 
H     3.2656653   -0.9473139    0.1840685 
H     0.0101514    3.2021734    1.1779018 
H     3.5736070   -3.3980843    0.5081338 
H    -2.1145663    3.8577430    2.3316816 
H    -0.5701693   -2.2701515    1.1413458 
H    -2.0366444   -0.4046514    1.5147458 
H     2.9180326   -5.7957773    0.5263324 
H    -4.5319765    3.7009346    2.8899988 
H    -1.2144714   -4.6796652    1.1803053 
H    -4.4575542   -0.5556450    2.0990526 
H     0.5271715   -6.4448699    0.8598369 
H    -5.7110050    1.4999607    2.7732424 
