64
Energy =
C    -1.2163718    1.1300918   -2.1695935 
C    -0.0812582    0.6421128   -2.8767677 
C     0.2962360   -0.7252938   -2.7326478 
H     0.6058343    1.3472597   -3.3598464 
Pd    0.2578108    0.2767041   -0.7430667 
P     1.8138340   -1.0023884    0.4095077 
P    -0.2419620    1.6553913    1.0498849 
H    -2.0001130    0.3951530   -1.9259526 
H    -0.5175548   -1.4395824   -2.5312528 
C    -2.4896426    5.2032813   -1.6199064 
C    -3.2786423    4.1338922   -1.1702108 
C    -2.8562787    2.8146939   -1.3770378 
C    -1.6355328    2.5379137   -2.0362983 
C    -0.8474099    3.6256167   -2.4779742 
C    -1.2738382    4.9425471   -2.2747215 
H    -2.8196180    6.2355252   -1.4651412 
H    -4.2296119    4.3264935   -0.6627811 
H    -3.4753154    1.9828422   -1.0216154 
H     0.1063220    3.4459633   -2.9849221 
H    -0.6555246    5.7728541   -2.6311563 
C     3.9295851   -2.6021155   -4.0726587 
C     2.8176880   -3.3725058   -3.7016833 
C     1.6396451   -2.7452312   -3.2773688 
C     1.5481628   -1.3358470   -3.2181900 
C     2.6815246   -0.5721886   -3.5833377 
C     3.8562592   -1.2000203   -4.0100346 
H     4.8506482   -3.0897477   -4.4075616 
H     2.8656885   -4.4653137   -3.7475915 
H     0.7726218   -3.3527219   -2.9926524 
H     2.6496944    0.5212771   -3.5263368 
H     4.7221771   -0.5934850   -4.2949633 
C     1.8540884    0.6573700    2.7502794 
C     2.7445390   -0.0625888    1.7114846 
C     1.1513061    1.9379772    2.2536470 
C     1.0795768   -2.4673109    1.2385383 
C    -1.6848148    1.1313392    2.0353426 
C    -0.0084950   -3.1042469    0.6028003 
C    -2.6599783    2.0630002    2.4500381 
C     1.5311768   -2.9531589    2.4825112 
C    -1.8274924   -0.2310803    2.3772726 
C    -0.6270554   -4.2125112    1.1956330 
C    -3.7578734    1.6333044    3.2085253 
C     0.9009968   -4.0554501    3.0780096 
C    -2.9215448   -0.6497357    3.1456800 
C    -0.1756692   -4.6864418    2.4371540 
C    -3.8870032    0.2807576    3.5606791 
H     1.1113862   -0.0461460    3.1729287 
H     2.5038266    0.9476328    3.5952751 
H     3.3746934    0.6646402    1.1665725 
H     3.4371542   -0.7571453    2.2187834 
H     1.8735433    2.6009342    1.7411462 
H     0.7364280    2.4980456    3.1101085 
H     2.8691081   -1.5432814   -0.3771579 
H    -0.5955099    2.9827867    0.6912623 
H    -0.3754192   -2.7228289   -0.3567971 
H    -2.5666384    3.1197747    2.1761288 
H     2.3732252   -2.4810307    2.9981385 
H    -1.0916379   -0.9675939    2.0356266 
H    -1.4665356   -4.7015879    0.6911180 
H    -4.5145778    2.3581363    3.5258921 
H     1.2564856   -4.4232856    4.0458739 
H    -3.0232997   -1.7070540    3.4110502 
H    -0.6634249   -5.5471549    2.9059441 
H    -4.7456226   -0.0492377    4.1543898 
