64
Energy =
C     1.1338279   -0.1839758   -2.0488266 
C     0.0280427    0.6316898   -2.4246342 
C    -0.3691129    1.7090686   -1.5816132 
H    -0.6246773    0.3153614   -3.2474570 
Pd   -0.4053470   -0.2035945   -0.4377802 
P    -1.9838178    0.4389144    1.1323256 
P     0.1513351   -2.2672070    0.4576850 
H     1.9084645    0.2901509   -1.4253530 
H     0.4170681    2.1653180   -0.9593709 
C     2.4488333   -3.8556132   -3.8640377 
C     1.1532285   -3.3782174   -4.1293740 
C     0.7097397   -2.1836235   -3.5538957 
C     1.5583257   -1.4355552   -2.7036333 
C     2.8547326   -1.9324638   -2.4379944 
C     3.2963236   -3.1296082   -3.0149147 
H     2.7925608   -4.7905331   -4.3182740 
H     0.4861967   -3.9431538   -4.7887364 
H    -0.3083414   -1.8355255   -3.7592534 
H     3.5177604   -1.3738366   -1.7678641 
H     4.3056184   -3.4950639   -2.7996108 
C    -3.9003559    4.1474175   -1.8795878 
C    -3.8243548    2.9489991   -2.6106549 
C    -2.6830237    2.1451281   -2.5317094 
C    -1.5865535    2.5291714   -1.7241125 
C    -1.6793872    3.7336910   -0.9894850 
C    -2.8249841    4.5349686   -1.0671657 
H    -4.7954791    4.7743171   -1.9454641 
H    -4.6615737    2.6411131   -3.2455172 
H    -2.6482996    1.2082028   -3.0979409 
H    -0.8445820    4.0382675   -0.3482776 
H    -2.8756412    5.4652799   -0.4922323 
C    -1.2059008   -1.6702308    2.9249893 
C    -2.4003771   -0.8109763    2.4535713 
C    -0.8099874   -2.8117376    1.9620058 
C    -1.5305265    1.9838901    1.9966097 
C     1.9218411   -2.4005926    0.8869940 
C    -0.1721935    2.2468035    2.2718156 
C     2.5790410   -1.2896939    1.4568316 
C    -2.5095247    2.9328199    2.3560089 
C     2.6499617   -3.5777365    0.6190146 
C     0.2014937    3.4383723    2.9073118 
C     3.9436582   -1.3600093    1.7661209 
C    -2.1298829    4.1268876    2.9839835 
C     4.0171876   -3.6395409    0.9218339 
C    -0.7774228    4.3802533    3.2606783 
C     4.6639717   -2.5342995    1.4954857 
H    -0.3305978   -1.0286075    3.1486101 
H    -1.4884811   -2.1321394    3.8876854 
H    -3.1985914   -1.4570294    2.0427601 
H    -2.8338175   -0.2550179    3.3030733 
H    -1.7143169   -3.3302849    1.5924596 
H    -0.1937490   -3.5620529    2.4871039 
H    -3.2663558    0.7685803    0.6220630 
H    -0.0084056   -3.3754426   -0.4139169 
H     0.5943406    1.5221246    1.9721744 
H     2.0221832   -0.3644381    1.6463904 
H    -3.5658440    2.7505497    2.1307654 
H     2.1571779   -4.4400748    0.1574042 
H     1.2571079    3.6361122    3.1195959 
H     4.4477869   -0.4961100    2.2111499 
H    -2.8931197    4.8642311    3.2530811 
H     4.5795223   -4.5531895    0.7037159 
H    -0.4851335    5.3155098    3.7489334 
H     5.7324274   -2.5860176    1.7284565 
