109
Energy =
C    -1.6652466    0.9782283   -1.9740152 
C    -2.4424573    1.4980061   -0.8946475 
C    -1.9126360    2.4975297   -0.0488660 
H    -3.4046752    1.0359774   -0.6436549 
Pd   -0.6512583    0.5537104   -0.0203335 
P    -0.1531619    0.6084600    2.2693673 
P     0.8167705   -1.0759189   -0.7954420 
H    -0.9195221    1.6602418   -2.4057771 
H    -1.0409103    3.0514371   -0.4291569 
C    -2.8293787   -2.1871392   -4.6600386 
C    -1.7796419   -1.3151954   -4.9876734 
C    -1.4299571   -0.2786634   -4.1137325 
C    -2.1064597   -0.0973008   -2.8840277 
C    -3.1776931   -0.9700297   -2.5813822 
C    -3.5348170   -1.9991312   -3.4597493 
H    -3.1069404   -2.9979591   -5.3409287 
H    -1.2366380   -1.4355862   -5.9302653 
H    -0.6252143    0.4122790   -4.3891094 
H    -3.7375713   -0.8488023   -1.6482828 
H    -4.3684407   -2.6618671   -3.2054742 
C    -3.9000452    4.5734806    3.1398698 
C    -2.6002294    4.9301964    2.7518906 
C    -1.9588954    4.2270750    1.7262219 
C    -2.6027037    3.1515514    1.0694058 
C    -3.9049429    2.7900578    1.4871787 
C    -4.5461405    3.4984447    2.5062844 
H    -4.4095065    5.1280879    3.9345813 
H    -2.0871550    5.7632539    3.2431545 
H    -0.9464941    4.5130616    1.4220887 
H    -4.4273089    1.9572335    1.0075290 
H    -5.5568621    3.2103472    2.8115532 
O     3.2718636    0.1172967    4.4783686 
N     2.8662487   -0.5214382    2.3236163 
N     4.4236054    1.1664875    2.7916693 
C     2.2111400   -1.6401559    0.3143313 
C    -0.1349677   -2.6115259   -1.2749786 
C     1.7218427   -0.4968128   -2.3580741 
C     1.7923002   -2.4597751    1.5619781 
C     1.8645655   -1.4961444    2.7573535 
C     3.0470663   -0.4550442    0.8769049 
C    -1.2934624   -2.8626131   -0.2576028 
C     0.6702063   -3.9060250   -1.5170777 
C     2.9460954   -1.3174625   -2.6922805 
C     2.0438721    1.0176539   -2.2833743 
C    -1.7606156   -4.3359219   -0.2664523 
C    -0.2284644   -4.9716208   -2.1935878 
C     4.1365900   -0.7856534   -3.0367217 
C     3.0374902    1.4421017   -3.3744772 
C    -1.6921234   -4.9176874   -1.6860737 
C     4.3691895    0.6936410   -3.2121863 
C     0.5329529   -0.8567641    3.2093747 
C     3.5271311    0.2374127    3.2785582 
C     0.9191200    2.0283154    2.7058767 
C    -1.7380160    0.7659511    3.1957085 
C     1.7470692   -0.9372661   -6.3685740 
C     1.3078545    2.3130437    4.0316197 
C    -1.9783275    1.7200265    4.1996567 
C     1.3828958    2.8552559    1.6603513 
C    -2.7391399   -0.1817263    2.8851396 
C     2.1224443    3.4208991    4.3003322 
C    -3.1903497    1.7018405    4.9058896 
C     2.1975276    3.9611396    1.9328475 
C    -3.9449854   -0.1974434    3.5967848 
C     2.5617402    4.2487811    3.2566919 
C    -4.1684449    0.7407174    4.6166661 
H     2.8476334   -2.2566678   -0.3405984 
H    -0.5922500   -2.3091386   -2.2375692 
H     0.9524851   -0.6676431   -3.1371388 
H     0.8078256   -2.9408981    1.4711597 
H     2.5304590   -3.2658413    1.7101666 
H     2.2556551   -2.0178459    3.6473823 
H     4.1124314   -0.5709243    0.5956719 
H     2.7049579    0.5248120    0.4864490 
H    -0.9921563   -2.5738371    0.7655849 
H    -2.1301553   -2.1946773   -0.5237283 
H     1.5550971   -3.7236794   -2.1474776 
H     1.0491781   -4.2857192   -0.5511147 
H     4.8369865    1.0789211    1.8668704 
H     2.8439434   -2.4086124   -2.6769753 
H     1.1096130    1.5980304   -2.3581576 
H     2.4771494    1.2614056   -1.2955457 
H    -1.1236285   -4.9382178    0.4091711 
H    -2.7855663   -4.3984443    0.1394670 
H     0.2077178   -5.9687633   -2.0053451 
H    -0.2107455   -4.8215128   -3.2881314 
H     1.6874631   -1.4942397   -5.4203411 
H     4.9725561   -1.4631956   -3.2536447 
H     3.1961997    2.5338454   -3.3349807 
H     2.6107267    1.2115066   -4.3682862 
H    -2.2962637   -4.2793963   -2.3568768 
H    -2.1448072   -5.9233802   -1.7190813 
H     4.9345607    1.0938843   -2.3443951 
H     5.0201327    0.8616233   -4.0897211 
H     0.6562256   -0.4895198    4.2431917 
H    -0.2714749   -1.6132185    3.2294529 
H     5.0025239    1.6079057    3.5020991 
H     1.2995696   -1.5340804   -7.1791626 
H     2.8038098   -0.7340714   -6.6034299 
H     1.2037950    0.0172761   -6.2749759 
H     1.0044077    1.6631795    4.8565883 
H    -1.2331426    2.4873599    4.4251897 
H     1.0994282    2.6191163    0.6269521 
H    -2.5697073   -0.9111490    2.0822972 
H     2.4236600    3.6277750    5.3320330 
H    -3.3696784    2.4518007    5.6829349 
H     2.5497218    4.5956309    1.1126834 
H    -4.7105590   -0.9423373    3.3554256 
H     3.1977927    5.1131848    3.4747403 
H    -5.1093520    0.7292034    5.1763398 
