64
Energy =
C    -1.5563507   -1.2151657    1.8219403 
C    -2.1617029   -0.7071708    0.6370857 
C    -2.1816433   -1.4973438   -0.5458737 
H    -2.4570781    0.3482307    0.5907521 
Pd   -0.0723710   -1.1811897    0.1423372 
P     0.9250119   -1.3351996   -1.9450906 
P     1.8513897   -1.0196153    1.4260236 
H    -1.5449531   -2.3103630    1.9384197 
H    -2.1463264   -2.5896842   -0.4079859 
C    -1.0245684    0.9049999    5.5255739 
C    -1.0062571   -0.4968843    5.4937182 
C    -1.1674164   -1.1724883    4.2775752 
C    -1.3588796   -0.4596092    3.0719179 
C    -1.3500762    0.9543074    3.1171938 
C    -1.1908586    1.6267659    4.3316492 
H    -0.9021272    1.4358015    6.4751353 
H    -0.8745608   -1.0668168    6.4192458 
H    -1.1665729   -2.2685515    4.2592521 
H    -1.4563968    1.5337267    2.1941453 
H    -1.1858588    2.7210270    4.3481722 
C    -3.5734554   -0.3309355   -4.4437259 
C    -3.3718495   -1.6825464   -4.1284577 
C    -2.9142140   -2.0438610   -2.8554995 
C    -2.6540174   -1.0619131   -1.8717703 
C    -2.8446032    0.2978259   -2.2114036 
C    -3.3045316    0.6564578   -3.4812723 
H    -3.9341080   -0.0452047   -5.4370341 
H    -3.5794558   -2.4582778   -4.8727057 
H    -2.7700162   -3.1021983   -2.6086660 
H    -2.6238234    1.0833876   -1.4817073 
H    -3.4463153    1.7134506   -3.7268482 
C     3.4740507   -1.9847083   -0.7587480 
C     3.4749571   -1.1025419    0.5079089 
C     2.7920209   -1.3377022   -1.9831208 
C     1.9859364    0.4573093    2.4866475 
C     0.4297933   -0.0448553   -3.1352924 
C     2.1924396    0.3575225    3.8758768 
C     0.4242411    1.2990091   -2.7026799 
C     1.8587246    1.7292669    1.8869223 
C     0.0571832   -0.3548533   -4.4572686 
C     2.2825294    1.5209637    4.6523944 
C     0.0738689    2.3218396   -3.5917740 
C     1.9644165    2.8869393    2.6663731 
C    -0.3059526    0.6730851   -5.3382879 
C     2.1756585    2.7828742    4.0506518 
C    -0.2920595    2.0085896   -4.9105541 
H     4.5278351   -2.1771682   -1.0291866 
H     3.0338504   -2.9781627   -0.5443034 
H     4.2383106   -1.4475859    1.2264346 
H     3.7325868   -0.0592870    0.2482165 
H     3.1012982   -1.8396171   -2.9161732 
H     3.0956316   -0.2787424   -2.0762623 
H     1.9859628   -2.0690085    2.3722241 
H     0.6050014   -2.5239799   -2.6520367 
H     2.2743956   -0.6233300    4.3551104 
H     0.6850939    1.5403671   -1.6648526 
H     1.6744738    1.8123132    0.8087513 
H     0.0394586   -1.3951048   -4.7983992 
H     2.4355616    1.4381085    5.7330153 
H     0.0763955    3.3633121   -3.2542604 
H     1.8746449    3.8714401    2.1960055 
H    -0.6024288    0.4269821   -6.3628357 
H     2.2514283    3.6881836    4.6615655 
H    -0.5733218    2.8075796   -5.6041587 
