64
Energy =
C    -2.3582074    0.4361258   -0.5552201 
C    -2.1176030    0.0713002    0.8006608 
C    -1.7101711    1.0486313    1.7460929 
H    -2.0809597   -0.9901048    1.0735930 
Pd   -0.2583637    0.9816552    0.0378930 
P     1.6122494    1.5172202    1.3041479 
P     0.8026550    1.2560416   -2.0114606 
H    -2.6677402    1.4761463   -0.7414150 
H    -1.9922198    2.0917820    1.5324615 
C    -3.4575857   -2.2562657   -3.7231899 
C    -3.6275386   -0.8712606   -3.8659351 
C    -3.2447620   -0.0073131   -2.8344231 
C    -2.6882596   -0.5089615   -1.6355056 
C    -2.4955934   -1.9059973   -1.5185749 
C    -2.8839941   -2.7689755   -2.5478686 
H    -3.7638895   -2.9343183   -4.5262358 
H    -4.0614493   -0.4622080   -4.7835994 
H    -3.3892276    1.0727637   -2.9481795 
H    -2.0430424   -2.3252495   -0.6135732 
H    -2.7403903   -3.8485570   -2.4341036 
C    -0.4566370    0.4400124    5.8140639 
C    -0.6705155   -0.6725798    4.9838491 
C    -1.0810985   -0.4970128    3.6594754 
C    -1.2957312    0.7996526    3.1377236 
C    -1.0733600    1.9108593    3.9847151 
C    -0.6576686    1.7334779    5.3095791 
H    -0.1347347    0.2975103    6.8506177 
H    -0.5092831   -1.6835604    5.3704112 
H    -1.2307310   -1.3775393    3.0273672 
H    -1.2394687    2.9227749    3.5967897 
H    -0.4991798    2.6056500    5.9521581 
C     3.3811512    0.7067319   -0.7330523 
C     2.6531085    0.9291706   -2.0731448 
C     3.1773412    1.8043331    0.3355441 
C     0.1551060    0.5158973   -3.5454557 
C     2.0287150    0.1988108    2.4978511 
C    -0.3004423    1.3170451   -4.6120796 
C     1.8270030   -1.1487260    2.1284462 
C     0.1034710   -0.8901719   -3.6527412 
C     2.5526475    0.5020175    3.7702610 
C    -0.7781453    0.7137999   -5.7841795 
C     2.1713406   -2.1794924    3.0123760 
C    -0.3663054   -1.4839697   -4.8292495 
C     2.8796346   -0.5334482    4.6558577 
C    -0.8048818   -0.6836981   -5.8959889 
C     2.6967540   -1.8719758    4.2765350 
H     3.0980126   -0.2765990   -0.3113413 
H     4.4599568    0.6330608   -0.9584859 
H     3.1030991    1.7720328   -2.6273348 
H     2.7709057    0.0339381   -2.7080118 
H     3.1190713    2.8105119   -0.1208428 
H     4.0161637    1.8132269    1.0525566 
H     0.7444915    2.6364973   -2.3403784 
H     1.5479740    2.6630492    2.1393982 
H    -0.2735340    2.4097687   -4.5352675 
H     1.3833979   -1.3863085    1.1536438 
H     0.4249270   -1.5212929   -2.8162503 
H     2.6941476    1.5438627    4.0768988 
H    -1.1232687    1.3394983   -6.6136251 
H     2.0190709   -3.2231724    2.7189014 
H    -0.4051710   -2.5746487   -4.9079082 
H     3.2768094   -0.2925104    5.6470821 
H    -1.1754426   -1.1518528   -6.8135281 
H     2.9573922   -2.6770857    4.9711991 
