64
Energy =
C    -2.3605095    1.1294449   -0.6249493 
C    -2.2008390    0.5409361    0.6615676 
C    -1.6203578    1.2937624    1.7207574 
H    -2.3668016   -0.5358717    0.7889838 
Pd   -0.2052920    1.1694283   -0.0122973 
P     1.7568871    1.3832852    1.2045965 
P     0.7132563    1.1713450   -2.1407746 
H    -2.4661733    2.2254559   -0.6548934 
H    -1.7299322    2.3882880    1.6637991 
C    -3.7919085   -0.8151145   -4.1833793 
C    -3.2838232   -1.5902161   -3.1274402 
C    -2.8021845   -0.9751214   -1.9688791 
C    -2.8297926    0.4329261   -1.8358323 
C    -3.3241815    1.2010711   -2.9148757 
C    -3.8044411    0.5831066   -4.0761589 
H    -4.1699372   -1.3012976   -5.0884437 
H    -3.2548038   -2.6808508   -3.2134033 
H    -2.3913677   -1.5949315   -1.1652583 
H    -3.3486353    2.2937061   -2.8294304 
H    -4.1970551    1.1944811   -4.8951870 
C    -0.6452055   -0.1105749    5.6665749 
C    -0.8394550   -1.0387354    4.6299398 
C    -1.1471547   -0.6009065    3.3391028 
C    -1.2794817    0.7792291    3.0587952 
C    -1.0632650    1.7024559    4.1076068 
C    -0.7522838    1.2620946    5.3999835 
H    -0.4053151   -0.4581455    6.6765508 
H    -0.7405578   -2.1103406    4.8287458 
H    -1.2754303   -1.3387544    2.5405912 
H    -1.1591241    2.7758216    3.9063696 
H    -0.6016111    1.9920182    6.2020243 
C     3.2011062    2.2407826   -1.1438488 
C     2.5666590    1.3678091   -2.2477014 
C     3.3382007    1.5366593    0.2229420 
C     0.3324035   -0.2844294   -3.1705310 
C     2.0798119    0.0566553    2.4137718 
C    -0.2079586   -0.1585840   -4.4646439 
C     2.4172837    0.3358497    3.7519866 
C     0.5793084   -1.5677764   -2.6361909 
C     1.9782027   -1.2837605    1.9819685 
C    -0.4861043   -1.3071127   -5.2184674 
C     2.6609826   -0.7178467    4.6436702 
C     0.3129292   -2.7098405   -3.4002432 
C     2.2367224   -2.3307869    2.8742344 
C    -0.2209386   -2.5795588   -4.6923540 
C     2.5776571   -2.0476629    4.2065084 
H     4.2178288    2.5131215   -1.4796134 
H     2.6541617    3.1980678   -1.0385811 
H     2.7954625    1.7721206   -3.2488608 
H     2.9841712    0.3446803   -2.2154870 
H     4.0712923    2.0586443    0.8619412 
H     3.7128498    0.5054630    0.0870561 
H     0.2488699    2.2352785   -2.9579169 
H     1.7956368    2.5410459    2.0250483 
H    -0.4209212    0.8306337   -4.8825476 
H     2.4808506    1.3709285    4.1030018 
H     0.9755860   -1.6711609   -1.6186212 
H     1.6888101   -1.5053201    0.9473680 
H    -0.9132829   -1.2045594   -6.2209839 
H     2.9152692   -0.4962680    5.6849880 
H     0.5135736   -3.7029486   -2.9854952 
H     2.1635574   -3.3687361    2.5338160 
H    -0.4357863   -3.4729124   -5.2875885 
H     2.7725810   -2.8664712    4.9065886 
