64
Energy =
C    -2.3594728    0.3857342   -0.5640771 
C    -2.1185989    0.0183773    0.7913818 
C    -1.7394752    0.9990215    1.7448509 
H    -2.0588744   -1.0435898    1.0580869 
Pd   -0.2773990    0.9754176    0.0438480 
P     1.5775682    1.5352678    1.3232146 
P     0.7868069    1.2916676   -1.9976530 
H    -2.6954806    1.4182788   -0.7458331 
H    -2.0426990    2.0369649    1.5348074 
C    -3.3717459   -2.3199020   -3.7498318 
C    -3.5884183   -0.9404821   -3.8828190 
C    -3.2333191   -0.0710606   -2.8459467 
C    -2.6587622   -0.5619378   -1.6511758 
C    -2.4184811   -1.9524041   -1.5442860 
C    -2.7790649   -2.8209857   -2.5789601 
H    -3.6563352   -3.0023841   -4.5571098 
H    -4.0373858   -0.5400543   -4.7970506 
H    -3.4143378    1.0042557   -2.9520638 
H    -1.9496149   -2.3619285   -0.6430931 
H    -2.5985422   -3.8958144   -2.4730168 
C    -0.4943333    0.3972363    5.8163261 
C    -0.6864543   -0.7159350    4.9816016 
C    -1.0941182   -0.5427398    3.6560016 
C    -1.3276101    0.7519635    3.1375386 
C    -1.1275506    1.8638350    3.9892460 
C    -0.7145407    1.6889187    5.3152417 
H    -0.1746260    0.2565786    6.8538140 
H    -0.5106745   -1.7254444    5.3656570 
H    -1.2272012   -1.4235635    3.0206139 
H    -1.3086618    2.8741644    3.6038976 
H    -0.5731812    2.5614158    5.9613698 
C     3.3675255    0.7703574   -0.7136007 
C     2.6423535    0.9953936   -2.0547894 
C     3.1426955    1.8544864    0.3644926 
C     0.1571948    0.5613655   -3.5437761 
C     2.0094979    0.2154509    2.5098966 
C    -0.3235896    1.3691293   -4.5942512 
C     1.8302536   -1.1325335    2.1306942 
C     0.1430408   -0.8433935   -3.6766319 
C     2.5233357    0.5181618    3.7865265 
C    -0.7887848    0.7746459   -5.7758217 
C     2.1864671   -2.1637635    3.0093735 
C    -0.3145061   -1.4281358   -4.8624746 
C     2.8624521   -0.5180263    4.6666944 
C    -0.7780763   -0.6207848   -5.9131811 
C     2.7016562   -1.8566534    4.2778260 
H     3.0967424   -0.2210755   -0.3028411 
H     4.4483252    0.7146475   -0.9346098 
H     3.0812488    1.8511787   -2.5979714 
H     2.7773385    0.1089699   -2.6985312 
H     3.0717487    2.8640338   -0.0825535 
H     3.9779615    1.8688692    1.0855591 
H     0.7071805    2.6751241   -2.3088656 
H     1.4908552    2.6740936    2.1659937 
H    -0.3258583    2.4606248   -4.4976780 
H     1.3947886   -1.3703853    1.1522772 
H     0.4845250   -1.4810299   -2.8530929 
H     2.6475923    1.5599784    4.1006501 
H    -1.1534355    1.4058207   -6.5926653 
H     2.0514578   -3.2076759    2.7083673 
H    -0.3239433   -2.5178589   -4.9609994 
H     3.2517200   -0.2776196    5.6611824 
H    -1.1387438   -1.0820065   -6.8381412 
H     2.9715651   -2.6622608    4.9683618 
