64
Energy =
C    -1.5583402   -1.4421562    1.9138993 
C    -2.2063809   -0.8376494    0.8005376 
C    -2.3316006   -1.5524426   -0.4256101 
H    -2.4336341    0.2350149    0.8241022 
Pd   -0.1814160   -1.3892971    0.1555870 
P     0.7341335   -1.4513667   -1.9760391 
P     1.7939748   -1.1957574    1.3583350 
H    -1.5833705   -2.5422417    1.9644634 
H    -2.3719389   -2.6508906   -0.3572435 
C    -0.3699039    0.4121745    5.6088661 
C    -0.2876805   -0.9784622    5.4432862 
C    -0.6942253   -1.5656959    4.2392597 
C    -1.1896342   -0.7749926    3.1759799 
C    -1.2622717    0.6254712    3.3576123 
C    -0.8603956    1.2097831    4.5621200 
H    -0.0538078    0.8743554    6.5494844 
H     0.0867749   -1.6083387    6.2567936 
H    -0.6358254   -2.6536106    4.1167367 
H    -1.6267465    1.2679397    2.5500947 
H    -0.9212830    2.2957516    4.6831403 
C    -3.7531609   -0.0122565   -4.1828053 
C    -3.6462308   -1.3941526   -3.9683953 
C    -3.1820930   -1.8791078   -2.7393407 
C    -2.8186146   -0.9923443   -1.6998685 
C    -2.9141378    0.3987358   -1.9387559 
C    -3.3823674    0.8809654   -3.1639245 
H    -4.1190573    0.3695418   -5.1413057 
H    -3.9336512   -2.0972647   -4.7569452 
H    -3.1125292   -2.9602731   -2.5717717 
H    -2.6101828    1.1120741   -1.1659861 
H    -3.4492156    1.9605105   -3.3306131 
C     3.3800784   -0.8340622   -1.0121137 
C     3.3775146   -1.4451297    0.4062416 
C     2.5885566   -1.6361095   -2.0689341 
C     1.9543969    0.4224614    2.1924730 
C     0.3165210   -0.0077699   -3.0133907 
C     1.4309856    1.5753159    1.5713706 
C    -0.1310651   -0.1730659   -4.3392907 
C     2.5897055    0.5360768    3.4455208 
C     0.4350750    1.2915038   -2.4759291 
C     1.5636286    2.8290406    2.1814920 
C    -0.4477495    0.9496714   -5.1157701 
C     2.7070750    1.7904448    4.0588796 
C     0.1312773    2.4101646   -3.2613248 
C     2.2016046    2.9367108    3.4264566 
C    -0.3126710    2.2396290   -4.5818745 
H     3.0352823    0.2180384   -0.9813286 
H     4.4304483   -0.7899735   -1.3509038 
H     3.5487253   -2.5366790    0.3540641 
H     4.1933118   -1.0127450    1.0115528 
H     2.8039008   -2.7164113   -1.9683920 
H     2.8921395   -1.3337436   -3.0861357 
H     1.9730904   -2.0897334    2.4463048 
H     0.3009984   -2.5159471   -2.8084606 
H     0.8969685    1.4818310    0.6189886 
H    -0.2466722   -1.1756762   -4.7640296 
H     2.9819572   -0.3533436    3.9503787 
H     0.7601628    1.4261911   -1.4389572 
H     1.1581868    3.7202584    1.6916154 
H    -0.8046107    0.8136461   -6.1415983 
H     3.1932618    1.8715525    5.0363310 
H     0.2330988    3.4156768   -2.8403866 
H     2.2983666    3.9146188    3.9091272 
H    -0.5587376    3.1135405   -5.1936704 
