64
Energy =
C    -2.3595868    0.4539518   -0.5514159 
C    -2.1186603    0.0874345    0.8038424 
C    -1.7016924    1.0616528    1.7484279 
H    -2.0891730   -0.9741757    1.0767724 
Pd   -0.2542344    0.9851905    0.0371212 
P     1.6204396    1.5135175    1.3003432 
P     0.8037888    1.2513532   -2.0150882 
H    -2.6602552    1.4966698   -0.7370960 
H    -1.9772819    2.1067513    1.5358972 
C    -3.4878457   -2.2280442   -3.7180896 
C    -2.9243542   -2.7467585   -2.5405402 
C    -2.5267955   -1.8876489   -1.5115143 
C    -2.7003294   -0.4883113   -1.6308195 
C    -3.2475797    0.0190137   -2.8316453 
C    -3.6390513   -0.8410798   -3.8630803 
H    -3.8009558   -2.9030401   -4.5210837 
H    -2.7954550   -3.8280038   -2.4249736 
H    -2.0822042   -2.3118277   -0.6048960 
H    -3.3776099    1.1007635   -2.9470555 
H    -4.0652644   -0.4275396   -4.7823357 
C    -0.4426662    0.4425089    5.8131326 
C    -0.6390123    1.7374673    5.3106636 
C    -1.0566689    1.9183367    3.9868718 
C    -1.2856607    0.8091822    3.1389721 
C    -1.0755573   -0.4890742    3.6586487 
C    -0.6631240   -0.6681079    4.9819723 
H    -0.1189956    0.2973016    6.8487604 
H    -0.4751373    2.6081352    5.9539320 
H    -1.2191215    2.9314569    3.6005432 
H    -1.2298600   -1.3680993    3.0255684 
H    -0.5052281   -1.6802541    5.3668628 
C     3.3840374    0.6991404   -0.7401376 
C     2.6545219    0.9249328   -2.0788251 
C     3.1850205    1.7962526    0.3298273 
C     0.1541326    0.5013443   -3.5434136 
C     2.0345499    0.1931981    2.4927439 
C    -0.2891955    1.2945819   -4.6209969 
C     1.8281895   -1.1534259    2.1225265 
C     0.0907827   -0.9053361   -3.6353927 
C     2.5610633    0.4937841    3.7646990 
C    -0.7667501    0.6825084   -5.7885734 
C     2.1703894   -2.1859558    3.0052112 
C    -0.3786300   -1.5080920   -4.8074714 
C     2.8859239   -0.5434034    4.6490692 
C    -0.8052269   -0.7158701   -5.8850213 
C     2.6983485   -1.8810566    4.2689518 
H     3.0990763   -0.2839131   -0.3189823 
H     4.4622800    0.6229045   -0.9674397 
H     3.1040270    1.7694512   -2.6309128 
H     2.7720140    0.0314928   -2.7162387 
H     3.1295758    2.8030202   -0.1256108 
H     4.0248137    1.8016521    1.0457472 
H     0.7445944    2.6297915   -2.3520836 
H     1.5606308    2.6591572    2.1361939 
H    -0.2534278    2.3878100   -4.5559461 
H     1.3826342   -1.3888308    1.1480912 
H     0.4028614   -1.5296522   -2.7902865 
H     2.7060911    1.5349583    4.0719728 
H    -1.1027620    1.3019035   -6.6264530 
H     2.0146428   -3.2289313    2.7110556 
H    -0.4264485   -2.5992005   -4.8743544 
H     3.2852738   -0.3044996    5.6399134 
H    -1.1754781   -1.1909216   -6.7991395 
H     2.9575768   -2.6875173    4.9625779 
