64
Energy =
C    -2.2469691    0.5153459   -0.6244966 
C    -2.0399600   -0.0738852    0.6491753 
C    -1.5056794    0.6713561    1.7311506 
H    -2.1617719   -1.1575101    0.7593864 
Pd   -0.0644135    0.6898579   -0.0239244 
P     1.9188365    1.1857083    1.0975878 
P     0.9006338    0.9845809   -2.1258480 
H    -2.3601700    1.6100379   -0.6553438 
H    -1.6195924    1.7655560    1.6877461 
C    -3.9097022   -1.4330192   -4.0776349 
C    -3.5682561   -2.1980549   -2.9503372 
C    -3.0002174   -1.5865780   -1.8289280 
C    -2.7763823   -0.1896720   -1.8033615 
C    -3.1157151    0.5639092   -2.9509135 
C    -3.6746152   -0.0500296   -4.0761844 
H    -4.3552792   -1.9145190   -4.9539709 
H    -3.7485111   -3.2780200   -2.9459384 
H    -2.7428051   -2.2036029   -0.9620331 
H    -2.9434778    1.6460830   -2.9516129 
H    -3.9296767    0.5522132   -4.9535853 
C    -0.8246140   -0.7790110    5.7208620 
C    -1.1718235   -1.6858995    4.7061423 
C    -1.3699337   -1.2372708    3.3970601 
C    -1.2416447    0.1349206    3.0763029 
C    -0.8816288    1.0328226    4.1078935 
C    -0.6736195    0.5817686    5.4150997 
H    -0.6708820   -1.1330391    6.7452434 
H    -1.2910248   -2.7491648    4.9386061 
H    -1.6412777   -1.9628707    2.6234558 
H    -0.7716419    2.0983455    3.8768642 
H    -0.3950725    1.2937766    6.1980715 
C     3.6325031    1.1733138   -1.2213762 
C     2.7009244    0.5159167   -2.2565662 
C     3.4844485    0.6690973    0.2261268 
C     0.1731296    0.2629871   -3.6328293 
C     2.2102181    0.6649663    2.8195787 
C    -0.0461903    1.0449509   -4.7854811 
C     2.6716154    1.5768832    3.7910233 
C    -0.1297532   -1.1140651   -3.6502756 
C     2.0110947   -0.6877037    3.1645095 
C    -0.5463248    0.4464866   -5.9498927 
C     2.9486317    1.1312036    5.0905573 
C    -0.6217170   -1.7056010   -4.8194053 
C     2.2971598   -1.1263088    4.4624562 
C    -0.8288104   -0.9273252   -5.9688529 
C     2.7667135   -0.2189301    5.4247147 
H     4.6714954    0.9659597   -1.5365085 
H     3.5253398    2.2749522   -1.2555081 
H     3.0185054    0.7779888   -3.2807210 
H     2.7413517   -0.5861857   -2.1772951 
H     4.3220229    1.0315046    0.8470302 
H     3.5095451   -0.4357152    0.2618140 
H     0.9611078    2.3591439   -2.4829862 
H     2.1254780    2.5885018    1.1976621 
H     0.1768486    2.1178135   -4.7781784 
H     2.8197469    2.6319705    3.5348443 
H     0.0122611   -1.7207084   -2.7485432 
H     1.6257586   -1.3945545    2.4207579 
H    -0.7128109    1.0554378   -6.8443465 
H     3.3096596    1.8407600    5.8421072 
H    -0.8578169   -2.7740231   -4.8290179 
H     2.1392286   -2.1761245    4.7275121 
H    -1.2187640   -1.3924085   -6.8799235 
H     2.9842862   -0.5643201    6.4404784 
