64
Energy =
C    -1.4250661   -1.2426618    1.9233497 
C    -2.1484892   -0.8342498    0.7716958 
C    -2.1739036   -1.6535982   -0.3927637 
H    -2.5275076    0.1930997    0.7121790 
Pd   -0.0674252   -1.1623683    0.1150175 
P     0.7066188   -1.3657820   -2.0628073 
P     2.0645246   -0.7030128    0.9418551 
H    -1.2376831   -2.3221693    2.0384295 
H    -2.0695810   -2.7388490   -0.2384720 
C    -0.9161582    0.9584196    5.5827736 
C    -0.2873558   -0.2823011    5.3963500 
C    -0.4597900   -0.9811872    4.1979989 
C    -1.2568711   -0.4533796    3.1552979 
C    -1.8746003    0.8033492    3.3537593 
C    -1.7107308    1.4964165    4.5577577 
H    -0.7901005    1.5032567    6.5238120 
H     0.3378297   -0.7062824    6.1882682 
H     0.0298688   -1.9516627    4.0588810 
H    -2.5110935    1.2352167    2.5746714 
H    -2.2116466    2.4595003    4.7007787 
C    -3.6490928   -0.6091534   -4.2985555 
C    -3.3664439   -1.9434555   -3.9709946 
C    -2.9021994   -2.2678276   -2.6902730 
C    -2.7121594   -1.2650008   -1.7111638 
C    -2.9968826    0.0759134   -2.0593817 
C    -3.4635890    0.3976145   -3.3369723 
H    -4.0109537   -0.3525767   -5.2992827 
H    -3.5140718   -2.7352279   -4.7126702 
H    -2.6906256   -3.3130017   -2.4360393 
H    -2.8372500    0.8790062   -1.3327224 
H    -3.6729981    1.4417200   -3.5894943 
C     3.4275896   -0.4611086   -1.6492807 
C     3.0238783    0.2642192   -0.3376382 
C     2.5447395   -1.6191262   -2.1698051 
C     2.2544192    0.2687253    2.4696518 
C     0.2443529    0.0004118   -3.1794523 
C     1.4800744    1.4384090    2.6184393 
C    -0.0133440   -0.2305300   -4.5458025 
C     3.1533572   -0.1122423    3.4865003 
C     0.1225049    1.3051346   -2.6566672 
C     1.6279824    2.2341066    3.7597766 
C    -0.3756825    0.8366499   -5.3782839 
C     3.2862689    0.6835260    4.6327875 
C    -0.2280503    2.3698976   -3.4960782 
C     2.5300689    1.8573941    4.7668872 
C    -0.4780419    2.1354481   -4.8569999 
H     3.5017327    0.3097184   -2.4363967 
H     4.4447170   -0.8725779   -1.5260292 
H     3.9228124    0.6752860    0.1517923 
H     2.3648995    1.1234327   -0.5569019 
H     2.7180093   -2.5395769   -1.5794234 
H     2.8210514   -1.8478390   -3.2137548 
H     2.9123227   -1.8142008    1.2001048 
H     0.2313503   -2.4992056   -2.7718281 
H     0.7540605    1.7187652    1.8462104 
H     0.0547155   -1.2427518   -4.9586527 
H     3.7518910   -1.0244037    3.3849477 
H     0.2793307    1.4801455   -1.5855059 
H     1.0244914    3.1397375    3.8722500 
H    -0.5818366    0.6517332   -6.4373981 
H     3.9861422    0.3867563    5.4206569 
H    -0.3180714    3.3810795   -3.0862650 
H     2.6379151    2.4771095    5.6628692 
H    -0.7602240    2.9661118   -5.5119930 
