64
Energy =
C    -1.5225842   -1.4886339    1.8892435 
C    -2.1835847   -0.8982754    0.7754511 
C    -2.2830840   -1.6119300   -0.4532379 
H    -2.4425182    0.1670647    0.8028049 
Pd   -0.1404285   -1.3878788    0.1375068 
P     0.7747356   -1.4016991   -1.9952470 
P     1.8290412   -1.1651603    1.3447557 
H    -1.5190907   -2.5891188    1.9364555 
H    -2.2865506   -2.7113722   -0.3884129 
C    -0.4373866    0.3829052    5.6072937 
C    -0.3304972   -1.0062070    5.4438194 
C    -0.7000793   -1.5992458    4.2306534 
C    -1.1833482   -0.8159236    3.1565813 
C    -1.2775614    0.5837956    3.3349618 
C    -0.9128526    1.1737325    4.5484288 
H    -0.1508869    0.8494676    6.5552106 
H     0.0338587   -1.6306823    6.2660273 
H    -0.6238036   -2.6862643    4.1101320 
H    -1.6296541    1.2210983    2.5178171 
H    -0.9906015    2.2588708    4.6671885 
C    -3.7231951   -0.1143747   -4.2203031 
C    -3.5561466   -1.4912670   -4.0119521 
C    -3.0883420   -1.9619034   -2.7788480 
C    -2.7809472   -1.0657828   -1.7291736 
C    -2.9385018    0.3207102   -1.9611335 
C    -3.4100218    0.7884637   -3.1906877 
H    -4.0919822    0.2562289   -5.1820800 
H    -3.7993553   -2.2018877   -4.8086042 
H    -2.9708704   -3.0397085   -2.6163738 
H    -2.6816044    1.0424639   -1.1792277 
H    -3.5251778    1.8647571   -3.3519611 
C     3.4004216   -0.7211896   -1.0230319 
C     3.4168290   -1.3552383    0.3852829 
C     2.6335609   -1.5301075   -2.0926230 
C     1.9546158    0.4345984    2.2185486 
C     0.3132852    0.0439235   -3.0112376 
C     1.4557263    1.6005019    1.6013065 
C    -0.0959427   -0.1103124   -4.3508224 
C     2.5390366    0.5217235    3.4981034 
C     0.3606077    1.3342722   -2.4425870 
C     1.5627743    2.8408909    2.2425832 
C    -0.4448493    1.0150275   -5.1095050 
C     2.6304136    1.7628811    4.1420707 
C     0.0252147    2.4565107   -3.2097884 
C     2.1498607    2.9221938    3.5144243 
C    -0.3798569    2.2970519   -4.5440691 
H     3.0231534    0.3191277   -0.9758950 
H     4.4489119   -0.6393520   -1.3605846 
H     3.6177049   -2.4406679    0.3146299 
H     4.2214551   -0.9108653    0.9967078 
H     2.8815006   -2.6048633   -2.0092566 
H     2.9273621   -1.2025794   -3.1049087 
H     2.0301357   -2.0799583    2.4110988 
H     0.3717635   -2.4673961   -2.8413140 
H     0.9636470    1.5284756    0.6250819 
H    -0.1567856   -1.1069991   -4.8002032 
H     2.9112223   -0.3780969    3.9994506 
H     0.6526023    1.4573368   -1.3943668 
H     1.1775816    3.7423985    1.7552480 
H    -0.7718561    0.8873181   -6.1463170 
H     3.0766880    1.8230190    5.1398476 
H     0.0709417    3.4553702   -2.7639630 
H     2.2263361    3.8896967    4.0210892 
H    -0.6510409    3.1730654   -5.1420891 
