119
Energy =
C     0.2987434   -1.7555394   -1.8577648 
C     1.3847905   -0.8592203   -1.8963008 
C     2.2936949   -0.8017123   -0.7932725 
H     1.4877405   -0.1500972   -2.7275804 
Pd    0.2422328   -0.1909237   -0.1291831 
P     0.5386273    0.3817530    2.1121294 
P    -1.9843950    0.5091324    0.1296187 
H     0.3227971   -2.5264737   -1.0735447 
H     2.4155787   -1.7236919   -0.2111996 
C    -2.5121938   -2.6562875   -4.9710755 
C    -2.3565603   -3.5150211   -3.8719974 
C    -1.4368220   -3.2013769   -2.8653812 
C    -0.6563251   -2.0225814   -2.9364217 
C    -0.8195867   -1.1702647   -4.0519386 
C    -1.7380865   -1.4859467   -5.0561995 
H    -3.2316030   -2.8987844   -5.7601197 
H    -2.9516560   -4.4313232   -3.8017327 
H    -1.3123366   -3.8729946   -2.0086487 
H    -0.2491802   -0.2404126   -4.1173395 
H    -1.8545607   -0.8106703   -5.9098485 
C     5.7675652    1.7378416   -0.8299326 
C     5.8375633    0.4370742   -0.3072604 
C     4.6973930   -0.3756096   -0.2870074 
C     3.4661360    0.0956840   -0.7975320 
C     3.4082339    1.4065524   -1.3219077 
C     4.5479490    2.2185651   -1.3348401 
H     6.6577961    2.3752429   -0.8412845 
H     6.7855880    0.0547392    0.0859250 
H     4.7497492   -1.3893722    0.1255504 
H     2.4484340    1.8006121   -1.6712376 
H     4.4842211    3.2373169   -1.7326750 
O    -1.1988625    0.7754800    4.1305670 
O    -3.2186590    1.9700483    2.0312727 
O     3.7038846   -2.3294616    3.8931355 
O    -3.7485376    2.2967670   -3.8054079 
O    -0.0807434   -3.3173332    1.1765515 
O     0.3747389    2.8478346   -1.4897450 
C    -1.0300878    1.2082449    2.7642166 
C    -2.2961922    0.8644742    1.9617148 
C     1.9142976    1.5223147    2.7726041 
C    -3.4851455   -0.5651764   -0.3464192 
C     0.3175291   -0.9094945    3.3858937 
C    -2.5127533    2.2184749   -0.2358070 
C    -0.5904648   -0.4294572    4.3604613 
C    -3.1879589    2.7354660    0.8963189 
C    -3.6239264   -0.4774609   -1.8778208 
C     1.6462886    1.9891795    4.2163731 
C     1.9594789    2.7177777    1.8023953 
C     3.2248309    0.7190028    2.7304906 
C    -4.7939324   -0.0820760    0.3081557 
C    -3.1370482   -1.9916304    0.1185944 
C    -2.4740924    2.9672622   -1.4330205 
C     0.9511740   -2.1584344    3.5707260 
C    -3.8435387    3.9718884    0.8667342 
C    -0.8516954   -1.1383230    5.5391543 
C     0.6927663   -2.8638014    4.7636246 
C    -3.1472932    4.2069641   -1.4610351 
C     1.8350057   -2.7923447    2.5446442 
C    -1.7153546    2.5542393   -2.6523635 
C    -3.8213866    4.6957866   -0.3316354 
C    -0.1874120   -2.3557641    5.7325094 
C    -2.3894943    2.3085135   -3.8802545 
C     3.2358166   -2.9054773    2.7523570 
C    -0.3063873    2.5808144   -2.6652954 
C     1.2805852   -3.4181414    1.4102002 
C     4.0475545   -3.5825066    1.8205010 
C    -1.6646416    2.1107900   -5.0709295 
C     0.4257300    2.3782979   -3.8491510 
C     2.0795853   -4.1207950    0.4906086 
C    -0.2630587    2.1544506   -5.0464127 
C     3.4609682   -4.1893866    0.7004331 
C    -4.5081892    2.0210343   -4.9830165 
C     5.1058008   -2.3646189    4.1665634 
C     0.6567217    4.2460183   -1.2951291 
C    -0.8516096   -4.4074670    1.7124625 
H    -0.9088695    2.3031374    2.7789508 
H    -2.7844476   -0.0026605    2.4353938 
H     1.0148165    3.2911368    1.8150201 
H     4.0653084    1.3826605    3.0050410 
H     3.4298869    0.3230952    1.7251389 
H     3.1996874   -0.1192918    3.4451845 
H     2.4974097    2.6168838    4.5390719 
H     0.7306374    2.5954267    4.3117084 
H     2.7726753    3.4033140    2.1027404 
H    -5.6161807   -0.7325420   -0.0432866 
H    -5.0378853    0.9525822    0.0142840 
H     1.5765426    1.1369742    4.9132871 
H    -3.9257582   -2.6915896   -0.2125764 
H    -2.1736096   -2.3275180   -0.2958451 
H    -3.0712091   -2.0524471    1.2199533 
H    -4.3863656   -1.2022738   -2.2166465 
H    -2.6828375   -0.7155381   -2.3940778 
H    -3.9449779    0.5299920   -2.1896598 
H    -4.7731207   -0.1382370    1.4090080 
H     2.1517766    2.3837928    0.7702431 
H    -1.5551241   -0.7344919    6.2720724 
H    -4.3556525    4.3374031    1.7606326 
H     1.1863814   -3.8269118    4.9232709 
H    -3.1298935    4.7941886   -2.3836488 
H    -4.3289903    5.6644805   -0.3835807 
H    -0.3710167   -2.9280758    6.6476397 
H    -2.1831259    1.9352316   -6.0157825 
H     5.1264363   -3.6576763    1.9722380 
H     1.6089765   -4.5993241   -0.3728780 
H     1.5178262    2.4295467   -3.8207320 
H     4.0954918   -4.7234806   -0.0139985 
H     0.2944685    2.0074730   -5.9771121 
H    -4.3310571    2.7847393   -5.7630337 
H     5.4694642   -3.4047490    4.2590302 
H     5.6784512   -1.8377430    3.3799627 
H     5.2342496   -1.8439799    5.1260614 
H    -4.2705660    1.0172747   -5.3831021 
H    -5.5618576    2.0532902   -4.6714083 
H     1.2154441    4.6561072   -2.1572924 
H     1.2716012    4.3195874   -0.3875710 
H    -0.4989657   -5.3746353    1.3077842 
H    -0.7876531   -4.4239519    2.8160730 
H    -1.8932045   -4.2352772    1.4054566 
H    -0.2809830    4.8158928   -1.1588330 
