119
Energy =
C     0.3036255   -1.7749781   -1.8421869 
C     1.3854147   -0.8744286   -1.8886958 
C     2.2940084   -0.8015319   -0.7856604 
H     1.4862960   -0.1736635   -2.7272961 
Pd    0.2446621   -0.1876959   -0.1274158 
P     0.5409575    0.4040206    2.1081370 
P    -1.9841437    0.5087073    0.1260053 
H     0.3290164   -2.5367651   -1.0491380 
H     2.4204284   -1.7173787   -0.1949899 
C    -2.5062252   -2.7141549   -4.9447853 
C    -2.3485513   -3.5609785   -3.8367759 
C    -1.4295519   -3.2346159   -2.8335342 
C    -0.6514126   -2.0550615   -2.9173006 
C    -0.8169335   -1.2146874   -4.0416045 
C    -1.7350767   -1.5427757   -5.0421553 
H    -3.2250383   -2.9666496   -5.7312326 
H    -2.9415577   -4.4778395   -3.7568729 
H    -1.3035679   -3.8967631   -1.9696839 
H    -0.2486929   -0.2842655   -4.1168447 
H    -1.8537195   -0.8764343   -5.9024890 
C     5.7615006    1.7461791   -0.8604150 
C     4.5383250    2.2195553   -1.3636216 
C     3.4006086    1.4050265   -1.3377944 
C     3.4643078    0.0988653   -0.8024692 
C     4.6991448   -0.3650975   -0.2939676 
C     5.8371652    0.4502200   -0.3267168 
H     6.6500889    2.3856213   -0.8814520 
H     4.4703168    3.2344440   -1.7705223 
H     2.4381190    1.7934134   -1.6861990 
H     4.7561896   -1.3753418    0.1265265 
H     6.7880184    0.0736451    0.0651909 
O    -1.1963737    0.8138320    4.1235952 
O    -3.2201166    1.9844310    2.0154066 
O    -0.0666292   -3.3065168    1.2045728 
O     0.3618265    2.8334666   -1.5166711 
O     3.7097871   -2.2823704    3.9194757 
O    -3.7605180    2.2507328   -3.8267807 
C    -1.0289683    1.2341373    2.7531970 
C    -2.2950157    0.8804266    1.9549931 
C     1.9153196    1.5527010    2.7572903 
C    -3.4811399   -0.5759024   -0.3381374 
C     0.3222698   -0.8757919    3.3939134 
C    -2.5198685    2.2120216   -0.2555937 
C    -0.5865746   -0.3882964    4.3640340 
C    -3.1947157    2.7380800    0.8725011 
C    -3.1278830   -1.9960758    0.1419949 
C     3.2274743    0.7517734    2.7199751 
C     1.6483235    2.0307605    4.1976080 
C     1.9571223    2.7404578    1.7775209 
C    -3.6202865   -0.5052148   -1.8704205 
C    -4.7914889   -0.0902578    0.3114040 
C    -2.4874843    2.9477739   -1.4610524 
C     0.9579115   -2.1219552    3.5904712 
C    -3.8562233    3.9710211    0.8308818 
C    -0.8477423   -1.0872465    5.5486352 
C     0.6998576   -2.8170567    4.7894397 
C    -3.1671769    4.1835890   -1.5012905 
C     1.8450173   -2.7627302    2.5715060 
C    -1.7279633    2.5249820   -2.6764931 
C    -3.8408172    4.6815362   -0.3755997 
C    -0.1820799   -2.3020906    5.7530344 
C    -0.3189466    2.5539426   -2.6894948 
C     1.2946013   -3.4005656    1.4418859 
C    -2.4014724    2.2650693   -3.9017616 
C     3.2458402   -2.8693560    2.7825560 
C     2.0975957   -4.1083517    0.5297427 
C     0.4136190    2.3407261   -3.8710941 
C    -1.6760996    2.0562888   -5.0902419 
C     4.0615379   -3.5513701    1.8578592 
C    -0.2746436    2.1031300   -5.0660438 
C     3.4789091   -4.1700187    0.7421733 
C     0.6344130    4.2347111   -1.3311043 
C    -0.8352673   -4.3924882    1.7522077 
C    -4.5193588    1.9597945   -5.0012510 
C     5.1112236   -2.3110896    4.1961961 
H    -0.9094385    2.3293022    2.7574930 
H    -2.7808306    0.0165635    2.4370791 
H     1.5815852    1.1840397    4.9014614 
H     2.7699536    3.4294477    2.0708480 
H     1.0117365    3.3126602    1.7874144 
H     2.1480032    2.3986307    0.7476729 
H     4.0667078    1.4192955    2.9889380 
H     3.2046919   -0.0810206    3.4411151 
H     2.4984156    2.6630576    4.5139540 
H    -4.3800755   -1.2364268   -2.2013638 
H    -2.6783010   -0.7453776   -2.3841134 
H     3.4325777    0.3487984    1.7174200 
H    -5.6115257   -0.7476176   -0.0322644 
H    -4.7700015   -0.1337567    1.4128192 
H    -5.0392284    0.9401344    0.0059065 
H    -3.9139349   -2.7024518   -0.1818260 
H    -3.0620012   -2.0450849    1.2439477 
H    -2.1631459   -2.3327309   -0.2688034 
H    -3.9452031    0.4975965   -2.1930660 
H     0.7313608    2.6355764    4.2894263 
H    -1.5524384   -0.6781023    6.2773732 
H    -4.3680630    4.3439193    1.7218833 
H     1.1954540   -3.7775876    4.9582449 
H    -3.1549141    4.7606693   -2.4303520 
H    -4.3533273    5.6470894   -0.4369547 
H    -0.3660697   -2.8669716    6.6726893 
H     1.5056082    2.3943572   -3.8434082 
H     1.6300762   -4.5954052   -0.3306474 
H     5.1403829   -3.6216271    2.0121829 
H    -2.1940961    1.8697957   -6.0332658 
H     4.1164673   -4.7078981    0.0333058 
H     0.2833178    1.9478572   -5.9951393 
H     1.2515225    4.3180140   -0.4258792 
H    -1.8768128   -4.2270808    1.4413072 
H    -0.4789035   -5.3632808    1.3596583 
H    -0.7732755   -4.3955720    2.8560256 
H     1.1876254    4.6435784   -2.1973722 
H    -0.3068275    4.7987990   -1.1951099 
H    -4.3442359    2.7151810   -5.7897724 
H    -5.5731268    1.9927145   -4.6900601 
H     5.2359822   -1.7823021    5.1517142 
H     5.4777231   -3.3493630    4.2978573 
H     5.6840490   -1.7888994    3.4066212 
H    -4.2789815    0.9522481   -5.3900409 
