119
Energy =
C     0.2983324   -1.8174361   -1.8569469 
C     1.3835697   -0.9206561   -1.9027775 
C     2.2898057   -0.8526656   -0.7980584 
H     1.4886827   -0.2211248   -2.7417873 
Pd    0.2382357   -0.2323651   -0.1438436 
P     0.5296883    0.3726160    2.0901801 
P    -1.9856993    0.4910716    0.0852759 
H     0.3210377   -2.5789878   -1.0638042 
H     2.4070324   -1.7683189   -0.2051296 
C    -2.5134901   -2.7543374   -4.9572639 
C    -2.3668542   -3.5931437   -3.8415686 
C    -1.4467164   -3.2677083   -2.8390959 
C    -0.6568497   -2.0965483   -2.9318371 
C    -0.8109289   -1.2642607   -4.0638253 
C    -1.7301483   -1.5918036   -5.0635591 
H    -3.2331685   -3.0064221   -5.7430690 
H    -2.9692846   -4.5032489   -3.7551792 
H    -1.3279922   -3.9233901   -1.9692861 
H    -0.2325595   -0.3406981   -4.1462147 
H    -1.8398187   -0.9323086   -5.9303686 
C     5.7779140    1.6665924   -0.8570153 
C     4.5658709    2.1432561   -1.3836216 
C     3.4211353    1.3386016   -1.3628106 
C     3.4661361    0.0392160   -0.8093099 
C     4.6899150   -0.4278726   -0.2770660 
C     5.8350803    0.3774724   -0.3047400 
H     6.6722275    2.2981156   -0.8747467 
H     4.5121492    3.1530126   -1.8051715 
H     2.4671144    1.7305783   -1.7293212 
H     4.7326207   -1.4326220    0.1580381 
H     6.7770650   -0.0016817    0.1056270 
O    -1.2197900    0.8262016    4.0885887 
O    -3.2185815    1.9864940    1.9611600 
O     3.6816837   -2.3256652    3.9954540 
O     0.4037753    2.7907720   -1.5594512 
O    -0.0695118   -3.3408830    1.1863738 
O    -3.7186076    2.2464226   -3.8769709 
C    -1.0384056    1.2231103    2.7123979 
C    -2.3038470    0.8735304    1.9111287 
C     1.9095508    1.5207146    2.7299398 
C    -3.4969041   -0.5695653   -0.3909736 
C     0.3066189   -0.8766856    3.4056959 
C    -2.4941736    2.2017770   -0.3038159 
C    -0.6034454   -0.3640837    4.3624684 
C    -3.1711423    2.7390334    0.8178341 
C    -3.6169374   -0.5020280   -1.9248630 
C     1.6370411    2.0296759    4.1584690 
C     1.9710584    2.6890646    1.7283212 
C     3.2124791    0.7034294    2.7183641 
C    -4.8058194   -0.0581817    0.2415430 
C    -3.1774903   -1.9942376    0.0980081 
C    -2.4426817    2.9351502   -1.5102474 
C     0.9591519   -2.1073607    3.6466414 
C    -3.8138261    3.9815848    0.7698300 
C    -0.8523822   -1.0240619    5.5721938 
C     0.7232603   -2.7549315    4.8763670 
C    -3.1030729    4.1811663   -1.5567288 
C     1.8239371   -2.7823382    2.6318287 
C    -1.6854089    2.4980841   -2.7222406 
C    -3.7777483    4.6908091   -0.4369473 
C    -0.1631379   -2.2175824    5.8222979 
C    -0.2763841    2.5110557   -2.7325245 
C     3.2234017   -2.9046575    2.8511360 
C    -2.3592662    2.2407353   -3.9479491 
C     1.2739848   -3.4084479    1.4907445 
C     4.0465018   -3.5736587    1.9250356 
C     0.4563368    2.2823008   -3.9112358 
C    -1.6338259    2.0151039   -5.1332611 
C     2.0897724   -4.1005630    0.5757500 
C    -0.2319679    2.0450046   -5.1061285 
C     3.4688447   -4.1677175    0.7937041 
C     0.7065741    4.1880457   -1.3918159 
C     5.0819586   -2.3523727    4.2768222 
C    -4.4781300    1.9580458   -5.0517090 
C    -1.0056105   -3.8959624    2.1297292 
H    -0.9078317    2.3171146    2.7013952 
H    -2.8002831    0.0172192    2.3961138 
H     1.0312078    3.2703059    1.7201909 
H     4.0586413    1.3673575    2.9740304 
H     3.4166202    0.2728921    1.7271105 
H     3.1771889   -0.1108493    3.4601378 
H     2.4904133    2.6609660    4.4678148 
H     0.7248907    2.6444140    4.2317381 
H     2.7884920    3.3754250    2.0149577 
H    -5.6330390   -0.7037609   -0.1072015 
H    -5.0330827    0.9743902   -0.0723384 
H     1.5586995    1.1982863    4.8791951 
H    -3.9640426   -2.6897371   -0.2471742 
H    -2.2070544   -2.3471627   -0.2855641 
H    -3.1472316   -2.0430213    1.2008972 
H    -4.3853506   -1.2213860   -2.2618100 
H    -2.6735466   -0.7603680   -2.4269586 
H    -3.9212980    0.5048637   -2.2544074 
H    -4.7964754   -0.0954613    1.3434038 
H     2.1660154    2.3264321    0.7064820 
H    -1.5599607   -0.5977243    6.2881785 
H    -4.3275767    4.3627082    1.6562499 
H     1.2304635   -3.7028734    5.0769234 
H    -3.0756996    4.7564028   -2.4866339 
H    -4.2751678    5.6638799   -0.5033859 
H    -0.3335444   -2.7479903    6.7648181 
H     1.5488142    2.3237107   -3.8814751 
H     5.1230818   -3.6530072    2.0894000 
H     1.6205965   -4.5866065   -0.2836817 
H    -2.1519605    1.8290617   -6.0762756 
H     4.1067419   -4.7026021    0.0828608 
H     0.3261361    1.8770124   -6.0329303 
H     1.3200829    4.2705750   -0.4840851 
H     5.4509597   -3.3900860    4.3751011 
H     5.6563886   -1.8253754    3.4915730 
H     5.2021654   -1.8276281    5.2352069 
H     1.2738442    4.5725956   -2.2601559 
H    -0.2228279    4.7745639   -1.2698399 
H    -4.2504461    0.9447416   -5.4330971 
H    -4.2904201    2.7057321   -5.8446482 
H    -0.5439537   -4.7248610    2.6932564 
H    -1.3644402   -3.1274539    2.8364328 
H    -1.8519418   -4.2794408    1.5392933 
H    -5.5322041    2.0074852   -4.7437663 
