119
Energy =
C     1.3467286   -2.0400912    0.9321718 
C     1.3249536   -2.0998219   -0.4748138 
C     1.9804829   -1.0803748   -1.2349315 
H     0.7427843   -2.8763352   -0.9871743 
Pd    0.3079994   -0.1875558   -0.0422818 
P     0.3178795    2.0577852   -0.6726728 
P    -1.6052781    0.3108293    1.2283342 
H     2.0503906   -1.3263281    1.3849147 
H     2.8370300   -0.5893360   -0.7564997 
C    -0.0831359   -4.9477384    3.7425734 
C     0.8007054   -3.9337320    4.1432856 
C     1.2521668   -2.9922113    3.2119644 
C     0.8275014   -3.0454822    1.8624765 
C    -0.0587254   -4.0752138    1.4720374 
C    -0.5076532   -5.0142240    2.4039535 
H    -0.4379975   -5.6857560    4.4694590 
H     1.1399234   -3.8794935    5.1828408 
H     1.9451356   -2.2021471    3.5221053 
H    -0.4229896   -4.1219028    0.4427712 
H    -1.1981429   -5.8013069    2.0845731 
C     2.2070029   -1.2195133   -5.5300638 
C     3.3083927   -0.7994477   -4.7680647 
C     3.2180882   -0.7436256   -3.3718383 
C     2.0250655   -1.1153696   -2.7102193 
C     0.9233639   -1.5374083   -3.4881289 
C     1.0146742   -1.5858717   -4.8837581 
H     2.2758861   -1.2585228   -6.6221646 
H     4.2420225   -0.5149058   -5.2649515 
H     4.0759990   -0.4114250   -2.7765456 
H    -0.0219193   -1.7769858   -2.9907974 
H     0.1478206   -1.9028566   -5.4738675 
O    -3.2800195    2.4257067    1.2230714 
O    -0.8640166    4.2414108    0.3741814 
O    -4.5624526   -3.2898670    1.5204399 
O     4.6129632    3.4063555   -1.4370428 
O    -2.1018321   -1.3248643   -2.0513525 
O     2.6857968    0.8684760    2.1466160 
C    -1.8585922    2.1861307    1.2132063 
C    -1.2351908    2.8972086    0.0003975 
C    -1.7895304   -0.1232231    3.0758981 
C     0.3778967    2.6732246   -2.4750980 
C    -3.2933051    0.1339116    0.5529319 
C     1.3118267    3.2655702    0.2729571 
C    -3.9817244    1.3589241    0.7278386 
C     0.4733750    4.3451793    0.6442195 
C    -0.0005740    4.1613368   -2.6027315 
C    -0.4278446    0.1983657    3.7186148 
C    -2.1159546   -1.6267813    3.1447736 
C    -2.9169248    0.6708970    3.7636803 
C    -0.6129183    1.7817468   -3.2467948 
C     1.8196302    2.4683501   -2.9705148 
C     2.6985318    3.3297722    0.5400560 
C    -3.9861325   -0.9975776    0.0673626 
C     0.9838306    5.5053813    1.2394422 
C    -5.3468567    1.4880645    0.4467499 
C    -5.3648722   -0.8650684   -0.2017564 
C     3.2103051    4.5100394    1.1164539 
C    -3.3365665   -2.3099853   -0.2309380 
C     3.6255256    2.1810065    0.3072657 
C     2.3660575    5.5788297    1.4542860 
C    -6.0305636    0.3553987   -0.0118098 
C     4.6222445    2.2588073   -0.7037465 
C    -3.7196749   -3.4868361    0.4698446 
C     3.6148017    1.0408574    1.1420221 
C    -2.4677658   -2.4495419   -1.3317395 
C    -3.2482405   -4.7501611    0.0650664 
C     5.5295417    1.2019335   -0.9101549 
C     4.5364914   -0.0067147    0.9553520 
C    -1.9893745   -3.7074182   -1.7407640 
C     5.4774304    0.0766809   -0.0748793 
C    -2.3930201   -4.8504143   -1.0418577 
C     5.5464078    3.5557138   -2.5080821 
C    -4.9722676   -4.4113487    2.3040951 
C     2.6489434    1.8404713    3.2087815 
C    -2.9784937   -1.0395411   -3.1569522 
H    -1.4429098    2.6310510    2.1319036 
H    -1.9983532    2.9757818   -0.7904994 
H    -1.3936246   -2.2344529    2.5811627 
H    -2.9786761    0.3411888    4.8173629 
H    -3.8961001    0.4759289    3.2950469 
H    -2.7399153    1.7590767    3.7652058 
H    -0.4259654   -0.1396263    4.7708553 
H     0.3994797   -0.3014727    3.1901493 
H    -2.0844664   -1.9579005    4.1987787 
H    -0.5939559    2.0533595   -4.3178973 
H    -1.6484286    1.9144489   -2.8845577 
H    -0.2289399    1.2846063    3.7152200 
H     1.8692795    2.7078383   -4.0486743 
H     2.5210943    3.1306555   -2.4377654 
H     2.1506484    1.4268510   -2.8468999 
H     0.0860735    4.4486278   -3.6669150 
H     0.6835167    4.8067628   -2.0263147 
H    -1.0343140    4.3732457   -2.2841121 
H    -0.3445471    0.7173049   -3.1546994 
H    -3.1249387   -1.8320317    2.7509387 
H    -5.8439897    2.4502227    0.5950832 
H     0.3069335    6.3195935    1.5112699 
H    -5.9141014   -1.7349888   -0.5730647 
H     4.2832972    4.5739750    1.3180995 
H     2.7908739    6.4791256    1.9100596 
H    -7.0997968    0.4274266   -0.2360907 
H     6.2844763    1.2588743   -1.6970162 
H    -3.5514284   -5.6541952    0.5971313 
H    -1.3356677   -3.7747946   -2.6149274 
H     4.5055371   -0.8617533    1.6358088 
H    -2.0366623   -5.8365781   -1.3567396 
H     6.1939023   -0.7372881   -0.2246485 
H     6.5881879    3.5201263   -2.1391945 
H    -5.5358709   -5.1421510    1.6947495 
H    -4.1017156   -4.9084613    2.7721010 
H    -5.6280952   -4.0034975    3.0863589 
H     5.3971434    2.7757531   -3.2785838 
H     5.3442756    4.5451504   -2.9422113 
H     3.6471549    2.2843934    3.3638398 
H     2.3429086    1.2978193    4.1164111 
H    -3.0628532   -1.9169080   -3.8252192 
H    -3.9831596   -0.7554070   -2.7928866 
H    -2.5302757   -0.1994788   -3.7052786 
H     1.9209230    2.6417584    2.9925828 
