119
Energy =
C     1.3910296   -1.9787738    0.9958820 
C     1.3944643   -2.0668851   -0.4100392 
C     2.0326040   -1.0443370   -1.1799135 
H     0.8430167   -2.8697274   -0.9157380 
Pd    0.3158064   -0.1777189   -0.0264022 
P     0.2635904    2.0527503   -0.7060619 
P    -1.6294138    0.2875562    1.2062703 
H     2.0674052   -1.2369437    1.4452168 
H     2.8658220   -0.5180450   -0.6977245 
C     0.0067116   -4.8775959    3.8382397 
C     0.8522689   -3.8294016    4.2334723 
C     1.2891637   -2.8913450    3.2917780 
C     0.8877222   -2.9821547    1.9372346 
C     0.0402460   -4.0459882    1.5524744 
C    -0.3941582   -4.9815104    2.4947504 
H    -0.3365434   -5.6131487    4.5731488 
H     1.1731353   -3.7457477    5.2768918 
H     1.9526597   -2.0748069    3.5977344 
H    -0.3057215   -4.1228745    0.5187261 
H    -1.0545376   -5.7956579    2.1795318 
C     2.3297426   -1.2566669   -5.4675698 
C     1.1401113   -1.6496825   -4.8319861 
C     1.0257989   -1.5777583   -3.4391056 
C     2.1011150   -1.1053933   -2.6532540 
C     3.2915538   -0.7074609   -3.3042176 
C     3.4051297   -0.7866917   -4.6976075 
H     2.4165829   -1.3137296   -6.5575888 
H     0.2931496   -2.0058632   -5.4285989 
H     0.0812156   -1.8385244   -2.9512817 
H     4.1288507   -0.3361765   -2.7028171 
H     4.3365721   -0.4811361   -5.1860450 
O    -3.3669221    2.3493143    1.1382672 
O    -0.9974974    4.2207612    0.2788084 
O    -2.0335334   -1.4244466   -2.0614501 
O     4.5273317    3.5078558   -1.4470203 
O    -4.4769035   -3.3902758    1.5198118 
O     2.6238773    0.9999613    2.1706281 
C    -1.9388442    2.1536692    1.1506606 
C    -1.3225161    2.8578741   -0.0697547 
C    -1.8298041   -0.1175550    3.0586421 
C     0.3267374    2.6307593   -2.5205548 
C    -3.2998608    0.0475484    0.5067587 
C     1.2082348    3.3106191    0.2243434 
C    -4.0276441    1.2539953    0.6486089 
C     0.3327833    4.3720514    0.5610086 
C    -0.6256437    1.6912506   -3.2836670 
C    -0.4883711    0.2559129    3.7157849 
C    -2.1134304   -1.6284890    3.1508462 
C    -2.9905375    0.6555860    3.7142202 
C     1.7803547    2.4616138   -2.9942286 
C    -0.0974164    4.1027396   -2.6856395 
C     2.5888191    3.4227769    0.5068249 
C    -3.9494007   -1.1118119    0.0272733 
C     0.8005568    5.5606353    1.1349754 
C    -5.3905539    1.3374682    0.3409607 
C    -5.3260323   -1.0249689   -0.2695150 
C     3.0575104    4.6309906    1.0614933 
C    -3.2569149   -2.4099690   -0.2354044 
C     3.5522712    2.2967997    0.3142134 
C     2.1771970    5.6810923    1.3640534 
C    -6.0313630    0.1777502   -0.1118297 
C     4.5606762    2.3798138   -0.6847435 
C    -2.3715948   -2.5458291   -1.3232521 
C     3.5628530    1.1770242    1.1762382 
C    -3.6144807   -3.5832527    0.4845199 
C    -1.8508703   -3.7969183   -1.7004761 
C     5.5021942    1.3461987   -0.8521109 
C     4.5183019    0.1537274    1.0285737 
C    -3.1015067   -4.8400066    0.1110142 
C     5.4717246    0.2407039    0.0101730 
C    -2.2296012   -4.9370149   -0.9831441 
C     5.4711167    3.6586404   -2.5087562 
C    -2.8897344   -1.2069919   -3.1979704 
C     2.5394056    1.9954926    3.2079271 
C    -4.8652152   -4.5077322    2.3200312 
H    -1.5487033    2.6300582    2.0647833 
H    -2.0778190    2.8956921   -0.8710341 
H    -1.3653875   -2.2249767    2.6092158 
H    -3.0597710    0.3427349    4.7725664 
H    -3.9560406    0.4240728    3.2339543 
H    -2.8448706    1.7482929    3.6988819 
H    -0.3213483    1.3472935    3.6948194 
H    -0.4932625   -0.0623092    4.7741546 
H    -2.0882474   -1.9392952    4.2111948 
H     1.8358715    2.6788517   -4.0768029 
H     2.1429282    1.4342960   -2.8434931 
H     0.3614429   -0.2289374    3.2095604 
H    -0.0069848    4.3691514   -3.7549169 
H    -1.1412692    4.2882503   -2.3838948 
H     0.5585959    4.7823397   -2.1159363 
H    -0.6007861    1.9387411   -4.3604785 
H    -1.6693798    1.7995353   -2.9373869 
H    -0.3259226    0.6381280   -3.1631679 
H     2.4537704    3.1574527   -2.4680561 
H    -3.1098712   -1.8701920    2.7460609 
H    -5.9187268    2.2865296    0.4642356 
H     0.0960723    6.3597056    1.3803638 
H    -5.8420533   -1.9169489   -0.6361093 
H     4.1254053    4.7320921    1.2746809 
H     2.5689445    6.6042282    1.8034636 
H    -7.0977870    0.2140156   -0.3570892 
H     6.2664088    1.4066880   -1.6296840 
H    -1.1842114   -3.8630821   -2.5649406 
H    -3.3849933   -5.7418433    0.6574475 
H     4.5027662   -0.6850906    1.7294371 
H    -1.8403606   -5.9182983   -1.2733864 
H     6.2145690   -0.5544515   -0.1091163 
H     6.5080939    3.6642564   -2.1249735 
H    -2.4722347   -0.3522342   -3.7477967 
H    -2.9054008   -2.0983363   -3.8528193 
H    -3.9192670   -0.9733165   -2.8690233 
H     5.3565858    2.8552712   -3.2609154 
H     5.2454145    4.6301344   -2.9708821 
H     1.7882491    2.7663845    2.9621442 
H     3.5198224    2.4765508    3.3655134 
H    -5.3991131   -5.2662116    1.7178096 
H    -3.9873564   -4.9702253    2.8093608 
H    -5.5432526   -4.1039037    3.0852467 
H     2.2386331    1.4649799    4.1244655 
