119
Energy =
C     1.4647221   -1.8962206    0.9882081 
C     1.5044024   -2.0099902   -0.4149545 
C     2.1467222   -1.0049084   -1.2013957 
H     0.9674173   -2.8263320   -0.9149590 
Pd    0.3880419   -0.1325979   -0.1139542 
P     0.2805302    2.0669670   -0.9132979 
P    -1.5747161    0.3548894    1.0830004 
H     2.1510044   -1.1606682    1.4337771 
H     2.9686167   -0.4499207   -0.7294446 
C     0.0211922   -4.8121227    3.7921227 
C     0.8800978   -3.7831119    4.2065983 
C     1.3353364   -2.8388018    3.2800539 
C     0.9401934   -2.8980324    1.9226669 
C     0.0759610   -3.9418197    1.5202836 
C    -0.3743433   -4.8868610    2.4454877 
H    -0.3358483   -5.5544884    4.5133751 
H     1.1993635   -3.7199018    5.2518686 
H     2.0139848   -2.0438879    3.6065323 
H    -0.2695721   -3.9972530    0.4849769 
H    -1.0435732   -5.6861480    2.1129009 
C     2.4106771   -1.3935796   -5.4785574 
C     1.2045758   -1.6927463   -4.8230767 
C     1.1060463   -1.5652186   -3.4331389 
C     2.2139741   -1.1269867   -2.6724852 
C     3.4202746   -0.8233749   -3.3423455 
C     3.5177698   -0.9604488   -4.7325058 
H     2.4851779   -1.4922827   -6.5665100 
H     0.3327870   -2.0173764   -5.4017581 
H     0.1502600   -1.7521328   -2.9320505 
H     4.2784167   -0.4708753   -2.7618541 
H     4.4603158   -0.7234594   -5.2368760 
O    -3.3375930    2.3892616    0.9653452 
O    -1.0330587    4.2460117   -0.0374119 
O    -2.0210769   -1.4152048   -2.1449014 
O     4.4665377    3.0572843   -1.8285417 
O    -4.3479114   -3.3843395    1.5108754 
O     2.7428729    1.5580434    2.4227565 
C    -1.9079420    2.2096141    0.9508673 
C    -1.3289139    2.8617892   -0.3162854 
C    -1.7460870    0.0230203    2.9527155 
C     0.3023527    2.5752928   -2.7519070 
C    -3.2504285    0.0681277    0.4134735 
C     1.1762736    3.3498751    0.0447100 
C    -3.9932295    1.2683414    0.5305220 
C     0.2691624    4.3935061    0.3605426 
C     1.6903653    2.2539244   -3.3256774 
C    -2.0565248   -1.4778377    3.1093703 
C    -2.8756118    0.8452016    3.6028718 
C    -0.3816527    0.3899606    3.5648420 
C    -0.0080442    4.0729963   -2.9363415 
C    -0.7647000    1.6927535   -3.4293851 
C     2.5082865    3.4224010    0.5097542 
C    -3.8908583   -1.1138310   -0.0203410 
C     0.6651624    5.5340736    1.0667057 
C    -5.3637856    1.3213470    0.2513374 
C    -5.2751173   -1.0575576   -0.2876774 
C     2.8888781    4.5526632    1.2629264 
C    -3.1796458   -2.4021521   -0.2776105 
C     3.5029246    2.3177127    0.3249256 
C     1.9908822    5.5997638    1.5140216 
C    -5.9963436    0.1380562   -0.1488938 
C     4.4102360    2.2102435   -0.7560243 
C    -2.3135210   -2.5334486   -1.3818738 
C     3.6155374    1.3719385    1.3833733 
C    -3.5065750   -3.5743124    0.4581920 
C    -1.7769963   -3.7785600   -1.7564910 
C     5.3394477    1.1468058   -0.8059732 
C     4.5536596    0.3273926    1.3444518 
C    -2.9885205   -4.8273813    0.0790205 
C     5.4049958    0.2191427    0.2320669 
C    -2.1304020   -4.9191703   -1.0266599 
C     4.3377240    4.4775164   -1.6734487 
C    -2.9155332   -1.2445791   -3.2609851 
C     3.0764287    0.9953627    3.6909433 
C    -4.7108754   -4.5016153    2.3231052 
H    -1.4995298    2.7305377    1.8321603 
H    -2.0915806    2.8418826   -1.1098180 
H    -3.8552764    0.6226325    3.1478316 
H    -0.3902212    0.1687168    4.6477437 
H    -0.1467974    1.4618494    3.4369200 
H     0.4298013   -0.1903008    3.0996240 
H    -1.3269795   -2.1090470    2.5811998 
H    -2.0210629   -1.7468630    4.1808108 
H    -2.9329527    0.5675137    4.6716513 
H     0.0475157    4.3069150   -4.0153806 
H     0.7320973    4.7063966   -2.4178737 
H    -3.0622088   -1.7193793    2.7274177 
H    -0.7517490    1.8824177   -4.5179582 
H    -0.5519997    0.6244884   -3.2622609 
H    -1.7844872    1.9096370   -3.0646054 
H     1.7054639    2.5210431   -4.3980539 
H     1.9223780    1.1837093   -3.2467684 
H     2.4924397    2.8142309   -2.8243187 
H    -1.0123468    4.3544717   -2.5812176 
H    -2.7033358    1.9327418    3.5507241 
H    -5.9035758    2.2662136    0.3549463 
H    -0.0630311    6.3212559    1.2791199 
H    -5.7840248   -1.9673176   -0.6187601 
H     3.9091515    4.6017096    1.6547593 
H     2.3212706    6.4696637    2.0909835 
H    -7.0685142    0.1501999   -0.3702801 
H     6.0218241    1.1084694   -1.6590674 
H    -1.1224602   -3.8405935   -2.6304692 
H    -3.2555446   -5.7304308    0.6318226 
H     4.6338724   -0.3883024    2.1658157 
H    -1.7333235   -5.8971539   -1.3173186 
H     6.1400233   -0.5910791    0.1925548 
H     3.2828855    4.7897447   -1.5787113 
H    -2.5508698   -0.3776980   -3.8286753 
H    -2.9101116   -2.1421404   -3.9072427 
H    -3.9448315   -1.0518168   -2.9061246 
H     4.9042852    4.8305044   -0.7945767 
H     4.7669424    4.9107645   -2.5894356 
H     4.1093658    1.2597747    3.9820730 
H     2.9702405   -0.1060424    3.6929004 
H    -5.2512386   -5.2667248    1.7352216 
H    -3.8195445   -4.9552107    2.7960414 
H    -5.3759446   -4.1000959    3.1008120 
H     2.3633974    1.4229693    4.4098088 
