115
Energy =
C     1.4742664   -1.1134250   -2.6923072 
C     1.6579173    0.2815573   -2.5322585 
C     2.6012360    0.8401834   -1.6346832 
H     0.9678539    0.9629801   -3.0452672 
Pd    1.0871567   -0.4616982   -0.5286186 
P     1.1313566    0.7299351    1.5042614 
P    -0.5602250   -2.0508207    0.0384926 
H     2.3100908   -1.7754818   -2.4211103 
H     3.4683339    0.2243186   -1.3521867 
C    -1.3066075   -2.8295434   -5.4980491 
C    -1.5126140   -1.5225965   -5.0258858 
C    -0.6203981   -0.9563729   -4.1103914 
C     0.4964677   -1.6852390   -3.6361397 
C     0.6925760   -2.9939738   -4.1283512 
C    -0.1977243   -3.5600967   -5.0480221 
H    -2.0028565   -3.2710006   -6.2184733 
H    -2.3718603   -0.9410515   -5.3766443 
H    -0.7960392    0.0656056   -3.7583630 
H     1.5598232   -3.5682259   -3.7884645 
H    -0.0243106   -4.5770879   -5.4133177 
C     3.2486041    5.0854230   -1.3444077 
C     1.9653023    4.5973250   -1.6414810 
C     1.7369620    3.2203818   -1.7157459 
C     2.7857393    2.2973154   -1.4945501 
C     4.0655407    2.8036422   -1.1808286 
C     4.2953707    4.1826563   -1.1098538 
H     3.4289039    6.1639255   -1.2908191 
H     1.1389325    5.2945988   -1.8152449 
H     0.7284327    2.8592467   -1.9406594 
H     4.8895271    2.1051286   -1.0027480 
H     5.2968034    4.5528026   -0.8687874 
C     0.3591568   -1.2600512    3.4805292 
C     0.4875755   -2.6139165    2.7189549 
C     0.6408577   -2.0199112    4.8131134 
C     0.3649112   -3.3585042    4.0830076 
C     1.3393001   -0.1487866    3.1340730 
C    -0.5276021   -3.0072220    1.6547962 
C     2.4899082    1.9550329    1.7133390 
C    -0.4141208    1.7056207    1.6536730 
C    -0.7737931   -3.4697844   -1.1172999 
C    -2.1363495   -1.1094501    0.0356685 
C     3.8114267    1.4678145    1.8042495 
C    -1.0248554    2.1472019    0.4661595 
C     0.3359375   -4.3348631   -1.2399430 
C    -2.6061229   -0.6176687   -1.1985562 
C     2.2395442    3.3272890    1.8500009 
C    -0.9614689    2.0782030    2.8967013 
C    -1.9736057   -3.7808850   -1.7704185 
C    -2.8163768   -0.7680251    1.2182867 
C     4.8790332    2.3371669    2.0746239 
C    -2.1524177    2.9847787    0.4983784 
C     0.2464061   -5.5206859   -1.9836082 
C    -3.7704769    0.1661016   -1.2689137 
C     3.2972171    4.2233203    2.1121889 
C    -2.1096598    2.8887807    2.9598431 
C    -2.0813259   -4.9543344   -2.5472479 
C    -3.9692545    0.0375750    1.1801066 
C     4.5977858    3.7098283    2.2352448 
C    -2.6814153    3.3369408    1.7533197 
C    -0.9736454   -5.8122664   -2.6284215 
C    -4.4347633    0.4844292   -0.0699575 
C     6.3023012    1.8313400    2.1499526 
C    -2.7622804    3.5129890   -0.7798755 
C     1.4359076   -6.4418715   -2.1366408 
C    -4.3001611    0.6325583   -2.6073559 
C     3.0130472    5.7008032    2.2565749 
C    -2.7169707    3.2822208    4.2884072 
C    -3.3644460   -5.2531104   -3.2878378 
C    -4.7009944    0.3945185    2.4540489 
H    -0.6804910   -0.8849631    3.4539956 
H     1.5116249   -2.7122577    2.3103476 
H     0.0017003   -1.7687800    5.6755575 
H     1.6965833   -1.9195166    5.1200903 
H     1.0627083   -4.1927371    4.2633895 
H    -0.6638215   -3.7221002    4.2526640 
H     2.3677775   -0.5529594    3.1105828 
H     1.3401462    0.6384094    3.9108310 
H    -1.5554703   -2.9805071    2.0595267 
H    -0.3457154   -4.0527803    1.3531478 
H     4.0160241    0.3987929    1.6607502 
H    -0.6186665    1.8197202   -0.4972564 
H     1.2824107   -4.0830702   -0.7425089 
H    -2.0661319   -0.8622800   -2.1184340 
H     1.2177458    3.7103668    1.7601601 
H    -0.4973190    1.7490386    3.8320839 
H    -2.8447530   -3.1265150   -1.6694935 
H    -2.4506029   -1.1087688    2.1915741 
H     5.4237555    4.4001675    2.4452646 
H    -3.5723983    3.9758574    1.7942801 
H    -1.0558591   -6.7328060   -3.2189945 
H    -5.3342778    1.1107588   -0.1091352 
H     6.8228574    2.2299334    3.0380600 
H     6.3421901    0.7303125    2.1920117 
H     6.8793884    2.1565752    1.2636002 
H    -2.4632632    4.5647459   -0.9474276 
H    -2.4353084    2.9256214   -1.6533915 
H    -3.8644992    3.4876639   -0.7413019 
H     1.1496115   -7.4957515   -1.9762158 
H     1.8543612   -6.3725727   -3.1587952 
H     2.2406319   -6.1904959   -1.4261026 
H    -3.4797365    0.8480347   -3.3134301 
H    -4.9175360    1.5402848   -2.5059289 
H    -4.9322947   -0.1487541   -3.0695663 
H     2.4821973    6.0823327    1.3659423 
H     3.9400862    6.2834535    2.3811420 
H     2.3663202    5.8956541    3.1314519 
H    -2.1890869    2.8094416    5.1326193 
H    -3.7802611    2.9865861    4.3398638 
H    -2.6775689    4.3771200    4.4322470 
H    -4.2475378   -5.0859396   -2.6469928 
H    -3.3918022   -6.2924908   -3.6531913 
H    -3.4628137   -4.5829423   -4.1626892 
H    -5.1372139    1.4056857    2.3933099 
H    -4.0267401    0.3624652    3.3258493 
H    -5.5297225   -0.3136226    2.6422526 
