115
Energy =
C     1.3097409   -1.0086496   -2.7353613 
C     1.6206962    0.3838747   -2.6067860 
C     2.5783584    0.8459382   -1.6790038 
H     0.9955329    1.1113891   -3.1414721 
Pd    0.8903516   -0.3607535   -0.6679576 
P     0.5550372    0.9895745    1.2511743 
P    -0.4006972   -2.1981792    0.0072228 
H     2.1249019   -1.7309639   -2.5806157 
H     3.3130100    0.1123410   -1.3115796 
C    -1.9089214   -2.3416344   -5.2705613 
C    -2.0538458   -1.1673568   -4.5130851 
C    -1.0153456   -0.7367594   -3.6818280 
C     0.1931661   -1.4672017   -3.5909794 
C     0.3159016   -2.6538270   -4.3428811 
C    -0.7240503   -3.0852519   -5.1761524 
H    -2.7194545   -2.6779984   -5.9252533 
H    -2.9827490   -0.5897259   -4.5675868 
H    -1.1479391    0.1663700   -3.0740500 
H     1.2398564   -3.2376336   -4.2781728 
H    -0.6076133   -4.0081624   -5.7531344 
C     3.7294800    4.9089229   -0.8737846 
C     4.5073610    3.8347712   -0.4176530 
C     4.1138046    2.5202826   -0.6889333 
C     2.9380673    2.2489105   -1.4257330 
C     2.1723285    3.3439404   -1.8912202 
C     2.5609998    4.6568706   -1.6125013 
H     4.0347714    5.9392097   -0.6634010 
H     5.4208993    4.0198200    0.1556751 
H     4.7219366    1.6857265   -0.3259450 
H     1.2672303    3.1735686   -2.4806690 
H     1.9531589    5.4906159   -1.9791816 
C     0.1678438   -1.0857101    3.2763912 
C     1.0405489   -2.0586768    2.4302970 
C     1.2541085   -1.1831754    4.3835389 
C     1.6956495   -2.5323285    3.7559353 
C    -0.3151780    0.2744870    2.7438724 
C     0.4023172   -3.0471602    1.4627922 
C     2.0836142    1.7786843    1.9100332 
C    -0.5701534    2.3743108    0.7956845 
C    -0.7024239   -3.5751273   -1.1659867 
C    -2.0656915   -1.6721219    0.5674813 
C     3.2173936    0.9637743    2.1161248 
C    -1.1910070    3.1971726    1.7580614 
C     0.3674444   -4.4233770   -1.5244126 
C    -2.5922865   -0.4806081    0.0406483 
C     2.1555768    3.1475827    2.2095376 
C    -0.8109746    2.6131645   -0.5674740 
C    -1.9699366   -3.7728036   -1.7347238 
C    -2.8140072   -2.4122436    1.5054819 
C     4.3974519    1.4888246    2.6643676 
C    -2.0222394    4.2623673    1.3647028 
C     0.1685512   -5.4925206   -2.4111496 
C    -3.8467152    0.0052515    0.4589393 
C     3.3349051    3.7062100    2.7452458 
C    -1.6298118    3.6736375   -0.9941026 
C    -2.1933700   -4.8343353   -2.6352122 
C    -4.0689758   -1.9537885    1.9401797 
C     4.4325272    2.8630739    2.9795935 
C    -2.2205980    4.4886887   -0.0129217 
C    -1.1213706   -5.6852620   -2.9475315 
C    -4.5610409   -0.7413642    1.4109102 
C     5.6128549    0.6161624    2.8864834 
C    -2.6969166    5.1466602    2.3901524 
C     1.3113580   -6.3956596   -2.8180842 
C    -4.3719207    1.3176093   -0.0761513 
C     3.4059406    5.1900321    3.0253684 
C    -1.8428313    3.9347405   -2.4685064 
C    -3.5614191   -5.0279773   -3.2478081 
C    -4.8854198   -2.7385855    2.9428361 
H    -0.7248698   -1.6429662    3.6182422 
H     1.7865389   -1.4646120    1.8688926 
H     0.9110915   -1.1812094    5.4314621 
H     2.0277618   -0.4061802    4.2570257 
H     2.7713282   -2.7753058    3.7339977 
H     1.1457634   -3.3839490    4.1945675 
H    -0.2639147    1.0293332    3.5487991 
H    -1.3680235    0.2095018    2.4188172 
H    -0.3459869   -3.6905510    1.9589332 
H     1.1707151   -3.7185861    1.0406473 
H     3.1883307   -0.0953967    1.8348914 
H    -1.0307297    3.0209312    2.8268917 
H     1.3708449   -4.2544667   -1.1140989 
H    -2.0078019    0.0882984   -0.6905310 
H     1.2999802    3.8008383    2.0126154 
H    -0.3574401    1.9429716   -1.3068002 
H    -2.7973799   -3.1044188   -1.4741110 
H    -2.4272644   -3.3561107    1.9040887 
H     5.3501546    3.2888037    3.4035690 
H    -2.8680649    5.3167391   -0.3266278 
H    -1.2889013   -6.5183592   -3.6409305 
H    -5.5360831   -0.3723386    1.7521010 
H     5.9758584    0.6973740    3.9262762 
H     5.3936419   -0.4450116    2.6820896 
H     6.4462594    0.9247046    2.2283584 
H    -2.4139243    6.2048785    2.2467243 
H    -3.7965574    5.0898985    2.2968284 
H    -2.4266038    4.8560756    3.4182772 
H     1.6181251   -6.1900340   -3.8611776 
H     2.1940774   -6.2525648   -2.1732586 
H     1.0181503   -7.4587773   -2.7711547 
H    -3.8183929    2.1630127    0.3721887 
H    -5.4425166    1.4497243    0.1494424 
H    -4.2343544    1.3874769   -1.1691845 
H     4.3355519    5.4614518    3.5511968 
H     2.5509635    5.5232109    3.6396868 
H     3.3691284    5.7602968    2.0785463 
H    -1.7148712    3.0140551   -3.0636110 
H    -1.1101414    4.6750048   -2.8426234 
H    -2.8486887    4.3398455   -2.6692073 
H    -4.3367157   -5.1290503   -2.4674476 
H    -3.5978597   -5.9244825   -3.8875655 
H    -3.8324364   -4.1531742   -3.8667888 
H    -5.1903989   -2.1018349    3.7921284 
H    -4.3230115   -3.5987648    3.3410139 
H    -5.8111051   -3.1239195    2.4776352 
