115
Energy =
C     1.3291835   -1.0782007   -2.5958715 
C     1.5023169    0.3234217   -2.5315697 
C     2.4869645    0.9322231   -1.7056898 
H     0.7752839    0.9637728   -3.0471767 
Pd    1.0470683   -0.2899128   -0.4608802 
P    -0.7063157   -1.7525544    0.1274323 
P     1.2396749    0.8606003    1.5750395 
H     2.1822095   -1.7110179   -2.3062620 
H     3.3915914    0.3494196   -1.4781318 
C    -1.4931617   -3.0139941   -5.1990383 
C    -1.7896203   -1.7434269   -4.6783649 
C    -0.8923675   -1.1099549   -3.8136938 
C     0.3228711   -1.7347108   -3.4488456 
C     0.5960354   -3.0219371   -3.9611202 
C    -0.2997259   -3.6522775   -4.8323243 
H    -2.1947417   -3.5074850   -5.8792734 
H    -2.7268444   -1.2448157   -4.9468909 
H    -1.1474136   -0.1271350   -3.4064704 
H     1.5257294   -3.5262573   -3.6775475 
H    -0.0666698   -4.6483483   -5.2216486 
C     2.9851068    5.2023408   -1.4136351 
C     1.7236081    4.6667609   -1.7220973 
C     1.5482828    3.2817818   -1.8137913 
C     2.6332672    2.3978287   -1.6052672 
C     3.8978455    2.9541136   -1.3145773 
C     4.0719117    4.3390825   -1.2137968 
H     3.1194155    6.2863316   -1.3376588 
H     0.8715350    5.3346301   -1.8865962 
H     0.5516807    2.8807800   -2.0304423 
H     4.7536279    2.2879652   -1.1705392 
H     5.0610437    4.7445937   -0.9786655 
C     0.4405892   -2.4588633    2.6711511 
C     0.7229137   -1.2507070    3.6095198 
C     0.5348650   -3.3791456    3.9222579 
C     1.3277506   -2.2542941    4.6351791 
C    -0.8553859   -2.4619101    1.8608800 
C     1.5800195   -0.0719150    3.1665485 
C    -0.7642195   -3.3109885   -0.8468479 
C    -2.3000723   -0.8881521   -0.1471227 
C    -0.3217951    1.8060007    1.7411309 
C     2.6546387    2.0298738    1.7171301 
C     0.3627203   -4.1559226   -0.7674947 
C    -3.5164053   -1.4079211    0.3384025 
C    -1.4186471    1.2728876    2.4456677 
C     3.9357498    1.4769283    1.5053579 
C    -1.8825803   -3.7018879   -1.5964431 
C    -2.2944158    0.3353176   -0.8403307 
C    -0.4975713    2.9797408    0.9805648 
C     2.5349443    3.3670583    2.1225767 
C     0.3667327   -5.4070374   -1.4042554 
C    -4.7231138   -0.7123343    0.1389404 
C    -2.6791828    1.8940415    2.4032123 
C     5.0951041    2.2397251    1.7106145 
C    -1.9011492   -4.9520446   -2.2487959 
C    -3.4868885    1.0392269   -1.0763174 
C    -1.7384838    3.6415852    0.9510923 
C     3.6831480    4.1681611    2.2962117 
C    -0.7787009   -5.7882920   -2.1325557 
C    -4.6863265    0.5016182   -0.5742767 
C    -2.8164567    3.0796163    1.6584561 
C     4.9457646    3.5861151    2.1007838 
C     1.5760103   -6.3137394   -1.3446548 
C    -6.0253896   -1.2367302    0.7021657 
C    -3.8535306    1.3007462    3.1484332 
C     6.4699735    1.6557263    1.4744153 
C    -3.1163910   -5.3782825   -3.0407164 
C    -3.4831855    2.3325824   -1.8586527 
C    -1.8936838    4.9325371    0.1772638 
C     3.5399520    5.6300287    2.6532112 
H     1.3164272   -2.6361686    2.0169805 
H    -0.2426781   -0.8931566    4.0103169 
H     1.0182963   -4.3617424    3.7947379 
H    -0.4587357   -3.5293852    4.3806543 
H     1.1330956   -2.0719343    5.7048150 
H     2.4165136   -2.3669526    4.4857668 
H    -1.6379993   -1.8900005    2.3900145 
H    -1.2302624   -3.4928244    1.7361822 
H     2.6188828   -0.4165766    3.0094458 
H     1.6229038    0.7017685    3.9553016 
H     1.2511015   -3.8345216   -0.2084034 
H    -3.5355775   -2.3638459    0.8742355 
H    -1.3100229    0.3506692    3.0205172 
H     4.0313243    0.4349094    1.1720482 
H    -2.7448518   -3.0338028   -1.6876834 
H    -1.3375953    0.7559121   -1.1741432 
H     0.3373322    3.3851144    0.4018029 
H     1.5498866    3.8012453    2.3179259 
H    -0.7854592   -6.7604376   -2.6405695 
H    -5.6237256    1.0471550   -0.7396076 
H    -3.7952431    3.5725515    1.6183879 
H     5.8429838    4.1993711    2.2490123 
H     2.3344107   -5.9348785   -0.6397848 
H     1.2944482   -7.3344872   -1.0315467 
H     2.0508478   -6.4003542   -2.3398052 
H    -6.2958358   -0.6897032    1.6252492 
H    -6.8559556   -1.1026942   -0.0116708 
H    -5.9562323   -2.3070607    0.9570695 
H    -3.7851022    0.2004285    3.1892436 
H    -3.8912073    1.6743240    4.1889205 
H    -4.8075726    1.5663707    2.6637464 
H     6.4270889    0.5665063    1.3091553 
H     7.1383591    1.8480853    2.3318661 
H     6.9439729    2.1150772    0.5865065 
H    -2.8549960   -6.1180311   -3.8153871 
H    -3.5931577   -4.5135658   -3.5323617 
H    -3.8715564   -5.8423314   -2.3784973 
H    -3.9491634    2.1919756   -2.8515303 
H    -2.4569123    2.7034367   -2.0142970 
H    -4.0556652    3.1186152   -1.3371322 
H    -2.9532380    5.2139639    0.0653827 
H    -1.4495065    4.8526913   -0.8300818 
H    -1.3777622    5.7622790    0.6946828 
H     2.7245524    5.7913627    3.3789994 
H     3.2959502    6.2183603    1.7480343 
H     4.4709421    6.0393146    3.0781919 
