115
Energy =
C     2.3444452   -1.4164115   -2.2571791 
C     2.1195236   -0.0552571   -2.5483797 
C     2.5419116    0.9864951   -1.6662614 
H     1.4627139    0.1924196   -3.3920403 
Pd    1.1670689   -0.3878794   -0.5733061 
P    -0.4626410   -1.9803981   -0.0276838 
P     1.0366248    0.8482652    1.4305497 
H     3.0895133   -1.6604212   -1.4826022 
H     3.4704024    0.8378622   -1.0997808 
C     1.1551978   -4.7318411   -4.7130669 
C     1.2548064   -3.4507438   -5.2767583 
C     1.6339582   -2.3611106   -4.4860353 
C     1.9406491   -2.5378515   -3.1173105 
C     1.8682262   -3.8403695   -2.5722319 
C     1.4657588   -4.9237688   -3.3573244 
H     0.8469942   -5.5813196   -5.3309170 
H     1.0356221   -3.2999602   -6.3386254 
H     1.7212584   -1.3701707   -4.9431120 
H     2.1100118   -3.9907853   -1.5136830 
H     1.3916516   -5.9214623   -2.9133909 
C     1.3971729    5.1062849   -2.2099671 
C     0.6140449    4.0830610   -2.7723117 
C     0.9698120    2.7430658   -2.5913826 
C     2.1320090    2.3917409   -1.8605068 
C     2.9082407    3.4320556   -1.3021898 
C     2.5416924    4.7730263   -1.4709853 
H     1.1148237    6.1549900   -2.3487106 
H    -0.2842141    4.3327827   -3.3466845 
H     0.3265566    1.9598992   -3.0073678 
H     3.8059846    3.1821270   -0.7280022 
H     3.1590927    5.5605949   -1.0265527 
C     0.9185351   -2.6868596    2.3638500 
C     0.4827858   -1.4465652    3.2129256 
C     0.9936610   -3.5298576    3.6720542 
C     0.8841844   -2.2268651    4.5042896 
C     0.0037466   -3.2255297    1.2608676 
C     1.2395097   -0.1359083    3.0068803 
C    -1.9930148   -1.1278937    0.5485668 
C    -1.1212613   -2.9775848   -1.4259838 
C    -0.4547951    1.8818135    1.6494862 
C     2.4662979    1.9935128    1.6531351 
C    -2.7805570   -1.5687878    1.6246976 
C    -1.2733798   -2.3385276   -2.6692460 
C    -0.6829952    2.9200451    0.7202335 
C     3.7589215    1.4403402    1.5160035 
C    -2.4135930   -0.0181107   -0.2119021 
C    -1.5207013   -4.3191523   -1.2780824 
C    -1.3653759    1.6678227    2.6972423 
C     2.3240597    3.3521197    1.9663781 
C    -3.9804856   -0.9072603    1.9559331 
C    -1.8312814   -3.0166223   -3.7661612 
C    -1.7899348    3.7727324    0.8610886 
C     4.9056652    2.2302306    1.6866369 
C    -3.6223038    0.6354358    0.0710051 
C    -2.0676461   -5.0268674   -2.3633420 
C    -2.5016184    2.4877264    2.8379639 
C     3.4603541    4.1742825    2.1297028 
C    -4.3836852    0.1828346    1.1666845 
C    -2.2132521   -4.3595230   -3.5937934 
C    -2.6871619    3.5367090    1.9222822 
C     4.7326840    3.5999568    1.9857612 
C    -4.8267118   -1.3887846    3.1143120 
C    -2.0236834   -2.3188405   -5.0931388 
C    -2.0276713    4.9115071   -0.1054537 
C     6.2930787    1.6445321    1.5465394 
C    -4.1066699    1.7783518   -0.7905310 
C    -2.4989116   -6.4694758   -2.2164447 
C    -3.4765152    2.2591070    3.9711498 
C     3.2869681    5.6425220    2.4480348 
H     1.9258680   -2.5089059    1.9411919 
H    -0.6079139   -1.2886642    3.1616672 
H     1.8973345   -4.1448488    3.8151553 
H     0.1102131   -4.1816550    3.7890361 
H     0.1536072   -2.2190200    5.3298141 
H     1.8580057   -1.8914856    4.9014727 
H    -0.9166671   -3.6600621    1.6906108 
H     0.5153449   -4.0402393    0.7173256 
H     2.3248473   -0.3415266    3.0451298 
H     1.0331412    0.5730575    3.8308465 
H    -2.4799271   -2.4370417    2.2208943 
H    -0.9375955   -1.3008040   -2.7892277 
H     0.0183805    3.0788407   -0.1064043 
H     3.8746790    0.3764979    1.2676525 
H    -1.7854734    0.3462168   -1.0343064 
H    -1.4146432   -4.8347506   -0.3182391 
H    -1.2154692    0.8541767    3.4126223 
H     1.3273999    3.7903421    2.0761875 
H    -5.3172823    0.7017680    1.4154427 
H    -2.6312233   -4.9059231   -4.4481753 
H    -3.5612763    4.1903116    2.0336504 
H     5.6199915    4.2330942    2.1065860 
H    -4.2012368   -1.7151140    3.9633889 
H    -5.5088940   -0.5995308    3.4705224 
H    -5.4471603   -2.2535711    2.8130002 
H    -3.0545839   -1.9272779   -5.1817321 
H    -1.3306993   -1.4681223   -5.2040172 
H    -1.8597071   -3.0092464   -5.9375364 
H    -2.9143717    4.7153706   -0.7363977 
H    -2.2178355    5.8555696    0.4345517 
H    -1.1623693    5.0595937   -0.7703870 
H     6.8513240    1.7236870    2.4969353 
H     6.8774665    2.1872824    0.7820628 
H     6.2582269    0.5804236    1.2602754 
H    -4.5710154    2.5717452   -0.1811502 
H    -4.8687115    1.4237076   -1.5096941 
H    -3.2795643    2.2240319   -1.3667009 
H    -2.1578648   -6.9010012   -1.2609604 
H    -2.0978479   -7.0895310   -3.0375860 
H    -3.6005470   -6.5564167   -2.2521883 
H    -4.5003775    2.5534925    3.6858518 
H    -3.1953375    2.8578929    4.8578690 
H    -3.4937200    1.1995686    4.2758587 
H     2.8530518    5.7780110    3.4556767 
H     2.5966599    6.1210229    1.7303604 
H     4.2476143    6.1815474    2.4172390 
