115
Energy =
C     1.7779387   -1.6909190   -2.2754353 
C     2.7142643   -0.6579777   -1.9722550 
C     3.2215691   -0.4798240   -0.6671823 
H     2.9355743    0.1030914   -2.7312381 
Pd    0.9229737   -0.3358433   -0.7149568 
P     0.4210955    1.5367469    0.5862133 
P    -1.2767644   -1.1666017   -0.9013691 
H     1.8536562   -2.6308905   -1.7132943 
H     3.0840292   -1.3085869    0.0459824 
C    -0.2670906   -2.0104209   -6.0564458 
C     0.2116968   -0.7614473   -5.6246574 
C     0.8813731   -0.6486279   -4.4017758 
C     1.0925655   -1.7833171   -3.5798074 
C     0.6051849   -3.0307230   -4.0287564 
C    -0.0647539   -3.1425310   -5.2536451 
H    -0.7911514   -2.0979344   -7.0136723 
H     0.0589361    0.1286269   -6.2442445 
H     1.2266593    0.3374491   -4.0711137 
H     0.7492174   -3.9184140   -3.4036765 
H    -0.4296221   -4.1214088   -5.5817609 
C     6.2633830    2.2877555    0.5626658 
C     5.9926342    2.1183012   -0.8043598 
C     4.9808837    1.2471810   -1.2189160 
C     4.2306089    0.5101594   -0.2718820 
C     4.5180297    0.6897651    1.1015600 
C     5.5199701    1.5720678    1.5139334 
H     7.0556430    2.9710321    0.8851350 
H     6.5776516    2.6645226   -1.5511394 
H     4.8007974    1.1093597   -2.2898276 
H     3.9409804    0.1309573    1.8465939 
H     5.7245512    1.7020546    2.5813110 
C    -0.9660189    2.1210054   -1.9001290 
C    -2.1940664    1.2128920   -2.2467930 
C    -1.5189694    3.1497956   -2.9279036 
C    -2.3289825    2.0031323   -3.5798942 
C    -0.7134807    2.6176002   -0.4666293 
C    -2.0989819   -0.3161602   -2.3320801 
C    -0.4166730    1.2488860    2.1858655 
C     1.7818813    2.6978356    0.9994756 
C    -2.4687817   -1.1158446    0.5056081 
C    -1.2527251   -2.9517684   -1.3316899 
C    -1.0915384    2.2850143    2.8588919 
C     2.1699633    2.9501116    2.3281738 
C    -3.0877645    0.0942177    0.8771850 
C    -0.3376976   -3.7802749   -0.6465205 
C    -0.3598448   -0.0370698    2.7517274 
C     2.4532238    3.3427702   -0.0588553 
C    -2.7345469   -2.2770268    1.2563881 
C    -2.1194613   -3.5126884   -2.2805840 
C    -1.7219678    2.0424447    4.0924821 
C     3.1925233    3.8741137    2.6116626 
C    -3.9709348    0.1567747    1.9667709 
C    -0.2773467   -5.1587572   -0.9035848 
C    -0.9869575   -0.3100074    3.9796891 
C     3.4673274    4.2797806    0.1981517 
C    -3.6096208   -2.2422060    2.3589960 
C    -2.0730183   -4.8929935   -2.5697328 
C    -1.6647592    0.7407100    4.6263667 
C     3.8180671    4.5329343    1.5384849 
C    -4.2132667   -1.0202837    2.7000368 
C    -1.1508659   -5.6927668   -1.8755981 
C    -2.4273901    3.1568251    4.8333055 
C     3.6337034    4.1278378    4.0359282 
C    -4.6573360    1.4534858    2.3306942 
C     0.6969923   -6.0535096   -0.1702973 
C    -0.9334025   -1.6920146    4.5896930 
C     4.1507044    5.0151499   -0.9319966 
C    -3.9072154   -3.5052339    3.1368733 
C    -2.9928852   -5.4766830   -3.6186021 
H    -0.0454494    1.6556062   -2.3067271 
H    -3.0328979    1.4979875   -1.5871496 
H    -0.7850516    3.6934494   -3.5462335 
H    -2.1807695    3.8848156   -2.4358353 
H    -3.3465143    2.2217904   -3.9434860 
H    -1.7583301    1.5096698   -4.3865285 
H    -1.6652593    2.7491805    0.0787273 
H    -0.2330609    3.6107751   -0.5044085 
H    -1.4763514   -0.6074469   -3.1983379 
H    -3.1059206   -0.7464008   -2.4759043 
H    -1.1240936    3.2930653    2.4286716 
H     1.6650147    2.4372742    3.1533264 
H    -2.8759623    1.0137352    0.3284266 
H     0.3374323   -3.3383564    0.0978425 
H     0.1519166   -0.8411115    2.2086208 
H     2.1809987    3.1223616   -1.0990397 
H    -2.2661924   -3.2279033    0.9845711 
H    -2.8333094   -2.8859993   -2.8235120 
H    -2.1727487    0.5367673    5.5769697 
H     4.6119991    5.2595816    1.7499322 
H    -4.8888291   -0.9805737    3.5630967 
H    -1.1067836   -6.7661486   -2.0963294 
H    -1.7205492    3.6951817    5.4923914 
H    -2.8569309    3.8964897    4.1368073 
H    -3.2389741    2.7675375    5.4704153 
H     4.5709637    3.5811753    4.2548367 
H     3.8337565    5.1986608    4.2117537 
H     2.8751195    3.7919815    4.7620678 
H    -4.7689423    1.5541313    3.4231522 
H    -4.0914396    2.3253100    1.9619950 
H    -5.6707763    1.4970144    1.8893279 
H     0.1621519   -6.8251402    0.4124570 
H     1.3306137   -5.4791173    0.5254588 
H     1.3582548   -6.5843439   -0.8785051 
H    -0.7274317   -2.4586313    3.8245786 
H    -1.8857110   -1.9471621    5.0840120 
H    -0.1368338   -1.7534556    5.3548354 
H     5.2209871    5.1725236   -0.7169642 
H     3.6943339    6.0116908   -1.0822709 
H     4.0681530    4.4604274   -1.8813495 
H    -4.6997001   -4.0932598    2.6370042 
H    -4.2577596   -3.2782844    4.1573854 
H    -3.0165085   -4.1522455    3.2112539 
H    -2.8490410   -6.5636983   -3.7262851 
H    -2.8120699   -5.0063983   -4.6024501 
H    -4.0518745   -5.2941379   -3.3621444 
