115
Energy =
C     1.4562202   -1.0222537   -2.6729240 
C     1.7861692    0.3512764   -2.5052975 
C     2.8086376    0.7992082   -1.6416796 
H     1.1414921    1.0980976   -2.9852706 
Pd    1.1794750   -0.4144601   -0.5200478 
P    -0.3511664   -2.0907863    0.0843145 
P     1.0685868    0.8296085    1.4828709 
H     2.2501023   -1.7660553   -2.5102166 
H     3.5795917    0.0731870   -1.3423982 
C    -1.6933247   -2.2654526   -5.3366129 
C    -1.7984107   -1.0416988   -4.6547880 
C    -0.7852069   -0.6364730   -3.7812275 
C     0.3545428   -1.4452457   -3.5614994 
C     0.4421560   -2.6734304   -4.2505756 
C    -0.5694007   -3.0780032   -5.1301485 
H    -2.4833928   -2.5821820   -6.0251877 
H    -2.6741015   -0.4012699   -4.8052692 
H    -0.8815620    0.3211847   -3.2574325 
H     1.3188182   -3.3111603   -4.1000937 
H    -0.4789906   -4.0341252   -5.6551670 
C     4.0478518    4.8996630   -1.2272636 
C     2.7937932    4.6092523   -1.7902312 
C     2.3703543    3.2836617   -1.9187625 
C     3.1864091    2.2126788   -1.4805926 
C     4.4426158    2.5241903   -0.9145199 
C     4.8697690    3.8510175   -0.7914357 
H     4.3824399    5.9378000   -1.1338042 
H     2.1471531    5.4210678   -2.1394928 
H     1.3988153    3.0827280   -2.3818338 
H     5.0930279    1.7107489   -0.5774466 
H     5.8490284    4.0664200   -0.3527721 
C     0.8103107   -2.4964291    2.7150228 
C     0.2239026   -1.2186548    3.3932845 
C     0.7425029   -3.2367965    4.0866145 
C     0.4202597   -1.8912606    4.7886484 
C     0.0611156   -3.1533611    1.5601007 
C     1.0060874    0.0730132    3.1872122 
C    -0.7105918   -3.4151707   -1.1456764 
C    -1.9889290   -1.3219134    0.4069009 
C    -0.4720599    1.8088096    1.3125752 
C     2.4145902    2.0467783    1.7964072 
C     0.3220621   -4.3263796   -1.4579481 
C    -2.8462072   -1.6969347    1.4564942 
C    -1.5247313    1.7562671    2.2422216 
C     3.7009631    1.5263574    2.0574275 
C    -1.9720459   -3.5638246   -1.7383766 
C    -2.4112930   -0.3458494   -0.5163581 
C    -0.6033595    2.6045323    0.1568397 
C     2.1963265    3.4297787    1.8629718 
C     0.0900034   -5.4083651   -2.3199295 
C    -4.1137842   -1.0986421    1.5977286 
C    -2.7016157    2.5003601    2.0341698 
C     4.7571262    2.3714314    2.4290056 
C    -2.2267888   -4.6349260   -2.6207217 
C    -3.6881150    0.2313548   -0.4302054 
C    -1.7528741    3.3812396   -0.0603383 
C     3.2472481    4.3032305    2.2140357 
C    -1.1952112   -5.5490637   -2.8837906 
C    -4.5174093   -0.1486188    0.6421935 
C    -2.7900699    3.3128423    0.8891634 
C     4.5059314    3.7566077    2.5093464 
C     1.1936900   -6.3795861   -2.6743966 
C    -5.0344916   -1.4969230    2.7306376 
C    -3.8360830    2.4406007    3.0322609 
C     6.1443611    1.8262703    2.6833502 
C    -3.5866325   -4.7696396   -3.2664842 
C    -4.1677994    1.2075442   -1.4798735 
C    -1.8600657    4.2747858   -1.2765415 
C     3.0063747    5.7947794    2.2505711 
H     1.8563972   -2.3096804    2.4065274 
H    -0.8436598   -1.0799092    3.1511338 
H     1.6585825   -3.7592465    4.4074217 
H    -0.0953547   -3.9541409    4.1292880 
H    -0.4537829   -1.8806900    5.4604039 
H     1.2811411   -1.4718212    5.3373525 
H    -0.8935085   -3.5969896    1.8979284 
H     0.6538168   -3.9931002    1.1585946 
H     2.0665740   -0.1041439    3.4419775 
H     0.6597830    0.8761486    3.8645856 
H     1.3232702   -4.1950204   -1.0268793 
H    -2.5450796   -2.4611349    2.1803939 
H    -1.4547038    1.1256046    3.1331900 
H     3.8838565    0.4469405    1.9720781 
H    -2.7735897   -2.8536378   -1.5117021 
H    -1.7343119   -0.0427697   -1.3204466 
H     0.2131741    2.6297808   -0.5721184 
H     1.2026285    3.8412183    1.6588552 
H    -1.3893378   -6.3900118   -3.5605623 
H    -5.5070759    0.3141864    0.7395316 
H    -3.7025103    3.8983842    0.7229003 
H     5.3235770    4.4292054    2.7954920 
H     1.5066031   -6.2481066   -3.7274680 
H     2.0825598   -6.2369303   -2.0380370 
H     0.8562456   -7.4251907   -2.5663575 
H    -4.4688289   -1.8750354    3.5987817 
H    -5.6529834   -0.6461727    3.0631278 
H    -5.7250760   -2.2993962    2.4100871 
H    -3.7591926    3.2662566    3.7644383 
H    -4.8145382    2.5342854    2.5317520 
H    -3.8255813    1.4921790    3.5945972 
H     6.1367232    0.7304162    2.8044612 
H     6.5913115    2.2717159    3.5888313 
H     6.8174468    2.0665937    1.8380614 
H    -4.3884573   -4.7930433   -2.5071126 
H    -3.6603043   -5.6862184   -3.8738130 
H    -3.7854530   -3.9045214   -3.9255638 
H    -4.7613669    2.0228292   -1.0333469 
H    -4.8138106    0.6942805   -2.2170002 
H    -3.3230634    1.6556432   -2.0279807 
H    -1.3427940    3.8351767   -2.1470095 
H    -1.3938140    5.2587519   -1.0808589 
H    -2.9112909    4.4569518   -1.5547914 
H     2.1093151    6.0417198    2.8452159 
H     2.8368560    6.1791378    1.2274126 
H     3.8654168    6.3360655    2.6788898 
