115
Energy =
C     0.9359729   -0.5007547   -2.9878775 
C     1.3508786    0.8425155   -2.8451802 
C     2.3372926    1.2412527   -1.8951607 
H     0.7824192    1.6256491   -3.3634891 
Pd    0.6348565    0.2962590   -0.8376745 
P     0.9701936    1.3944179    1.2031485 
P    -1.2838836   -0.9209681   -0.1627700 
H     1.6099962   -1.2849085   -2.6104365 
H     3.1252225    0.5173094   -1.6391030 
C    -2.0867010   -1.8434018   -5.7429395 
C    -1.6494892   -2.6767278   -4.7018147 
C    -0.6574783   -2.2386174   -3.8196619 
C    -0.0945322   -0.9477242   -3.9432636 
C    -0.5388849   -0.1229897   -5.0029004 
C    -1.5181840   -0.5698290   -5.8962165 
H    -2.8602068   -2.1883042   -6.4366439 
H    -2.0873610   -3.6718250   -4.5735132 
H    -0.3335880   -2.8928814   -3.0041798 
H    -0.0968233    0.8675353   -5.1507890 
H    -1.8380784    0.0793599   -6.7176899 
C     3.3944988    5.3691853   -1.2641003 
C     2.0613412    5.0251785   -1.5440981 
C     1.7086593    3.6861368   -1.7439818 
C     2.6817210    2.6620763   -1.6691820 
C     4.0129407    3.0214319   -1.3720154 
C     4.3662891    4.3621196   -1.1748931 
H     3.6715528    6.4176261   -1.1129617 
H     1.2947916    5.8050041   -1.6060120 
H     0.6618743    3.4253693   -1.9427200 
H     4.7763006    2.2403177   -1.2967237 
H     5.4049166    4.6196717   -0.9447265 
C    -1.6296851    2.2626431    0.7261998 
C    -2.4648386    1.1847545    1.4814627 
C    -2.8958094    3.1590155    0.7308963 
C    -3.7315305    1.8603489    0.8866380 
C    -0.2901181    2.7551389    1.2742445 
C    -2.2188456   -0.3292561    1.3437356 
C     0.6988345    0.3246771    2.6718417 
C     2.6016286    2.1527798    1.5541743 
C    -0.9214344   -2.6793301    0.2402355 
C    -2.5833776   -0.9634247   -1.4641287 
C     0.1825631    0.8273040    3.8811542 
C     3.7244219    1.2981994    1.5268033 
C    -1.7476843   -3.4526152    1.0795584 
C    -2.7029711    0.1429505   -2.3242701 
C     1.0146749   -1.0413968    2.5600540 
C     2.7625287    3.5103271    1.8636731 
C     0.2148066   -3.2729941   -0.3415506 
C    -3.4741162   -2.0448282   -1.5893596 
C    -0.0564364   -0.0320114    4.9683297 
C     5.0055118    1.7882299    1.8162148 
C    -1.4652664   -4.8113271    1.3155269 
C    -3.7221751    0.1985899   -3.2905420 
C     0.7978203   -1.9227407    3.6362271 
C     4.0417244    4.0294991    2.1569833 
C     0.5169887   -4.6314115   -0.1340572 
C    -4.4919863   -2.0241896   -2.5597575 
C     0.2486847   -1.4005095    4.8209322 
C     5.1408103    3.1577373    2.1307207 
C    -0.3420385   -5.3837696    0.6882519 
C    -4.6033995   -0.8937800   -3.3908883 
C    -0.6129837    0.4945883    6.2725283 
C     6.2192321    0.8865510    1.7805627 
C    -2.3300583   -5.6332114    2.2449900 
C    -3.8701523    1.4022230   -4.1928411 
C     1.1521495   -3.3870439    3.5165257 
C     4.2054364    5.4984183    2.4741665 
C     1.7528052   -5.2528547   -0.7461227 
C    -5.4143911   -3.2088618   -2.7419487 
H    -1.4651888    1.9111297   -0.3122454 
H    -2.4240831    1.4248659    2.5609034 
H    -3.0716807    3.7972213   -0.1512170 
H    -2.9443756    3.7832826    1.6411041 
H    -4.6354689    1.8899702    1.5173402 
H    -3.9896747    1.4287023   -0.0962683 
H    -0.3826094    3.1524025    2.3006420 
H     0.1074990    3.5648291    0.6356142 
H    -3.1896347   -0.8570210    1.3382241 
H    -1.6396461   -0.7068767    2.2027688 
H    -0.0479305    1.8925602    3.9875253 
H     3.5952743    0.2369298    1.2796795 
H    -2.6263406   -3.0088268    1.5580434 
H    -1.9804363    0.9660223   -2.2544564 
H     1.4046583   -1.4332245    1.6130115 
H     1.9041813    4.1890656    1.8761216 
H     0.8800478   -2.6617402   -0.9616323 
H    -3.3678698   -2.9232703   -0.9438180 
H     0.0532681   -2.0797967    5.6598649 
H     6.1381484    3.5545456    2.3561706 
H    -0.1218947   -6.4447859    0.8578466 
H    -5.3923304   -0.8701687   -4.1526045 
H     0.1669751    0.4950343    7.0562199 
H    -0.9858020    1.5267508    6.1686979 
H    -1.4405523   -0.1380751    6.6381802 
H     6.7605754    0.9123309    2.7430500 
H     5.9420190   -0.1598245    1.5719592 
H     6.9311198    1.2139277    1.0005508 
H    -2.4931017   -6.6499019    1.8487408 
H    -1.8408285   -5.7417400    3.2314562 
H    -3.3129129   -5.1620080    2.4099673 
H    -4.1658459    1.1037265   -5.2126664 
H    -2.9275993    1.9706268   -4.2608092 
H    -4.6507588    2.0861365   -3.8095768 
H     0.4612906   -4.0170632    4.1015920 
H     2.1731582   -3.5718211    3.9004703 
H     1.1197709   -3.7205033    2.4669069 
H     5.2549758    5.7520319    2.6938163 
H     3.5928147    5.7877314    3.3469145 
H     3.8729813    6.1180714    1.6214469 
H     2.5941421   -5.2337869   -0.0277619 
H     2.0747590   -4.7087645   -1.6499637 
H     1.5799346   -6.3072754   -1.0191418 
H    -5.4186591   -3.8613101   -1.8532391 
H    -5.0896447   -3.8211963   -3.6047231 
H    -6.4505548   -2.8868176   -2.9423002 
