115
Energy =
C     2.1556201   -1.8293796   -2.0348066 
C     2.7571125   -0.5485277   -2.1498182 
C     3.3316118    0.1267024   -1.0426579 
H     2.6505387   -0.0026246   -3.0961903 
Pd    1.1358179   -0.3368131   -0.6816820 
P    -1.0421304   -1.1424955   -0.9013148 
P     0.6296402    1.5741132    0.5945090 
H     2.5000193   -2.4870335   -1.2222745 
H     3.7305048   -0.4839574   -0.2190873 
C     0.3613903   -3.8828854   -5.3648493 
C     0.3728923   -2.4785027   -5.3385039 
C     0.9380388   -1.8001938   -4.2537033 
C     1.5074692   -2.5112390   -3.1708553 
C     1.4712247   -3.9219624   -3.2038652 
C     0.9080251   -4.6002211   -4.2910942 
H    -0.0782068   -4.4138000   -6.2152384 
H    -0.0590039   -1.9107217   -6.1694781 
H     0.9356962   -0.7042059   -4.2458949 
H     1.8956537   -4.4890446   -2.3689900 
H     0.8922961   -5.6946161   -4.2968770 
C     4.9326750    4.1193485   -1.2866431 
C     3.8562605    3.7473553   -2.1092245 
C     3.3319463    2.4527961   -2.0378042 
C     3.8691594    1.4992398   -1.1420980 
C     4.9531597    1.8875969   -0.3261730 
C     5.4791881    3.1829929   -0.3971300 
H     5.3428160    5.1330367   -1.3415722 
H     3.4235247    4.4713240   -2.8078933 
H     2.4820170    2.1828387   -2.6742720 
H     5.3855172    1.1630768    0.3710941 
H     6.3170463    3.4628233    0.2492829 
C    -1.8727753    1.3893160   -2.0174019 
C    -0.5482152    2.2315580   -1.9699577 
C    -2.3078138    2.2235199   -3.2607209 
C    -1.2140516    3.2655174   -2.9247842 
C    -1.8264104   -0.1279746   -2.2395012 
C     0.0368792    2.8132113   -0.6716545 
C    -1.2292941   -2.8929554   -1.4340684 
C    -2.1708815   -1.1067569    0.5426226 
C     2.0953832    2.2941584    1.4345679 
C    -0.6215326    1.6538921    1.9532173 
C    -0.6758840   -3.8762172   -0.5881658 
C    -1.6306816   -1.3942369    1.8089445 
C     2.9247644    1.4075511    2.1533767 
C    -0.2259651    1.4163229    3.2838127 
C    -1.9223513   -3.2788775   -2.5909313 
C    -3.5574666   -0.9244858    0.3951090 
C     2.3606007    3.6701927    1.4588530 
C    -1.9704771    1.9495641    1.6833588 
C    -0.8293132   -5.2410170   -0.8742251 
C    -2.4642048   -1.5195600    2.9330375 
C     3.9999640    1.8861237    2.9177922 
C    -1.1532716    1.4869614    4.3387983 
C    -2.0857016   -4.6436962   -2.9048787 
C    -4.4140358   -1.0297552    1.5062254 
C     3.4546906    4.1753050    2.1916699 
C    -2.9215154    2.0135364    2.7157840 
C    -1.5419378   -5.6029944   -2.0356237 
C    -3.8480033   -1.3265767    2.7596607 
C     4.2469021    3.2740593    2.9217281 
C    -2.4946061    1.7788848    4.0354693 
C    -0.2377760   -6.3030013    0.0259489 
C    -1.8944631   -1.8705293    4.2879937 
C     4.8943016    0.9432373    3.6914783 
C    -0.7046377    1.2865105    5.7696505 
C    -2.8438383   -5.0554909   -4.1466387 
C    -5.9095473   -0.8631262    1.3498375 
C     3.7725573    5.6524587    2.1575972 
C    -4.3635478    2.3532209    2.4149268 
H    -2.5195890    1.6210905   -1.1531107 
H     0.2441605    1.6680172   -2.5006127 
H    -3.3534873    2.5717142   -3.2877737 
H    -2.0956397    1.6836638   -4.2003254 
H    -0.5988454    3.6507427   -3.7550414 
H    -1.6190409    4.1258007   -2.3633992 
H    -1.2335516   -0.3573814   -3.1443506 
H    -2.8491362   -0.5030887   -2.4279321 
H    -0.6781636    3.4995559   -0.1851094 
H     0.9298667    3.4058735   -0.9389769 
H    -0.1204435   -3.5736070    0.3081193 
H    -0.5451200   -1.5044807    1.9220334 
H     2.7289317    0.3283251    2.1098130 
H     0.8201496    1.1960197    3.5174159 
H    -2.3357604   -2.5323618   -3.2754167 
H    -3.9904035   -0.7084961   -0.5878647 
H     1.7235266    4.3716683    0.9100518 
H    -2.3055977    2.1265319    0.6582287 
H    -1.6618144   -6.6665710   -2.2758626 
H    -4.5066774   -1.4034955    3.6333994 
H     5.0928842    3.6617046    3.5023485 
H    -3.2289103    1.8237729    4.8489276 
H    -1.0270745   -6.9605159    0.4328444 
H     0.4649050   -6.9487214   -0.5316452 
H     0.3062062   -5.8583960    0.8754830 
H    -1.9871767   -2.9563158    4.4788995 
H    -0.8263820   -1.6063819    4.3554594 
H    -2.4311720   -1.3467759    5.0964432 
H     5.9367648    0.9997476    3.3277052 
H     4.9133715    1.2044343    4.7647307 
H     4.5578441   -0.1027278    3.6000583 
H     0.1622967    0.6072431    5.8311505 
H    -1.5147436    0.8729180    6.3933439 
H    -0.4014316    2.2505267    6.2195858 
H    -2.4912380   -6.0275166   -4.5298404 
H    -2.7334310   -4.3065000   -4.9489241 
H    -3.9241819   -5.1566201   -3.9306450 
H    -6.3659712   -0.4400052    2.2602610 
H    -6.3921381   -1.8410071    1.1639123 
H    -6.1578474   -0.2048784    0.5003119 
H     4.1983491    5.9272993    1.1741220 
H     4.5052323    5.9294594    2.9327373 
H     2.8647357    6.2633805    2.3031857 
H    -4.5546573    3.4308718    2.5758599 
H    -5.0502767    1.7953190    3.0731931 
H    -4.6226856    2.1172931    1.3694029 
