115
Energy =
C    -1.5296439   -2.0060807    1.5761380 
C    -0.2649704   -2.6378411    1.5568321 
C     0.8696435   -2.0321092    2.1808619 
H    -0.1165588   -3.5334028    0.9391535 
Pd    0.0702934   -0.6812504    0.6174561 
P    -1.2862060    0.2874574   -1.0570281 
P     1.9350256    0.7274468    0.4465766 
H    -1.6991035   -1.2567083    2.3652283 
H     0.6872983   -1.4131712    3.0723106 
C    -5.1873886   -3.4939390   -0.1190542 
C    -3.9576116   -3.9465555   -0.6272601 
C    -2.7567477   -3.4707004   -0.0938935 
C    -2.7590491   -2.5182306    0.9519842 
C    -4.0031897   -2.0575100    1.4382702 
C    -5.2046808   -2.5498195    0.9173454 
H    -6.1267353   -3.8751822   -0.5326001 
H    -3.9362941   -4.6795836   -1.4404782 
H    -1.8103821   -3.8410506   -0.4977733 
H    -4.0231849   -1.3027160    2.2317674 
H    -6.1571863   -2.1841810    1.3134464 
C     4.7852415   -3.8069866    1.9544007 
C     3.9498780   -3.8127721    0.8248567 
C     2.6832048   -3.2223781    0.8853434 
C     2.2230738   -2.6173378    2.0785187 
C     3.0827994   -2.5962709    3.1962060 
C     4.3495913   -3.1903625    3.1357803 
H     5.7761426   -4.2700124    1.9079328 
H     4.2903764   -4.2776869   -0.1064981 
H     2.0459629   -3.2097248   -0.0075485 
H     2.7499164   -2.1149445    4.1216793 
H     5.0011944   -3.1663281    4.0151362 
C     1.6362921    0.8244202   -2.3567138 
C     0.5950696    1.9842337   -2.4659109 
C     2.0636171    1.1448150   -3.8149309 
C     0.6807944    1.8174017   -4.0097168 
C     2.6845622    0.7883597   -1.2483598 
C    -0.7710268    1.9411628   -1.7496604 
C     3.3569850    0.4708606    1.5843225 
C     1.4125016    2.4470041    0.8455020 
C    -3.0207992    0.6147910   -0.5361327 
C    -1.4013668   -0.8363413   -2.5061990 
C     4.5436713   -0.1566976    1.1682626 
C     2.1003382    3.5740765    0.3619966 
C    -3.2292597    1.4893287    0.5490854 
C    -2.1048839   -0.4774186   -3.6732796 
C     3.2267400    0.8953335    2.9226669 
C     0.3194783    2.6210685    1.7170824 
C    -4.1241743    0.0063689   -1.1613264 
C    -0.7482679   -2.0789368   -2.4459116 
C     5.6145305   -0.3362861    2.0652708 
C     1.6896564    4.8735002    0.7148929 
C    -4.5312019    1.7815582    0.9977131 
C    -2.1679733   -1.3546160   -4.7706703 
C     4.2760669    0.7192092    3.8394040 
C    -0.0994634    3.9063249    2.1064710 
C    -5.4356445    0.2929279   -0.7410039 
C    -0.8025728   -2.9834435   -3.5219010 
C     5.4635574    0.1101595    3.3888430 
C     0.5919769    5.0159115    1.5851156 
C    -5.6174028    1.1793414    0.3357572 
C    -1.5159491   -2.6010348   -4.6717381 
C     6.9029823   -0.9790025    1.6035249 
C     2.4000129    6.0898478    0.1637019 
C    -4.7566353    2.7327595    2.1529886 
C    -2.8960396   -0.9655401   -6.0382253 
C     4.1348337    1.1560647    5.2808841 
C    -1.2652018    4.0987322    3.0504121 
C    -6.6207748   -0.3347019   -1.4395756 
C    -0.1437125   -4.3412616   -3.4208077 
H     1.0951865   -0.1385595   -2.3595924 
H     1.0965364    2.9297032   -2.1893810 
H     2.3284672    0.2952484   -4.4660514 
H     2.8841876    1.8843770   -3.8389238 
H     0.6242307    2.7336523   -4.6209148 
H    -0.0645862    1.0916268   -4.3759807 
H     3.3792195    1.6458194   -1.3019786 
H     3.2931705   -0.1274380   -1.3523969 
H    -1.5750413    2.2840455   -2.4259911 
H    -0.7811835    2.6165463   -0.8759051 
H     4.6565503   -0.5212032    0.1431009 
H     2.9720882    3.4551559   -0.2900486 
H    -2.3714396    1.9500084    1.0532357 
H    -2.6129072    0.4916527   -3.7353851 
H     2.3045015    1.3861468    3.2542714 
H    -0.2045039    1.7357322    2.1024974 
H    -3.9717367   -0.7183855   -1.9663312 
H    -0.1796929   -2.3350522   -1.5417522 
H     6.2915700   -0.0288792    4.0948120 
H     0.2728001    6.0246136    1.8748808 
H    -6.6356674    1.3992680    0.6789439 
H    -1.5639656   -3.2923467   -5.5221098 
H     7.3651482   -1.5738258    2.4092076 
H     7.6367698   -0.2091685    1.2987248 
H     6.7332372   -1.6422110    0.7391961 
H     1.8173568    6.5394386   -0.6622109 
H     2.5221294    6.8670022    0.9372920 
H     3.3970415    5.8333506   -0.2304664 
H    -4.5538245    3.7763384    1.8484503 
H    -5.7964690    2.6874982    2.5149975 
H    -4.0869786    2.5039382    2.9999565 
H    -3.5377015   -0.0828366   -5.8827151 
H    -3.5270989   -1.7926404   -6.4068545 
H    -2.1762912   -0.7218060   -6.8418067 
H     5.0024822    1.7583004    5.6024593 
H     4.0823447    0.2788758    5.9527522 
H     3.2230212    1.7558836    5.4360650 
H    -2.1276704    4.5482413    2.5258412 
H    -0.9982923    4.7784826    3.8783146 
H    -1.5954818    3.1413894    3.4856657 
H    -6.3345451   -1.2657885   -1.9557925 
H    -7.0372735    0.3565766   -2.1963560 
H    -7.4315228   -0.5670041   -0.7281673 
H     0.7020177   -4.3276677   -2.7120910 
H     0.2286884   -4.6873262   -4.3993768 
H    -0.8668976   -5.0971217   -3.0590093 
