115
Energy =
C     0.8221448   -2.7226915    1.1564513 
C    -0.2425143   -2.2922101    2.0047350 
C    -1.5401083   -2.0675632    1.4923118 
H    -0.0161266   -2.0135343    3.0423563 
Pd    0.0416309   -0.7579901    0.4576167 
P    -1.2445728    1.2115367    0.2783497 
P     1.8252187   -0.2371162   -0.9696388 
H     0.5595787   -3.3434341    0.2866835 
H    -1.7911541   -2.5617235    0.5407766 
C     4.7904629   -3.3133597    2.7145860 
C     4.0455132   -2.1899578    3.1105062 
C     2.7631082   -1.9808327    2.5927408 
C     2.1978102   -2.8911176    1.6694493 
C     2.9665399   -4.0011002    1.2629450 
C     4.2484240   -4.2128302    1.7856610 
H     5.7937570   -3.4785735    3.1202342 
H     4.4688033   -1.4746949    3.8238186 
H     2.1942260   -1.0914217    2.8902070 
H     2.5503901   -4.7058856    0.5356760 
H     4.8288072   -5.0821869    1.4602362 
C    -4.9962827   -0.9552260    3.7909301 
C    -3.7192679   -0.5671774    4.2316485 
C    -2.5837877   -0.9185466    3.4961632 
C    -2.7025337   -1.6401270    2.2856201 
C    -3.9956477   -2.0012951    1.8414252 
C    -5.1285525   -1.6819207    2.5982357 
H    -5.8834381   -0.6929451    4.3766273 
H    -3.6070093    0.0069236    5.1570639 
H    -1.5986759   -0.6129769    3.8575376 
H    -4.1062064   -2.5521462    0.9011144 
H    -6.1189690   -1.9916402    2.2508471 
C     2.0628839    2.6100542   -1.0236701 
C     0.8205423    3.0954348   -0.2282682 
C     2.7249721    3.9835904   -0.7205456 
C     1.2991930    4.5513371   -0.4959173 
C     2.7920589    1.3260500   -0.6453310 
C    -0.5777675    2.6697557   -0.6794192 
C     3.1400898   -1.5091287   -1.1590266 
C     1.1811817   -0.0929225   -2.6856890 
C    -1.3392161    1.9295907    1.9697968 
C    -2.9608450    1.0913510   -0.3633295 
C     4.3809528   -1.3896552   -0.5086317 
C     1.9846182    0.4066917   -3.7299673 
C    -2.2746695    2.9211389    2.3203869 
C    -3.1548702    1.1359025   -1.7608806 
C     2.8807531   -2.6334213   -1.9682223 
C    -0.1061852   -0.5820189   -2.9683541 
C    -0.3731551    1.5242944    2.9099995 
C    -4.0766904    0.9763727    0.4892679 
C     5.3823422   -2.3629217   -0.6901672 
C     1.4995094    0.4478878   -5.0483041 
C    -2.2788130    3.4764860    3.6130682 
C    -4.4476393    1.1001587   -2.3122869 
C     3.8594233   -3.6238103   -2.1563191 
C    -0.6058917   -0.5863433   -4.2860148 
C    -0.3465186    2.0665783    4.2072188 
C    -5.3818822    0.9560006   -0.0396832 
C     5.1051515   -3.4638214   -1.5187708 
C     0.2056266   -0.0539604   -5.3028401 
C    -1.3138137    3.0326361    4.5394404 
C    -5.5451864    1.0169933   -1.4351704 
C     6.7317502   -2.2111975   -0.0249738 
C     2.3381493    1.0104530   -6.1743491 
C    -3.2944027    4.5261813    4.0073919 
C    -4.6621033    1.1664660   -3.8087851 
C     3.5815596   -4.8429706   -3.0079488 
C    -1.9556657   -1.1933269   -4.5983900 
C     0.6745242    1.6050612    5.2241957 
C    -6.5910992    0.8948590    0.8669639 
H     1.7969191    2.5791665   -2.0965552 
H     0.9664950    2.8765909    0.8470581 
H     3.3533275    4.4335497   -1.5069921 
H     3.2995604    3.9513579    0.2224413 
H     1.1475574    5.2910711    0.3073535 
H     0.8694309    4.9460820   -1.4335923 
H     3.0425026    1.3217895    0.4311579 
H     3.7415797    1.2475825   -1.2056696 
H    -0.5819538    2.4209713   -1.7549551 
H    -1.3105314    3.4826935   -0.5219641 
H     4.5881846   -0.5424643    0.1525606 
H     3.0019950    0.7587224   -3.5239151 
H    -3.0159419    3.2625338    1.5893644 
H    -2.2967118    1.2191103   -2.4367843 
H     1.9143464   -2.7289136   -2.4772970 
H    -0.7228345   -0.9781612   -2.1496717 
H     0.3635484    0.7617322    2.6204840 
H    -3.9396757    0.9306383    1.5740880 
H     5.8792258   -4.2271844   -1.6650166 
H    -0.1742788   -0.0388537   -6.3319228 
H    -1.3132996    3.4600498    5.5499748 
H    -6.5599141    1.0148053   -1.8522140 
H     7.4549281   -1.7335504   -0.7126853 
H     7.1489498   -3.1906836    0.2631465 
H     6.6646231   -1.5855159    0.8803035 
H     3.3611042    1.2472085   -5.8394939 
H     2.4068089    0.2953080   -7.0129639 
H     1.8871139    1.9373242   -6.5738548 
H    -3.9095088    4.1789525    4.8571760 
H    -2.7956581    5.4585041    4.3276466 
H    -3.9716215    4.7690907    3.1725587 
H    -5.4621308    1.8829823   -4.0633255 
H    -4.9681725    0.1815928   -4.2076729 
H    -3.7440093    1.4728886   -4.3360531 
H     4.4175615   -5.0478480   -3.6990355 
H     2.6625089   -4.7209325   -3.6045247 
H     3.4565295   -5.7416277   -2.3747818 
H    -2.4653570   -0.6519606   -5.4125921 
H    -2.6129007   -1.1931172   -3.7130619 
H    -1.8379077   -2.2432107   -4.9266110 
H     0.1861378    1.0647522    6.0560504 
H     1.2148015    2.4603076    5.6667568 
H     1.4175348    0.9270839    4.7714386 
H    -7.3055138    1.7011192    0.6231203 
H    -6.3069153    0.9893172    1.9266248 
H    -7.1288727   -0.0629173    0.7445119 
