115
Energy =
C     0.9010843   -2.0074095    2.0220462 
C    -0.4152742   -2.3746649    1.6310522 
C    -1.5291359   -1.5754442    1.9946363 
H    -0.5497483   -3.2135970    0.9367746 
Pd   -0.0311150   -0.3976448    0.7493659 
P    -1.6423674    0.9638909   -0.2855808 
P     1.9911575    0.5289403   -0.0056366 
H     1.0030887   -1.3993113    2.9338558 
H    -1.3984287   -0.9263111    2.8731195 
C     4.4147874   -4.2829014    1.0265416 
C     3.3723207   -4.1697356    0.0913691 
C     2.2276846   -3.4290256    0.4012906 
C     2.1041711   -2.7777551    1.6495816 
C     3.1653285   -2.8875745    2.5731940 
C     4.3058234   -3.6396005    2.2677545 
H     5.3092424   -4.8665722    0.7852676 
H     3.4542100   -4.6594708   -0.8846582 
H     1.4280324   -3.3375650   -0.3406944 
H     3.0927603   -2.3756987    3.5383316 
H     5.1178005   -3.7130052    2.9982978 
C    -5.6550450   -2.4650229    1.1970837 
C    -4.6521050   -3.1210618    0.4640004 
C    -3.3055490   -2.8199790    0.6841906 
C    -2.9311785   -1.8612936    1.6544450 
C    -3.9527240   -1.1840308    2.3595093 
C    -5.3013646   -1.4849445    2.1355979 
H    -6.7083528   -2.7096716    1.0270173 
H    -4.9234457   -3.8698760   -0.2866085 
H    -2.5401996   -3.3358075    0.0962371 
H    -3.6796128   -0.4240787    3.0998345 
H    -6.0772515   -0.9597573    2.7022562 
C     1.3610052    3.0174909   -1.2824109 
C    -0.1725971    3.2294250   -1.1619614 
C     1.4906644    4.5423607   -1.5606222 
C     0.0042830    4.5256511   -2.0034714 
C     2.1570054    2.3891016   -0.1457175 
C    -1.1330355    2.1413391   -1.6395622 
C     2.4200673   -0.0834736   -1.6793560 
C     3.4325576    0.1617625    1.0742862 
C    -2.5010462    2.0691679    0.9022363 
C    -2.9236938   -0.0268069   -1.1547222 
C     1.6350836   -1.1042176   -2.2437900 
C     3.3614554    0.6052014    2.4125371 
C    -3.4851874    2.9857417    0.4789030 
C    -2.4692180   -0.9311007   -2.1349799 
C     3.5070607    0.4412319   -2.4074242 
C     4.5758001   -0.5107997    0.6203420 
C    -2.1320314    2.0297727    2.2591075 
C    -4.3017594    0.0997149   -0.9065388 
C     1.9246767   -1.6226476   -3.5190208 
C     4.4370128    0.4076416    3.2920949 
C    -4.1215449    3.8352435    1.4014879 
C    -3.3797698   -1.6951343   -2.8878812 
C     3.8173845   -0.0517492   -3.6875467 
C     5.6712152   -0.7207029    1.4842753 
C    -2.7490747    2.8681193    3.2058412 
C    -5.2325284   -0.6444719   -1.6532367 
C     3.0177590   -1.0828241   -4.2206516 
C     5.5853422   -0.2517908    2.8045476 
C    -3.7436591    3.7556941    2.7566176 
C    -4.7536771   -1.5309758   -2.6362901 
C     1.0834275   -2.7257436   -4.1224884 
C     4.3741503    0.8762454    4.7290745 
C    -5.1890993    4.8112515    0.9581875 
C    -2.8846937   -2.6806530   -3.9241232 
C     4.9789780    0.5059385   -4.4800998 
C     6.9052084   -1.4346656    0.9809023 
C    -2.3557262    2.8213429    4.6661319 
C    -6.7166220   -0.4782806   -1.4170175 
H     1.5680488    2.4745075   -2.2240929 
H    -0.4176984    3.5238176   -0.1228004 
H     2.2533536    4.8654562   -2.2884537 
H     1.6261045    5.1101970   -0.6229034 
H    -0.6316898    5.3890513   -1.7468119 
H    -0.0925784    4.3164551   -3.0837425 
H     1.8601680    2.8097226    0.8321726 
H     3.2369496    2.5926125   -0.2681462 
H    -0.6920098    1.5396089   -2.4547639 
H    -2.0678125    2.5809786   -2.0331751 
H     0.7881934   -1.4999375   -1.6689111 
H     2.4554945    1.1074351    2.7767404 
H    -3.7719136    3.0416319   -0.5772462 
H    -1.3933228   -1.0413708   -2.3192333 
H     4.1293829    1.2345453   -1.9778918 
H     4.6189167   -0.8956749   -0.4032688 
H    -1.3419387    1.3396778    2.5786238 
H    -4.6606437    0.7685678   -0.1192545 
H     3.2573467   -1.4768919   -5.2161379 
H     6.4309320   -0.4165605    3.4835498 
H    -4.2358082    4.4143139    3.4831207 
H    -5.4736954   -2.1194021   -3.2179650 
H     1.7142266   -3.5621426   -4.4713391 
H     0.5179866   -2.3587020   -4.9986212 
H     0.3569053   -3.1238677   -3.3951592 
H     3.4105828    1.3611574    4.9570169 
H     4.5059305    0.0299245    5.4275993 
H     5.1800509    1.6008041    4.9443582 
H    -6.1524021    4.5927816    1.4536010 
H    -4.9140377    5.8468530    1.2269257 
H    -5.3490576    4.7710282   -0.1315771 
H    -2.3920867   -3.5457566   -3.4416887 
H    -2.1422451   -2.2160607   -4.5961034 
H    -3.7112614   -3.0677990   -4.5414723 
H     5.5447312    1.2530218   -3.9001019 
H     4.6250337    0.9908170   -5.4080858 
H     5.6758901   -0.2970404   -4.7793427 
H     6.6305128   -2.3084134    0.3652130 
H     7.5408803   -1.7811966    1.8121118 
H     7.5157512   -0.7632540    0.3485526 
H    -1.5762557    2.0636878    4.8515606 
H    -3.2255648    2.5799043    5.3031415 
H    -1.9685748    3.7993728    5.0041986 
H    -6.9204123   -0.0872071   -0.4066304 
H    -7.2524828   -1.4354487   -1.5335938 
H    -7.1496477    0.2313750   -2.1471047 
