115
Energy =
C     0.7756266   -1.9945732    2.2994495 
C    -0.5791219   -1.6518541    2.5968421 
C    -1.6261474   -1.9575126    1.6980766 
H    -0.7823390   -1.0183505    3.4695673 
Pd   -0.0042011   -0.6088535    0.7516725 
P     2.0697404    0.0721724   -0.0917007 
P    -1.4621052    0.7792981   -0.4607147 
H     0.9512636   -2.8899701    1.6844370 
H    -1.4256438   -2.7486836    0.9591400 
C     3.9937401   -0.9380661    4.9575227 
C     2.9731806   -0.0092042    4.6932764 
C     1.9316309   -0.3405899    3.8201033 
C     1.8888285   -1.6077383    3.1930766 
C     2.9310286   -2.5216379    3.4507563 
C     3.9700322   -2.1916497    4.3299357 
H     4.8079702   -0.6805543    5.6425962 
H     2.9922965    0.9768250    5.1696885 
H     1.1479984    0.3956536    3.6018337 
H     2.9232265   -3.4991379    2.9576406 
H     4.7695736   -2.9152564    4.5188308 
C    -5.8132375   -1.1175928    2.1939877 
C    -5.3590358   -1.8843022    1.1108846 
C    -3.9924530   -2.1443431    0.9625449 
C    -3.0485822   -1.6371024    1.8860149 
C    -3.5232546   -0.8608168    2.9691870 
C    -4.8890052   -0.6082398    3.1211163 
H    -6.8827782   -0.9203957    2.3201233 
H    -6.0713875   -2.2901028    0.3852251 
H    -3.6482645   -2.7569619    0.1234991 
H    -2.8226646   -0.4536534    3.7034844 
H    -5.2364625   -0.0087028    3.9681284 
C     0.2137964    3.0985862   -0.3937424 
C     1.7433579    2.8555851   -0.5554514 
C     0.4836252    4.5950026   -0.7224229 
C     1.9553461    4.3723034   -0.2900216 
C    -0.7838599    2.3254702   -1.2610074 
C     2.4974346    1.8425390    0.3029555 
C    -2.6814007    1.4869981    0.7222574 
C    -2.4059294   -0.0186110   -1.8183574 
C     2.2108247   -0.0127249   -1.9240409 
C     3.5278420   -0.9007163    0.4534448 
C    -2.1839387    1.9451811    1.9625053 
C    -2.3305909   -1.4159685   -1.9600338 
C     3.4200912    0.3562404   -2.5514313 
C     3.6268404   -2.2284786   -0.0128013 
C    -4.0463021    1.6203605    0.4299298 
C    -3.1597225    0.7300750   -2.7454136 
C     1.1141727   -0.4074867   -2.7018905 
C     4.5190789   -0.3840218    1.3026305 
C    -3.0273567    2.5761986    2.8896697 
C    -3.0065200   -2.0815780   -2.9984128 
C     3.5239660    0.3586701   -3.9512371 
C     4.7176605   -3.0358230    0.3444486 
C    -4.9176430    2.2417081    1.3484703 
C    -3.8530363    0.0924231   -3.7908966 
C     1.1869617   -0.4126289   -4.1105907 
C     5.6287756   -1.1719728    1.6713243 
C    -4.3893360    2.7236323    2.5574221 
C    -3.7662400   -1.3101827   -3.8960584 
C     2.3939535   -0.0206015   -4.7103517 
C     5.7102074   -2.4856182    1.1820974 
C    -2.5045700    3.0478160    4.2282939 
C    -2.8835029   -3.5792717   -3.1696470 
C     4.8112580    0.7510249   -4.6417116 
C     4.8350652   -4.4606851   -0.1499894 
C    -6.3883612    2.3710117    1.0231494 
C    -4.6830854    0.8863365   -4.7752407 
C    -0.0107612   -0.8407682   -4.9298384 
C     6.7105591   -0.6018098    2.5608600 
H    -0.0573275    3.0234982    0.6756955 
H     1.9528143    2.6520501   -1.6222987 
H    -0.1153868    5.3488056   -0.1852094 
H     0.4065513    4.7825874   -1.8081207 
H     2.7524461    4.8831721   -0.8551946 
H     2.0946918    4.5739800    0.7872249 
H    -0.3252505    2.0272960   -2.2210886 
H    -1.6579777    2.9633206   -1.4857969 
H     2.2952737    1.9961253    1.3787785 
H     3.5844105    1.9661146    0.1447110 
H    -1.1272370    1.7865655    2.2152320 
H    -1.7153804   -1.9913187   -1.2585298 
H     4.2893023    0.6385869   -1.9453823 
H     2.8508813   -2.6312715   -0.6757760 
H    -4.4497477    1.2266738   -0.5083447 
H    -3.2181660    1.8206227   -2.6619813 
H     0.1848940   -0.7139234   -2.2123162 
H     4.4397816    0.6301278    1.7055960 
H    -5.0624815    3.2080655    3.2752712 
H    -4.2993794   -1.8145447   -4.7112841 
H     2.4658056   -0.0134176   -5.8050027 
H     6.5672298   -3.1073491    1.4689663 
H    -2.9371711    2.4495370    5.0519019 
H    -2.7779820    4.1009771    4.4163707 
H    -1.4067114    2.9623003    4.2883244 
H    -2.5641795   -4.0700644   -2.2348898 
H    -3.8388564   -4.0287573   -3.4891766 
H    -2.1324718   -3.8210159   -3.9454409 
H     5.5795675    1.0683493   -3.9181613 
H     5.2187086   -0.0962570   -5.2226797 
H     4.6430085    1.5801231   -5.3522348 
H     5.7635743   -4.6020598   -0.7318407 
H     3.9841737   -4.7390064   -0.7931328 
H     4.8727529   -5.1709148    0.6960981 
H    -6.5452170    3.0467685    0.1625557 
H    -6.9602800    2.7700769    1.8763921 
H    -6.8142100    1.3891480    0.7496940 
H    -5.7598903    0.6781046   -4.6358051 
H    -4.4324501    0.6159770   -5.8159259 
H    -4.5297738    1.9710783   -4.6541547 
H     0.1172308   -0.5912679   -5.9956419 
H    -0.9358518   -0.3620237   -4.5640474 
H    -0.1647969   -1.9334496   -4.8550015 
H     7.5068426   -0.1300170    1.9546648 
H     7.1839279   -1.3876920    3.1728587 
H     6.3061948    0.1680003    3.2390271 
