115
Energy =
C    -1.5752476   -1.3990956    2.3617435 
C    -0.4907713   -2.2981718    2.2508863 
C     0.8588755   -1.9029167    2.4892614 
H    -0.6714724   -3.2866269    1.8088759 
Pd    0.0158493   -0.6869260    0.8407354 
P     2.0636373   -0.2088957   -0.1885091 
P    -1.3363838    0.4803238   -0.7188389 
H    -1.4228389   -0.4881946    2.9605861 
H     1.0373257   -1.1018561    3.2221867 
C    -5.6810438   -2.4259927    1.5751750 
C    -5.2868447   -1.0821604    1.6661919 
C    -3.9544847   -0.7567668    1.9365733 
C    -2.9792033   -1.7670837    2.0999168 
C    -3.3935559   -3.1166832    2.0150371 
C    -4.7307216   -3.4410357    1.7629326 
H    -6.7253659   -2.6808321    1.3680126 
H    -6.0207839   -0.2829811    1.5207529 
H    -3.6567466    0.2949431    1.9923026 
H    -2.6717932   -3.9241412    2.1748196 
H    -5.0327366   -4.4922508    1.7142617 
C     4.1782505   -4.5812200    1.8869212 
C     3.0761974   -4.6291334    1.0166505 
C     1.9977711   -3.7568771    1.2001794 
C     1.9973040   -2.8191680    2.2593585 
C     3.1182528   -2.7712055    3.1141243 
C     4.1965060   -3.6460482    2.9316767 
H     5.0197245   -5.2675797    1.7467977 
H     3.0591974   -5.3497734    0.1920489 
H     1.1506679   -3.7881444    0.5039992 
H     3.1411236   -2.0413738    3.9298458 
H     5.0568978   -3.5923251    3.6061674 
C     0.2079270   -0.1968624   -3.1020548 
C     0.8273506   -1.4235213   -2.3663014 
C    -0.4692251   -1.2129566   -4.0629459 
C     0.6403194   -2.2282486   -3.6793911 
C    -0.6041672    0.8986172   -2.3867947 
C     2.1822381   -1.3268006   -1.6652681 
C    -1.9108125    2.1156505   -0.1003891 
C    -2.8594529   -0.4535851   -1.1587724 
C     3.6167458   -0.4124988    0.7639208 
C     2.1907491    1.5189054   -0.7995272 
C    -2.3229553    3.1523962   -0.9616953 
C    -2.8065799   -1.8588566   -1.1486272 
C     3.7482587    0.3485011    1.9451720 
C     2.9258258    1.8556965   -1.9527467 
C    -1.9629132    2.3180904    1.2915891 
C    -4.0469449    0.1975977   -1.5390477 
C     4.6571847   -1.2592102    0.3575469 
C     1.5194362    2.5228683   -0.0799313 
C    -2.8126614    4.3666581   -0.4452620 
C    -3.9165260   -2.6257351   -1.5432007 
C     4.9157470    0.2772496    2.7177253 
C     2.9642897    3.1833250   -2.4126251 
C    -2.4570248    3.5169431    1.8384522 
C    -5.1787381   -0.5446897   -1.9208263 
C     5.8427924   -1.3500858    1.1178306 
C     1.5530699    3.8642443   -0.5087954 
C    -2.8867801    4.5220878    0.9527429 
C    -5.0898887   -1.9495003   -1.9241755 
C     5.9519850   -0.5776015    2.2839482 
C     2.2659804    4.1671661   -1.6816023 
C    -3.2293097    5.4920375   -1.3657278 
C    -3.8471174   -4.1355398   -1.5631669 
C     5.0662699    1.0793699    3.9911093 
C     3.7425470    3.5594268   -3.6538631 
C    -2.4862767    3.7316168    3.3353973 
C    -6.4778024    0.1458096   -2.2717837 
C     6.9541040   -2.2744450    0.6753697 
C     0.8418030    4.9384871    0.2810619 
H     1.0217753    0.3084508   -3.6558258 
H     0.0878342   -1.7976027   -1.6302081 
H    -0.5715975   -0.9216654   -5.1214507 
H    -1.4541081   -1.5302693   -3.6776199 
H     0.3724339   -3.2943877   -3.5901364 
H     1.5212058   -2.1333203   -4.3393978 
H    -1.4467485    1.2070460   -3.0318452 
H     0.0202538    1.7895585   -2.2069403 
H     2.9808313   -0.9894964   -2.3495987 
H     2.4756588   -2.3159200   -1.2688094 
H    -2.2724618    3.0272953   -2.0479323 
H    -1.8942648   -2.3658052   -0.8092279 
H     2.9303201    1.0073528    2.2628232 
H     3.4699736    1.0859719   -2.5100892 
H    -1.6040670    1.5284186    1.9610767 
H    -4.1061329    1.2910745   -1.5197183 
H     4.5652866   -1.8672725   -0.5475255 
H     0.9365937    2.2560134    0.8099247 
H    -3.2768663    5.4614545    1.3630835 
H    -5.9686341   -2.5367398   -2.2174995 
H     6.8695921   -0.6451386    2.8809811 
H     2.2827651    5.2039920   -2.0393539 
H    -3.3177186    5.1522431   -2.4105702 
H    -2.4849504    6.3097065   -1.3388013 
H    -4.1973435    5.9236464   -1.0576701 
H    -3.6213109   -4.5041571   -2.5816160 
H    -3.0599494   -4.5093412   -0.8873241 
H    -4.8063014   -4.5846759   -1.2553951 
H     5.1827135    0.4131474    4.8656700 
H     5.9648535    1.7205998    3.9516461 
H     4.1919013    1.7267638    4.1692345 
H     3.1205507    4.1486159   -4.3506292 
H     4.1113174    2.6688080   -4.1884148 
H     4.6167567    4.1833244   -3.3920470 
H    -3.3554050    4.3393935    3.6378261 
H    -1.5783223    4.2688835    3.6688084 
H    -2.5258093    2.7740248    3.8812647 
H    -7.1821594    0.0987274   -1.4194888 
H    -6.9730014   -0.3383609   -3.1308280 
H    -6.3201611    1.2094315   -2.5155616 
H     6.5869998   -3.3138625    0.5978147 
H     7.7994609   -2.2604209    1.3820443 
H     7.3364520   -1.9872436   -0.3208445 
H    -0.1010407    4.5584871    0.7071475 
H     0.6123293    5.8159857   -0.3457101 
H     1.4734612    5.2848490    1.1207164 
