115
Energy =
C    -1.4375764   -0.7247430    2.7884188 
C    -0.3870029   -1.6628024    2.5883946 
C     0.9625243   -1.3847320    2.8940540 
H    -0.6247692   -2.6007409    2.0713226 
Pd    0.0838334    0.1085937    1.3503603 
P    -1.3209498    1.6445226    0.2618507 
P     1.9640858    0.3757348   -0.0524317 
H    -1.3104870    0.0285299    3.5799380 
H     1.1684764   -0.5642062    3.5979112 
C    -5.5256492   -1.6951880    1.8381735 
C    -4.4829712   -2.2398309    1.0702583 
C    -3.1543741   -1.9196741    1.3640210 
C    -2.8339704   -1.0444756    2.4284171 
C    -3.8935000   -0.5007090    3.1852070 
C    -5.2244737   -0.8240148    2.8947152 
H    -6.5665196   -1.9495815    1.6133504 
H    -4.7075486   -2.9171507    0.2393817 
H    -2.3526031   -2.3526779    0.7555451 
H    -3.6669913    0.1742162    4.0165844 
H    -6.0298223   -0.3919652    3.4970416 
C     4.1871671   -4.2135685    2.5474712 
C     2.9868100   -4.4439426    1.8545898 
C     1.9352083   -3.5281336    1.9459083 
C     2.0583079   -2.3529809    2.7259723 
C     3.2731695   -2.1372936    3.4136919 
C     4.3243129   -3.0570850    3.3278609 
H     5.0079530   -4.9350547    2.4821861 
H     2.8676801   -5.3473534    1.2472804 
H     1.0017603   -3.7409880    1.4148715 
H     3.3857003   -1.2399975    4.0306448 
H     5.2545299   -2.8691832    3.8729935 
C     1.5417491    3.0841859   -1.0772053 
C     0.7179894    3.7050077    0.0943564 
C     2.1394765    4.4943221   -1.3799663 
C     1.1179601    5.1297086   -0.4002566 
C     2.5649182    2.0217349   -0.6940221 
C    -0.7779754    3.4272004    0.2000008 
C     1.5747670   -0.6280034   -1.5364324 
C     3.5774701   -0.2525054    0.5755973 
C    -3.0293158    1.8735330    0.9136641 
C    -1.5748465    1.0920052   -1.4723940 
C     1.5501180   -0.1001535   -2.8375364 
C     4.2812671   -1.2997427   -0.0350061 
C    -3.1818359    2.4950693    2.1723837 
C    -1.5979437    1.9541991   -2.5813951 
C     1.2426612   -1.9827785   -1.3281136 
C     4.1456815    0.4268574    1.6751063 
C    -4.1642565    1.4900893    0.1855903 
C    -1.8259709   -0.2823464   -1.6578457 
C     1.2093427   -0.9150368   -3.9353376 
C     5.5642930   -1.6630221    0.4255850 
C    -4.4566918    2.7777216    2.6850436 
C    -1.8556751    1.4553498   -3.8746320 
C     0.9315336   -2.8249542   -2.4064808 
C     5.4284692    0.0989065    2.1387228 
C    -5.4575829    1.7493940    0.6857815 
C    -2.1346233   -0.7990023   -2.9250320 
C     0.9182355   -2.2699906   -3.7015240 
C     6.1239871   -0.9442052    1.4935602 
C    -5.5816341    2.4047285    1.9205238 
C    -2.1293311    0.0848463   -4.0223587 
C     1.1818049   -0.3414557   -5.3342384 
C     6.2978317   -2.8161583   -0.2196792 
C    -4.6311125    3.4255802    4.0403453 
C    -1.8656363    2.3883589   -5.0660220 
C     0.6348261   -4.2918332   -2.1854358 
C     6.0323733    0.8011769    3.3339060 
C    -6.6706585    1.3082581   -0.1002969 
C    -2.4931588   -2.2567075   -3.1003448 
H     0.8890371    2.7311879   -1.8937377 
H     1.1993785    3.4614843    1.0605281 
H     2.0914839    4.8274688   -2.4297408 
H     3.1842848    4.5873254   -1.0367810 
H     1.5195999    5.8182303    0.3611324 
H     0.2858349    5.6373624   -0.9182488 
H     3.2000811    2.4121948    0.1213372 
H     3.2509766    1.7907886   -1.5308084 
H    -1.3351221    3.8915720   -0.6343422 
H    -1.1799195    3.8873206    1.1188397 
H     1.7798183    0.9536953   -3.0196092 
H     3.8462468   -1.8331996   -0.8860315 
H    -2.2984418    2.7642047    2.7661535 
H    -1.4184117    3.0275474   -2.4609466 
H     1.2494309   -2.3856725   -0.3101494 
H     3.5827514    1.2247830    2.1775725 
H    -4.0543824    0.9959449   -0.7847902 
H    -1.7897614   -0.9535713   -0.7944504 
H     0.6581483   -2.9114357   -4.5524051 
H     7.1268151   -1.2125816    1.8473317 
H    -6.5839712    2.6202028    2.3101053 
H    -2.3393145   -0.3089994   -5.0242063 
H     0.4890534   -0.9009220   -5.9845946 
H     2.1849888   -0.3897934   -5.7979745 
H     0.8695055    0.7162403   -5.3256564 
H     5.8013982   -3.7721369    0.0318021 
H     6.2968311   -2.7272064   -1.3202098 
H     7.3437366   -2.8766527    0.1222565 
H    -3.6768097    3.8131274    4.4335602 
H    -5.3506354    4.2615777    3.9946417 
H    -5.0277089    2.6971925    4.7728384 
H    -1.0335298    3.1122061   -5.0165662 
H    -2.8044815    2.9720576   -5.0999927 
H    -1.7842679    1.8326247   -6.0144732 
H    -0.1389010   -4.6571717   -2.8817567 
H     0.2924594   -4.4848769   -1.1545330 
H     1.5411969   -4.9033744   -2.3531345 
H     7.0954753    1.0431904    3.1633809 
H     5.9872600    0.1518119    4.2293069 
H     5.4981750    1.7360195    3.5714561 
H    -6.7313441    0.2042470   -0.1208656 
H    -6.6153351    1.6520049   -1.1482666 
H    -7.6043573    1.6925847    0.3411576 
H    -2.0540577   -2.6727309   -4.0226089 
H    -3.5904050   -2.3781653   -3.1733000 
H    -2.1436264   -2.8615689   -2.2478163 
