115
Energy =
C    -1.7488051   -1.3759975    2.0245178 
C    -0.8114065   -2.3764786    1.6251713 
C     0.5765897   -2.2153780    1.8327364 
H    -1.1658812   -3.2288458    1.0310380 
Pd   -0.2884396   -0.5208775    0.5655705 
P     1.5465461   -0.3514345   -0.9017131 
P    -1.4321659    1.4816948    0.1253345 
H    -1.4959902   -0.7628780    2.9022457 
H     0.8882224   -1.5057369    2.6150340 
C    -5.9555243   -1.9149703    1.2970614 
C    -5.0215423   -2.3414900    0.3384673 
C    -3.6546567   -2.1401154    0.5526517 
C    -3.1897488   -1.5172407    1.7352896 
C    -4.1414530   -1.0669179    2.6741201 
C    -5.5104505   -1.2678023    2.4583654 
H    -7.0257113   -2.0744567    1.1308836 
H    -5.3629096   -2.8294513   -0.5806977 
H    -2.9350780   -2.4572973   -0.2110809 
H    -3.8008868   -0.5679169    3.5874367 
H    -6.2328118   -0.9165813    3.2021431 
C     3.5896532   -5.1208351    0.8681629 
C     2.4144372   -5.0641631    0.1000217 
C     1.4302790   -4.1138411    0.3871372 
C     1.6053277   -3.1944377    1.4472093 
C     2.8053414   -3.2427348    2.1907941 
C     3.7827462   -4.2041154    1.9116237 
H     4.3560135   -5.8702413    0.6453785 
H     2.2647250   -5.7662270   -0.7268681 
H     0.5261920   -4.0763200   -0.2277133 
H     2.9667438   -2.5202037    2.9979542 
H     4.7023408   -4.2308521    2.5047592 
C    -0.3217586    2.6149620   -2.2575017 
C     0.8025397    1.6668844   -2.7542025 
C    -0.3549707    3.2258291   -3.6872893 
C     1.0937254    2.7046638   -3.8753204 
C    -1.6066071    2.0655883   -1.6459450 
C     1.9241997    1.2357805   -1.8099172 
C    -3.1479683    1.6588112    0.7556013 
C    -0.5313273    2.8470173    0.9649783 
C     1.2506891   -1.5285137   -2.2828841 
C     3.1878458   -0.7514838   -0.1773441 
C    -3.3843368    2.2096495    2.0304202 
C    -0.9329397    4.1875329    0.7970091 
C     2.1527226   -1.6643472   -3.3564981 
C     3.6423388    0.0674701    0.8738823 
C    -4.2337915    1.2367578   -0.0339833 
C     0.5597699    2.5464731    1.7980671 
C     0.0546185   -2.2694050   -2.2862169 
C     3.9920965   -1.8116440   -0.6340895 
C    -4.6966401    2.3804340    2.5053516 
C    -0.2421061    5.2283126    1.4411691 
C     1.8817208   -2.5530396   -4.4134102 
C     4.9041558   -0.1474543    1.4609507 
C    -5.5563931    1.4057935    0.4149068 
C     1.2692173    3.5672214    2.4602940 
C    -0.2420453   -3.1698046   -3.3248282 
C     5.2606909   -2.0395346   -0.0726625 
C    -5.7652477    1.9863626    1.6788368 
C     0.8548044    4.8961873    2.2632509 
C     0.6868729   -3.2988162   -4.3737301 
C     5.6974585   -1.1989629    0.9689814 
C    -4.9584264    2.9506252    3.8818058 
C    -0.6669578    6.6705140    1.2751830 
C     2.8363452   -2.6792575   -5.5802802 
C     5.3848010    0.7331226    2.5941625 
C    -6.7237999    0.9942908   -0.4531875 
C     2.4542726    3.2459770    3.3440727 
C    -1.5082447   -3.9973839   -3.2929781 
C     6.1418941   -3.1573669   -0.5825901 
H     0.1247459    3.3621134   -1.5754032 
H     0.3409150    0.7770586   -3.2238764 
H    -0.5411566    4.3091085   -3.7749081 
H    -1.0652047    2.6852240   -4.3380873 
H     1.3897402    2.3158041   -4.8637645 
H     1.8371648    3.4517478   -3.5451459 
H    -1.9879014    1.2133038   -2.2366402 
H    -2.3931433    2.8422971   -1.6431116 
H     2.1422661    2.0133021   -1.0553223 
H     2.8604182    1.0528812   -2.3689260 
H    -2.5416699    2.5277154    2.6543792 
H    -1.7995381    4.4277517    0.1702729 
H     3.0796056   -1.0800241   -3.3778736 
H     3.0136042    0.8879027    1.2407058 
H    -4.0633140    0.7756198   -1.0129644 
H     0.8492409    1.4959124    1.9374898 
H    -0.6562552   -2.1306044   -1.4596170 
H     3.6276167   -2.4830364   -1.4166700 
H    -6.7930714    2.1219633    2.0370989 
H     1.3976020    5.7025167    2.7720260 
H     0.4711294   -3.9965292   -5.1921748 
H     6.6831383   -1.3739832    1.4170290 
H    -5.7246996    3.7446883    3.8479258 
H    -4.0429527    3.3729279    4.3276814 
H    -5.3354820    2.1652349    4.5637876 
H    -1.0152708    7.0895535    2.2367437 
H     0.1776157    7.2960763    0.9355850 
H    -1.4856579    6.7709163    0.5443315 
H     2.8012158   -3.6886516   -6.0227746 
H     2.5712430   -1.9600442   -6.3782009 
H     3.8754556   -2.4677417   -5.2771257 
H     4.7279378    0.6373466    3.4781261 
H     5.3805574    1.7978271    2.3000226 
H     6.4088545    0.4696772    2.9038345 
H    -7.0835619    1.8496675   -1.0557608 
H    -7.5717380    0.6410569    0.1569914 
H    -6.4407043    0.1878357   -1.1497346 
H     2.4229973    3.8237089    4.2837039 
H     3.4030725    3.5005543    2.8363132 
H     2.4888217    2.1740872    3.5995244 
H    -1.9089073   -4.1647906   -4.3067165 
H    -2.2918416   -3.5118150   -2.6864469 
H    -1.3133066   -4.9922917   -2.8493294 
H     6.5959746   -3.7208733    0.2507654 
H     6.9706343   -2.7532489   -1.1935424 
H     5.5728946   -3.8648504   -1.2073200 
