115
Energy =
C    -1.4935834   -2.5425353    1.0594410 
C    -0.4887922   -3.2423240    0.3589900 
C     0.8897702   -3.0301738    0.6990235 
H    -0.7462462   -3.8470513   -0.5200091 
Pd    0.0300834   -1.1371810   -0.0115309 
P    -1.3440341    0.4953121   -0.9982825 
P     2.0499417    0.0256733   -0.0810662 
H    -1.1863409   -2.0785287    2.0103524 
H     1.1169238   -2.8212516    1.7541087 
C    -5.7627611   -2.7847107    0.6928613 
C    -5.1698245   -2.0607543    1.7384274 
C    -3.7765711   -1.9894283    1.8321680 
C    -2.9446352   -2.6312845    0.8823388 
C    -3.5593217   -3.3549894   -0.1653388 
C    -4.9517139   -3.4318829   -0.2535859 
H    -6.8529225   -2.8494516    0.6165961 
H    -5.7941044   -1.5612486    2.4864979 
H    -3.3146642   -1.4467164    2.6650699 
H    -2.9458332   -3.8654214   -0.9134333 
H    -5.4114587   -3.9990539   -1.0689754 
C     4.2084086   -4.6054362   -1.5517321 
C     4.2689892   -4.5242570   -0.1532476 
C     3.1844997   -4.0147056    0.5719264 
C     2.0113916   -3.5886461   -0.0862234 
C     1.9622859   -3.6766253   -1.4985069 
C     3.0495635   -4.1767266   -2.2227302 
H     5.0581854   -4.9988624   -2.1192343 
H     5.1684774   -4.8510137    0.3786022 
H     3.2480509   -3.9338692    1.6620042 
H     1.0717418   -3.3210723   -2.0315711 
H     2.9967555   -4.2323350   -3.3153144 
C     1.7370809    0.4578477   -2.8818441 
C     0.7157242    1.6387000   -2.7646138 
C     2.2890024    1.0863080   -4.1969635 
C     1.1032843    2.0856576   -4.2100098 
C     2.7645904    0.1973611   -1.7760207 
C    -0.7549117    1.2627075   -2.5976990 
C     3.4135229   -0.6841168    0.9370401 
C     1.8553678    1.7094021    0.6400947 
C    -1.7819647    1.8863261    0.1031859 
C    -2.9320335   -0.2136098   -1.6065312 
C     4.6702649   -1.0071362    0.4050543 
C     2.4964588    2.8519571    0.1264314 
C    -1.4106903    3.2134593   -0.1665082 
C    -4.1960225    0.2733317   -1.2468778 
C     3.1578321   -0.9221502    2.3048544 
C     1.0868806    1.8154722    1.8154510 
C    -2.4674404    1.5815459    1.2977708 
C    -2.8281917   -1.2749619   -2.5332073 
C     5.6768817   -1.5686427    1.2200301 
C     2.3653194    4.0980352    0.7673632 
C    -1.7310909    4.2453293    0.7373653 
C    -5.3629312   -0.2748004   -1.8202358 
C     4.1415488   -1.4703570    3.1400178 
C     0.9891689    3.0334993    2.5099975 
C    -2.8299640    2.5950488    2.1981629 
C    -3.9706547   -1.8184186   -3.1379189 
C     5.3957599   -1.7905565    2.5758495 
C     1.6217640    4.1634207    1.9609739 
C    -2.4518355    3.9197202    1.8987658 
C    -5.2289595   -1.2988602   -2.7712525 
C     7.0149133   -1.9346673    0.6179006 
C     3.0098067    5.3417079    0.1955772 
C    -1.3235653    5.6733712    0.4513264 
C    -6.7217124    0.2312412   -1.3933824 
C     3.8755879   -1.7178871    4.6082706 
C     0.2573996    3.1173817    3.8299351 
C    -3.5961642    2.2805944    3.4639730 
C    -3.8679681   -2.9718471   -4.1099707 
H     1.1905132   -0.4837532   -3.0795176 
H     1.0259225    2.3807587   -2.0100749 
H     2.3821462    0.4106151   -5.0630551 
H     3.2631419    1.5815208   -4.0408828 
H     1.3560624    3.1511243   -4.3369181 
H     0.3264361    1.8256615   -4.9496819 
H     3.5458744    0.9787408   -1.7548752 
H     3.2713888   -0.7632933   -1.9765928 
H    -1.0178919    0.5106486   -3.3630526 
H    -1.4155495    2.1300920   -2.7844530 
H     4.8930525   -0.8444646   -0.6533327 
H     3.1112699    2.7889922   -0.7776933 
H    -0.8483071    3.4646891   -1.0707098 
H    -4.2861332    1.0954674   -0.5296634 
H     2.1777511   -0.6747930    2.7287956 
H     0.5504602    0.9374892    2.1957531 
H    -2.7369094    0.5420107    1.5151955 
H    -1.8397394   -1.6802563   -2.7898798 
H     6.1711165   -2.2282681    3.2161965 
H     1.5332195    5.1262963    2.4788498 
H    -2.7146569    4.7188344    2.6029152 
H    -6.1317718   -1.7185607   -3.2311929 
H     7.7000998   -2.3512633    1.3735951 
H     7.5012216   -1.0525882    0.1638312 
H     6.8882215   -2.6858627   -0.1832122 
H     2.2414106    6.0625712   -0.1403676 
H     3.6257099    5.8558787    0.9541956 
H     3.6540511    5.1066936   -0.6674635 
H    -2.1579934    6.2370736   -0.0063233 
H    -1.0393754    6.2011629    1.3774673 
H    -0.4694505    5.7139516   -0.2447790 
H    -6.7643303    1.3343408   -1.4135171 
H    -6.9377621   -0.0854709   -0.3556237 
H    -7.5238747   -0.1585671   -2.0407136 
H     2.8332391   -1.4804851    4.8779056 
H     4.5393450   -1.0976427    5.2376739 
H     4.0690850   -2.7722891    4.8755997 
H    -0.3084502    4.0596125    3.9191132 
H     0.9769701    3.0820484    4.6694958 
H    -0.4469168    2.2789455    3.9527913 
H    -3.0501046    2.6333073    4.3575987 
H    -3.7706280    1.1973519    3.5733854 
H    -4.5791843    2.7851675    3.4662614 
H    -2.8375134   -3.1037344   -4.4796624 
H    -4.5317268   -2.8261608   -4.9794388 
H    -4.1737593   -3.9184563   -3.6239247 
