115
Energy =
C    -1.5267421   -1.5896104    1.9904294 
C    -0.4134939   -2.3861373    1.6199901 
C     0.9039794   -2.0184292    2.0080589 
H    -0.5491781   -3.2220896    0.9223541 
Pd   -0.0313439   -0.4058151    0.7450049 
P    -1.6458847    0.9526423   -0.2884197 
P     1.9890291    0.5329646    0.0005576 
H    -1.3927256   -0.9418517    2.8694587 
H     1.0084338   -1.4163377    2.9235490 
C    -5.6563930   -2.4705139    1.2029065 
C    -4.6564915   -3.1326676    0.4711828 
C    -3.3086981   -2.8348793    0.6882299 
C    -2.9300112   -1.8734734    1.6540941 
C    -3.9485266   -1.1907712    2.3583940 
C    -5.2983846   -1.4880989    2.1373242 
H    -6.7106805   -2.7125837    1.0352538 
H    -4.9311313   -3.8838830   -0.2758105 
H    -2.5458638   -3.3558811    0.1016126 
H    -3.6721153   -0.4289431    3.0955128 
H    -6.0718276   -0.9582558    2.7029731 
C     4.4175527   -4.2808290    0.9825219 
C     3.3717379   -4.1615052    0.0518310 
C     2.2269818   -3.4254267    0.3720406 
C     2.1067919   -2.7847490    1.6261096 
C     3.1713052   -2.9003829    2.5450835 
C     4.3118511   -3.6481454    2.2294852 
H     5.3119064   -4.8613849    0.7333510 
H     3.4511338   -4.6427299   -0.9286121 
H     1.4244560   -3.3288942   -0.3662466 
H     3.1015624   -2.3961234    3.5144252 
H     5.1265221   -3.7262487    2.9565447 
C     1.3500735    3.0204109   -1.2721581 
C    -0.1852353    3.2246698   -1.1609583 
C     1.4734478    4.5460061   -1.5491869 
C    -0.0097057    4.5210671   -2.0024171 
C     2.1427014    2.3949222   -0.1313137 
C    -1.1383146    2.1315013   -1.6419461 
C     3.4258706    0.1691822    1.0875681 
C     2.4304997   -0.0663759   -1.6745278 
C    -2.5069788    2.0563279    0.8990552 
C    -2.9230596   -0.0437157   -1.1572107 
C     3.3412051    0.6026258    2.4285223 
C     1.6470989   -1.0787072   -2.2554773 
C    -2.1369697    2.0175920    2.2557924 
C    -2.4633929   -0.9543575   -2.1289126 
C     4.5776084   -0.4910827    0.6377064 
C     3.5236785    0.4639926   -2.3894776 
C    -3.4923190    2.9716310    0.4761751 
C    -4.3024037    0.0826110   -0.9155738 
C     4.4111388    0.4066936    3.3149415 
C     1.9433736   -1.5827557   -3.5351346 
C    -2.7541994    2.8553959    3.2026887 
C    -3.3697035   -1.7251947   -2.8801729 
C     5.6684474   -0.6982196    1.5085112 
C     3.8421632   -0.0160959   -3.6723018 
C    -4.1276568    3.8220803    1.3988415 
C    -5.2289123   -0.6683196   -1.6606427 
C     5.5685685   -0.2402380    2.8313781 
C     3.0432185   -1.0388759   -4.2225949 
C    -3.7493515    3.7426575    2.7537228 
C    -4.7447175   -1.5612467   -2.6354404 
C     4.3340607    0.8648787    4.7545512 
C     1.0968506   -2.6698654   -4.1597951 
C    -2.3627973    2.8065102    4.6634101 
C    -2.8679896   -2.7151252   -3.9090003 
C     6.9099075   -1.4015703    1.0087057 
C     5.0115302    0.5461450   -4.4500497 
C    -5.1838030    4.8090994    0.9525659 
C    -6.7142090   -0.5043120   -1.4306023 
H     1.5655132    2.4793572   -2.2130646 
H    -0.4373188    3.5192459   -0.1235491 
H     2.2394624    4.8733111   -2.2716163 
H     1.5991068    5.1144810   -0.6104888 
H    -0.6521103    5.3812384   -1.7509501 
H    -0.0978245    4.3104534   -3.0831585 
H     1.8360133    2.8105320    0.8456631 
H     3.2219769    2.6063933   -0.2459271 
H    -0.6910585    1.5312911   -2.4549252 
H    -2.0737935    2.5662341   -2.0393435 
H     2.4288204    1.0959466    2.7889074 
H     0.7960625   -1.4793229   -1.6902464 
H    -1.3468862    1.3273624    2.5750667 
H    -1.3865469   -1.0653728   -2.3067481 
H     4.6316679   -0.8683658   -0.3882219 
H     4.1443710    1.2515511   -1.9471345 
H    -3.7807006    3.0260647   -0.5796040 
H    -4.6654467    0.7556787   -0.1338055 
H     6.4105147   -0.4026955    3.5154067 
H     3.2889454   -1.4227569   -5.2205389 
H    -4.2423005    4.4003240    3.4805113 
H    -5.4614206   -2.1557833   -3.2149696 
H     5.1313469    1.5958572    4.9800298 
H     4.4695693    0.0152462    5.4482987 
H     3.3642759    1.3388113    4.9792089 
H     1.7252425   -3.4690272   -4.5896501 
H     0.4159816   -3.1259595   -3.4222087 
H     0.4786299   -2.2648093   -4.9822098 
H    -1.5709298    2.0610741    4.8457958 
H    -1.9936180    3.7888657    5.0086669 
H    -3.2297493    2.5457426    5.2969038 
H    -2.1673566   -2.2366139   -4.6156761 
H    -3.6970571   -3.1493516   -4.4905344 
H    -2.3241944   -3.5472720   -3.4240978 
H     6.6440645   -2.3159494    0.4502062 
H     7.5788808   -1.6833928    1.8380609 
H     7.4803781   -0.7498138    0.3211851 
H     5.7088585   -0.2557907   -4.7511639 
H     5.5743682    1.2862496   -3.8584013 
H     4.6664470    1.0406377   -5.3762932 
H    -6.0954763    4.7214090    1.5693638 
H    -5.4647715    4.6544312   -0.1019616 
H    -4.8190548    5.8473707    1.0579938 
H    -7.1479246    0.1937942   -2.1713161 
H    -6.9222159   -0.1006206   -0.4260617 
H    -7.2462176   -1.4649644   -1.5358340 
