115
Energy =
C    -1.2348285   -1.2846195    2.5827375 
C    -0.5564784   -2.4442300    2.1531817 
C     0.8693189   -2.4117924    1.9860814 
H    -1.1232563   -3.3257394    1.8269261 
Pd   -0.0424566   -0.9714731    0.6012850 
P     1.9254579   -0.4679539   -0.5431403 
P    -1.5467570    0.2096791   -0.7629823 
H    -0.6096434   -0.4955355    3.0303568 
H     1.4393200   -1.7728837    2.6752996 
C    -5.4047641   -0.7045209    3.4151690 
C    -4.4632843    0.2874177    3.7291396 
C    -3.1110906    0.0790983    3.4406683 
C    -2.6692069   -1.1185861    2.8269990 
C    -3.6320226   -2.1061866    2.5156746 
C    -4.9819893   -1.8998798    2.8112106 
H    -6.4642898   -0.5505978    3.6435259 
H    -4.7824752    1.2184647    4.2087692 
H    -2.3733986    0.8435741    3.7109076 
H    -3.3237924   -3.0439570    2.0443684 
H    -5.7138721   -2.6760666    2.5667298 
C     3.1646759   -5.5883303    0.1964861 
C     1.8708179   -5.3082496   -0.2773221 
C     1.1139792   -4.2870115    0.3064422 
C     1.6357615   -3.5188024    1.3755070 
C     2.9394061   -3.8056648    1.8333358 
C     3.6930115   -4.8343465    1.2540167 
H     3.7552465   -6.3899294   -0.2591685 
H     1.4531321   -5.8896768   -1.1062387 
H     0.1151564   -4.0595483   -0.0860450 
H     3.3675737   -3.2069252    2.6439834 
H     4.7010647   -5.0413893    1.6277361 
C    -0.0726974   -0.1802541   -3.2817833 
C     0.7932100   -1.4470337   -2.9685747 
C    -0.1279478   -0.6196575   -4.7794523 
C     0.9503521   -1.6978456   -4.4985273 
C    -1.4384396   -0.0920296   -2.6038756 
C     2.0939526   -1.3333230   -2.1663677 
C    -1.5285343    2.0231891   -0.5371283 
C    -3.2886524   -0.3297579   -0.4999969 
C     3.4860148   -0.8459017    0.3627311 
C     2.0715089    1.3448415   -0.8355702 
C    -1.7947535    2.5182412    0.7583346 
C    -3.5569844   -1.7025505   -0.6981683 
C     3.6362663   -0.3173117    1.6630933 
C     2.5804851    1.9003211   -2.0230171 
C    -1.2181679    2.9166053   -1.5727821 
C    -4.3359178    0.5427091   -0.1736913 
C     4.5054400   -1.6422935   -0.1789135 
C     1.7207231    2.1940052    0.2325904 
C    -1.8035582    3.8966680    1.0133487 
C    -4.8660273   -2.1995320   -0.6226607 
C     4.7897835   -0.5711903    2.4186927 
C     2.7314192    3.2941017   -2.1572597 
C    -1.1856793    4.3068176   -1.3354650 
C    -5.6582708    0.0628714   -0.0645232 
C     5.6735539   -1.9230924    0.5624170 
C     1.9136798    3.5828827    0.1475132 
C    -1.4948868    4.7737725   -0.0486206 
C    -5.9035959   -1.2974450   -0.3106296 
C     5.7965712   -1.3820087    1.8504008 
C     2.4032169    4.1127220   -1.0610258 
C    -2.1304866    4.4383156    2.3871088 
C    -5.1560840   -3.6718098   -0.8079236 
C     4.9608480    0.0030120    3.8074802 
C     3.2767921    3.8936885   -3.4351912 
C    -0.8320633    5.2577314   -2.4567673 
C    -6.7724250    1.0058934    0.3278538 
C     6.7476453   -2.8064459   -0.0316348 
C     1.6383533    4.4793209    1.3328393 
H     0.4978826    0.7542049   -3.1506299 
H     0.1573595   -2.2187070   -2.4943099 
H     0.1268122    0.1536613   -5.5226872 
H    -1.1075602   -1.0492655   -5.0516192 
H     0.7402519   -2.7201286   -4.8537163 
H     1.9504181   -1.4056917   -4.8634183 
H    -1.9675767   -1.0515488   -2.7451242 
H    -2.0740919    0.6776596   -3.0806701 
H     2.8908071   -0.8404669   -2.7524980 
H     2.4525821   -2.3484309   -1.9192308 
H    -2.0178573    1.8150290    1.5684698 
H    -2.7320223   -2.3937756   -0.9190563 
H     2.8430220    0.3037265    2.0950997 
H     2.8699507    1.2580185   -2.8615545 
H    -0.9805154    2.5505528   -2.5763664 
H    -4.1370449    1.6078283   -0.0176453 
H     4.4116518   -2.0741473   -1.1795083 
H     1.2814481    1.7691139    1.1432578 
H    -1.4835457    5.8540634    0.1410920 
H    -6.9317723   -1.6729985   -0.2420538 
H     6.6994605   -1.5970848    2.4346278 
H     2.5305400    5.1983596   -1.1521888 
H    -3.0715755    5.0176818    2.3682131 
H    -1.3387667    5.1201031    2.7459300 
H    -2.2474651    3.6274295    3.1251243 
H    -6.0535237   -3.8303644   -1.4302411 
H    -4.3102938   -4.1984677   -1.2803524 
H    -5.3495786   -4.1561596    0.1687579 
H     5.1734154   -0.7924187    4.5441009 
H     5.8113541    0.7081242    3.8382300 
H     4.0591252    0.5451479    4.1369542 
H     2.8065056    4.8673215   -3.6553847 
H     3.1142426    3.2268616   -4.2984883 
H     4.3657130    4.0686634   -3.3503834 
H    -1.6212011    5.2670484   -3.2308741 
H     0.1073579    4.9490834   -2.9485240 
H    -0.7066677    6.2891486   -2.0894079 
H    -6.6666497    1.3003292    1.3890289 
H    -7.7635906    0.5407715    0.2023885 
H    -6.7450772    1.9323464   -0.2721398 
H     6.3386674   -3.8024862   -0.2815174 
H     7.5900515   -2.9457788    0.6648609 
H     7.1453870   -2.3733371   -0.9671297 
H     1.1715212    5.4284902    1.0216313 
H     2.5833451    4.7286176    1.8512035 
H     0.9725437    3.9893072    2.0612553 
