115
Energy =
C    -1.8826720   -0.3156734    2.9987771 
C    -0.8739832   -1.2980960    2.9276677 
C     0.5135454   -0.9637518    3.0067343 
H    -1.1628737   -2.3176135    2.6418376 
Pd   -0.4046659    0.1272977    1.2953703 
P     1.5766583    1.0836596    0.4479329 
P    -1.8103094    0.7963879   -0.4556136 
H    -1.6074904    0.6765770    3.3915891 
H     0.8061079   -0.1266077    3.6539820 
C    -6.1063665   -1.0407856    2.7353170 
C    -5.2411817   -2.0923781    3.0738198 
C    -3.8626598   -1.8710079    3.1570759 
C    -3.3255794   -0.5846158    2.9220994 
C    -4.2135892    0.4723312    2.6167555 
C    -5.5878556    0.2443126    2.5095297 
H    -7.1837098   -1.2188104    2.6581018 
H    -5.6430143   -3.0908793    3.2732552 
H    -3.2013206   -2.6977564    3.4355942 
H    -3.8090225    1.4756066    2.4399865 
H    -6.2590630    1.0683793    2.2480523 
C     3.6425283   -3.8220493    2.2201034 
C     2.3593851   -4.0242729    1.6824697 
C     1.3408442   -3.0967349    1.9218452 
C     1.5738800   -1.9517691    2.7236885 
C     2.8691018   -1.7628551    3.2558439 
C     3.8919775   -2.6853048    3.0028608 
H     4.4401136   -4.5472537    2.0285978 
H     2.1559319   -4.9058951    1.0656196 
H     0.3575751   -3.2549394    1.4652265 
H     3.0722293   -0.8809863    3.8717316 
H     4.8873602   -2.5160747    3.4265205 
C    -1.0927810    3.5269349   -0.0788447 
C     0.3065089    3.4574593   -0.7760813 
C    -1.2099506    5.0204517   -0.5075982 
C     0.2892612    5.0135572   -0.9015714 
C    -2.2228215    2.5998288   -0.5337370 
C     1.4808539    2.9025010    0.0275084 
C    -3.4333950   -0.0628692   -0.5652280 
C    -1.0581538    0.3228246   -2.0713225 
C     2.3234142    0.2537080   -0.9988649 
C     2.9184538    1.1761017    1.7113044 
C    -4.5961942    0.5721851   -1.0341637 
C    -1.0780030    1.1353831   -3.2172396 
C     2.7626361   -1.0788783   -0.8457326 
C     2.5923544    1.7701208    2.9509054 
C    -3.4748051   -1.4261736   -0.2162424 
C    -0.5164708   -0.9757928   -2.1492990 
C     2.4590609    0.8966946   -2.2409399 
C     4.2215563    0.7112653    1.4879129 
C    -5.8034351   -0.1432182   -1.1569122 
C    -0.5581308    0.6661227   -4.4402251 
C     3.3792924   -1.7539107   -1.9124786 
C     3.5520176    1.9001701    3.9658387 
C    -4.6602971   -2.1665060   -0.3410329 
C    -0.0259529   -1.4827317   -3.3623918 
C     3.0402122    0.2280429   -3.3346720 
C     5.2044879    0.8166103    2.4963286 
C    -5.8135048   -1.5039129   -0.8060920 
C    -0.0471632   -0.6420675   -4.4923108 
C     3.5041020   -1.0851185   -3.1463719 
C     4.8529989    1.4078720    3.7194851 
C    -7.0501825    0.5416049   -1.6726352 
C    -0.5867684    1.5403190   -5.6749831 
C     3.8946524   -3.1666404   -1.7504483 
C     3.2124449    2.5417554    5.2926753 
C    -4.7003856   -3.6366820    0.0071692 
C     0.4886404   -2.9002777   -3.4592759 
C     3.1848625    0.9173792   -4.6729720 
C     6.5982010    0.2856352    2.2458278 
H    -0.9662269    3.4302308    1.0164904 
H     0.2376203    2.9734247   -1.7651250 
H    -1.5223448    5.7363225    0.2703909 
H    -1.8763063    5.1450285   -1.3789858 
H     0.5495100    5.4289895   -1.8889991 
H     0.9319565    5.4948079   -0.1441292 
H    -2.5495647    2.8514114   -1.5589097 
H    -3.1024093    2.7338005    0.1214446 
H     1.5022940    3.3975685    1.0154605 
H     2.4435757    3.1481956   -0.4593162 
H    -4.5845953    1.6307780   -1.3138747 
H    -1.5034056    2.1440440   -3.1820443 
H     2.6428151   -1.5876729    0.1171145 
H     1.5717687    2.1344759    3.1306975 
H    -2.5716504   -1.9120182    0.1735803 
H    -0.4714133   -1.6004424   -1.2484609 
H     2.1032159    1.9209375   -2.3837220 
H     4.4855193    0.2516847    0.5305569 
H    -6.7511242   -2.0666831   -0.8896671 
H     0.3545698   -1.0176502   -5.4411205 
H     3.9727733   -1.6088110   -3.9889754 
H     5.6098061    1.4893871    4.5090335 
H    -7.0068119    0.6584684   -2.7717267 
H    -7.1622855    1.5514629   -1.2407984 
H    -7.9570557   -0.0384036   -1.4355170 
H     0.2192075    1.2710088   -6.3775961 
H    -1.5464839    1.4256738   -6.2131335 
H    -0.4794725    2.6080447   -5.4178805 
H     3.7828044   -3.5171067   -0.7125720 
H     3.3498324   -3.8653011   -2.4113850 
H     4.9629827   -3.2299182   -2.0237501 
H     3.4558356    1.8679423    6.1334780 
H     2.1425097    2.7996466    5.3576127 
H     3.7956795    3.4686075    5.4414924 
H    -3.8703762   -3.9141253    0.6780969 
H    -4.6186459   -4.2564136   -0.9055588 
H    -5.6486051   -3.9054035    0.5028100 
H     0.7593272   -3.2971419   -2.4672410 
H     1.3770318   -2.9610273   -4.1100073 
H    -0.2845102   -3.5634839   -3.8907611 
H     4.2248132    1.2594601   -4.8297792 
H     2.5254187    1.7978094   -4.7452909 
H     2.9367304    0.2328903   -5.5022855 
H     7.0822807    0.8256420    1.4120105 
H     6.5648543   -0.7825360    1.9643194 
H     7.2390575    0.3882061    3.1363628 
