115
Energy =
C    -1.4937122   -0.8382507    2.7013391 
C    -0.4414039   -1.7870154    2.4896480 
C     0.9128660   -1.4473119    2.6949240 
H    -0.6897354   -2.7489595    2.0218392 
Pd   -0.1159200   -0.0603363    1.1634088 
P     1.6279367    0.0970133   -0.4338416 
P    -1.4869841    1.6374915    0.3052123 
H    -1.3627377   -0.1015414    3.5077391 
H     1.1175511   -0.5759216    3.3365906 
C    -5.5724041   -1.7751300    1.6769737 
C    -4.5246515   -2.2074782    0.8469555 
C    -3.2003516   -1.8965981    1.1702003 
C    -2.8919634   -1.1506100    2.3323998 
C    -3.9559090   -0.7074037    3.1448624 
C    -5.2827021   -1.0186625    2.8213222 
H    -6.6097092   -2.0212294    1.4276846 
H    -4.7431255   -2.7841244   -0.0581518 
H    -2.3914527   -2.2153298    0.5016674 
H    -3.7376740   -0.1202724    4.0427976 
H    -6.0937925   -0.6666033    3.4666521 
C     4.3797597   -3.9120217    2.0727826 
C     4.4634609   -2.7217894    2.8098551 
C     3.3235947   -1.9334694    2.9985627 
C     2.0740524   -2.3182306    2.4604644 
C     2.0036315   -3.5288146    1.7313508 
C     3.1444140   -4.3116597    1.5353694 
H     5.2699707   -4.5318706    1.9234716 
H     5.4198916   -2.4026367    3.2351602 
H     3.3957404   -1.0028502    3.5702348 
H     1.0509529   -3.8682662    1.3155279 
H     3.0698396   -5.2436500    0.9654051 
C     0.8468696    3.2252141    0.2853203 
C     1.4316212    2.9322007   -1.1275116 
C     1.7318975    4.5003432    0.3241739 
C     2.6417949    3.8253499   -0.7366292 
C    -0.6575255    3.2965977    0.5143916 
C     1.6295553    1.5043577   -1.6654126 
C    -3.1534917    1.9080018    1.0211851 
C    -1.7668374    1.4230610   -1.4944247 
C     1.5274133   -1.3668020   -1.5464588 
C     3.3257564    0.0743384    0.2803239 
C    -3.2678883    2.4422783    2.3228719 
C    -2.0418965    2.5103114   -2.3486985 
C     2.2382304   -1.4483034   -2.7601891 
C     3.6068150    0.9458657    1.3541702 
C    -4.3095442    1.5578730    0.3070031 
C    -1.6863025    0.1240677   -2.0240324 
C     0.7086009   -2.4413500   -1.1577504 
C     4.3367100   -0.7690272   -0.2052426 
C    -4.5282220    2.6701267    2.8959914 
C    -2.2060122    2.3103576   -3.7296174 
C     2.1532671   -2.5990268   -3.5679457 
C     4.8933585    1.0207389    1.9094321 
C    -5.5873248    1.7679633    0.8645597 
C    -1.8437154   -0.1070254   -3.4047543 
C     0.6094770   -3.6070813   -1.9355244 
C     5.6347435   -0.7275060    0.3451899 
C    -5.6744304    2.3343746    2.1460548 
C    -2.0948696    0.9975170   -4.2358681 
C     1.3450034   -3.6679265   -3.1334335 
C     5.8963564    0.1800898    1.3839563 
C    -4.6640112    3.2246776    4.2964768 
C    -2.5014344    3.4664784   -4.6591631 
C     2.8873464   -2.6723840   -4.8887665 
C     5.1950026    1.9546702    3.0604607 
C    -6.8228034    1.3743883    0.0881110 
C    -1.6949970   -1.5028254   -3.9649530 
C    -0.2451753   -4.7682652   -1.4788111 
C     6.6998849   -1.6724082   -0.1626246 
H     1.2669713    2.4912932    0.9990786 
H     0.8199070    3.4826106   -1.8672014 
H     2.1747674    4.7835637    1.2938540 
H     1.1988137    5.3729162   -0.0935428 
H     3.0817459    4.4566956   -1.5263173 
H     3.4427209    3.2316733   -0.2628788 
H    -1.1457693    4.0276290   -0.1543650 
H    -0.8708770    3.6184458    1.5490394 
H     2.5769278    1.4470689   -2.2308355 
H     0.8141847    1.2372286   -2.3599204 
H    -2.3695346    2.6836123    2.9046020 
H    -2.1345717    3.5241417   -1.9451621 
H     2.8728972   -0.6188860   -3.0897900 
H     2.8100731    1.5702987    1.7749160 
H    -4.2240913    1.1248663   -0.6952345 
H    -1.4766221   -0.7175154   -1.3549419 
H     0.1302142   -2.3531547   -0.2308076 
H     4.1220714   -1.4821882   -1.0070142 
H    -6.6649004    2.5084748    2.5837040 
H    -2.2131486    0.8345450   -5.3141951 
H     1.2777080   -4.5689067   -3.7553646 
H     6.9058188    0.2246419    1.8106738 
H    -5.0322234    2.4455815    4.9904622 
H    -5.3900612    4.0556501    4.3292357 
H    -3.7003937    3.5938213    4.6846404 
H    -2.4914708    4.4304978   -4.1250274 
H    -1.7601774    3.5175123   -5.4766296 
H    -3.4945628    3.3478340   -5.1292870 
H     3.7642356   -2.0039288   -4.9031375 
H     3.2284926   -3.6990247   -5.1032729 
H     2.2229654   -2.3666788   -5.7189817 
H     5.4227220    1.3856693    3.9810147 
H     4.3437164    2.6216787    3.2758961 
H     6.0768586    2.5826262    2.8428803 
H    -7.7453513    1.6504849    0.6237956 
H    -6.8380392    0.2821149   -0.0811632 
H    -6.8411844    1.8593355   -0.9041254 
H    -2.0822956   -1.5715101   -4.9944124 
H    -2.2262216   -2.2429636   -3.3418003 
H    -0.6299422   -1.7987869   -3.9769312 
H     0.3744213   -5.5338757   -0.9743218 
H    -0.7468086   -5.2624634   -2.3278922 
H    -1.0183660   -4.4424457   -0.7619922 
H     7.6966375   -1.4111697    0.2281787 
H     6.7475713   -1.6682591   -1.2656334 
H     6.4715154   -2.7085333    0.1499390 
