115
Energy =
C    -1.6106097   -1.5639437    1.7837403 
C    -0.6625111   -2.4188007    1.1764820 
C     0.7269058   -2.2935183    1.4819184 
H    -0.9818957   -3.0867393    0.3675959 
Pd   -0.0457748   -0.3982240    0.5728208 
P    -1.5397392    1.1377317   -0.3745699 
P     2.0929907    0.3962738    0.0263655 
H    -1.2894963   -1.0413179    2.6982480 
H     0.9800163   -1.9308597    2.4867633 
C    -5.8831490   -1.6411780    1.3486981 
C    -5.0935271   -2.5131161    0.5809865 
C    -3.7007638   -2.4879400    0.6912028 
C    -3.0656902   -1.5924414    1.5826445 
C    -3.8734608   -0.7128626    2.3411732 
C    -5.2673718   -0.7340858    2.2237411 
H    -6.9740714   -1.6687847    1.2615871 
H    -5.5682647   -3.2174656   -0.1091632 
H    -3.1056031   -3.1777094    0.0861072 
H    -3.3974787   -0.0081694    3.0311945 
H    -5.8743566   -0.0480206    2.8234620 
C     3.8329211   -4.6595515   -0.3246959 
C     2.6093883   -4.4908071   -0.9939874 
C     1.6010660   -3.7030282   -0.4320887 
C     1.7875631   -3.0787192    0.8238329 
C     3.0360001   -3.2288228    1.4693601 
C     4.0475976   -4.0133561    0.9013122 
H     4.6188666   -5.2812234   -0.7653114 
H     2.4454371   -4.9694520   -1.9646410 
H     0.6639476   -3.5618644   -0.9805431 
H     3.2057551   -2.7314817    2.4304069 
H     5.0031012   -4.1277237    1.4238675 
C     1.6126923    2.6906306   -1.6922114 
C     0.1406832    3.1651560   -1.5066653 
C     1.9468885    4.1185639   -2.2151103 
C     0.4398409    4.3049319   -2.5227870 
C     2.4102177    2.1602146   -0.5088591 
C    -1.0142477    2.2147130   -1.8044260 
C     2.6778265   -0.6252624   -1.3861246 
C     3.2759060    0.2985125    1.4307677 
C    -2.2536294    2.3253117    0.8238393 
C    -2.9052141    0.2075150   -1.1833164 
C     1.7556544   -0.7706275   -2.4466056 
C     4.6657490    0.4560391    1.2593952 
C    -3.1528979    3.3424273    0.4399381 
C    -4.2663971    0.5101349   -1.0356771 
C     3.9138920   -1.2866255   -1.4567448 
C     2.7552212    0.1711012    2.7324986 
C    -1.8519354    2.2279968    2.1677647 
C    -2.5095059   -0.8471611   -2.0344461 
C     2.0627246   -1.5385485   -3.5804709 
C     5.5376033    0.4190734    2.3635907 
C    -3.6710413    4.2381901    1.3908966 
C    -5.2395304   -0.2101174   -1.7579673 
C     4.2513936   -2.0588201   -2.5860438 
C     3.5992417    0.1424469    3.8568171 
C    -2.3557485    3.1089128    3.1439586 
C    -3.4581803   -1.5792061   -2.7655918 
C     3.3211937   -2.1687557   -3.6339032 
C     4.9869782    0.2478176    3.6478651 
C    -3.2639760    4.1002199    2.7344389 
C    -4.8176643   -1.2380082   -2.6188410 
C     1.0605800   -1.7080434   -4.7015367 
C     7.0302831    0.5846028    2.1807041 
C    -4.6359116    5.3327087    0.9918262 
C    -6.7055293    0.1310749   -1.6130776 
C     5.5955907   -2.7465601   -2.6676095 
C     3.0355550    0.0032345    5.2539111 
C    -1.9474845    2.9659733    4.5937571 
C    -3.0384955   -2.7134160   -3.6749400 
H     1.6658882    1.9814316   -2.5394036 
H     0.0206259    3.6055797   -0.4978297 
H     2.6662146    4.1999839   -3.0467097 
H     2.2768572    4.7767262   -1.3916964 
H    -0.0170528    5.2898713   -2.3304981 
H     0.1947610    3.9929395   -3.5536459 
H     2.2311825    2.7763435    0.3918116 
H     3.4934586    2.2092608   -0.7281788 
H    -0.7717066    1.5376887   -2.6436999 
H    -1.9165803    2.7766370   -2.1098359 
H     0.7705716   -0.2951243   -2.3743019 
H     5.0885197    0.6143378    0.2617287 
H    -3.4582051    3.4468571   -0.6073354 
H    -4.5854207    1.2932287   -0.3412198 
H     4.6143999   -1.2444282   -0.6196274 
H     1.6698677    0.1002357    2.8709552 
H    -1.1270123    1.4545786    2.4522081 
H    -1.4465437   -1.1105162   -2.1167419 
H     3.5753089   -2.7783171   -4.5098209 
H     5.6599672    0.2117135    4.5134544 
H    -3.6617452    4.7975636    3.4820159 
H    -5.5716659   -1.8056596   -3.1780526 
H     0.1544309   -1.1034296   -4.5297709 
H     0.7509998   -2.7650831   -4.7979814 
H     1.4930996   -1.4083970   -5.6726299 
H     7.5904494   -0.1498656    2.7848066 
H     7.3263592    0.4632126    1.1257577 
H     7.3538256    1.5902065    2.5077539 
H    -4.2078116    6.3299943    1.1999857 
H    -4.8833968    5.2849663   -0.0811236 
H    -5.5772102    5.2581172    1.5652912 
H    -7.0105644    0.8740210   -2.3740446 
H    -6.9188127    0.5631025   -0.6211289 
H    -7.3422085   -0.7592526   -1.7484830 
H     5.5164722   -3.7262918   -3.1684076 
H     6.0269156   -2.9034959   -1.6652660 
H     6.3107310   -2.1360501   -3.2505775 
H     3.2629412    0.8972444    5.8623828 
H     3.4765931   -0.8646284    5.7759343 
H     1.9406400   -0.1275014    5.2379246 
H    -2.0363660    3.9212527    5.1366317 
H    -0.9068577    2.6100631    4.6853400 
H    -2.5946453    2.2312769    5.1100267 
H    -3.3201490   -2.5061592   -4.7231941 
H    -3.5351853   -3.6578428   -3.3877437 
H    -1.9480595   -2.8755415   -3.6425841 
