115
Energy =
C    -1.4668050   -2.4786617    1.2896067 
C    -0.4675959   -3.2277676    0.6350695 
C     0.9150130   -2.9910765    0.9478452 
H    -0.7339479   -3.8899137   -0.1985759 
Pd    0.0512449   -1.1523675    0.1191012 
P     2.0562113    0.0328361    0.0161382 
P    -1.3035277    0.3595734   -1.0595719 
H    -1.1531420   -1.9430799    2.2000310 
H     1.1558016   -2.7225025    1.9858002 
C    -5.7381232   -2.6791587    0.9301043 
C    -4.9372743   -3.4415403    0.0642643 
C    -3.5439108   -3.3847395    0.1531249 
C    -2.9187342   -2.5646359    1.1203799 
C    -3.7405735   -1.8084302    1.9917239 
C    -5.1344835   -1.8599379    1.8964967 
H    -6.8291044   -2.7296148    0.8545705 
H    -5.4054072   -4.0840874   -0.6879366 
H    -2.9380212   -3.9871266   -0.5297398 
H    -3.2701971   -1.1880356    2.7634916 
H    -5.7513505   -1.2702751    2.5825181 
C     4.2223348   -4.6094086   -1.2897259 
C     3.0097929   -4.3239285   -1.9419727 
C     1.9263219   -3.8127907   -1.2204075 
C     2.0305620   -3.5717327    0.1717462 
C     3.2573213   -3.8553058    0.8103986 
C     4.3392982   -4.3741715    0.0877111 
H     5.0689098   -5.0125188   -1.8551211 
H     2.9119200   -4.5005106   -3.0184482 
H     0.9935171   -3.5711533   -1.7441561 
H     3.3637126   -3.6547804    1.8817593 
H     5.2796725   -4.5906285    0.6050881 
C     0.8163017    1.2858291   -2.8857971 
C     1.8548221    0.1148670   -2.8204718 
C     1.2483061    1.5520849   -4.3628981 
C     2.4482274    0.5870020   -4.1817042 
C    -0.6578964    0.9202430   -2.7216809 
C     2.8435321    0.0065182   -1.6541920 
C    -1.7751319    1.8726592   -0.1508254 
C    -2.8740469   -0.4211084   -1.6248713 
C     3.3647173   -0.5480445    1.1764007 
C     1.8282243    1.7879978    0.5251303 
C    -1.4067308    3.1598017   -0.5739267 
C    -4.1474348    0.1033093   -1.3640895 
C     4.6714880   -0.8429016    0.7610397 
C     1.0305529    2.0229364    1.6615226 
C    -2.4896252    1.7106884    1.0547967 
C    -2.7452205   -1.5869951   -2.4122474 
C     3.0135414   -0.7141967    2.5333434 
C     2.4666808    2.8699779   -0.1088544 
C    -1.7582079    4.2922476    0.1868984 
C    -5.2979629   -0.5125068   -1.9004751 
C     5.6332406   -1.3105522    1.6824180 
C     0.8979405    3.3147389    2.1990607 
C    -2.8829089    2.8239076    1.8131765 
C    -3.8704498   -2.2021952   -2.9795564 
C     3.9503963   -1.1679974    3.4728475 
C     2.3040632    4.1822502    0.3731876 
C    -2.5060807    4.1052159    1.3616074 
C    -5.1380097   -1.6441583   -2.7160084 
C     5.2556711   -1.4666962    3.0243529 
C     1.5286962    4.3800230    1.5312415 
C    -1.3550990    5.6779097   -0.2653031 
C    -6.6681150    0.0379991   -1.5776249 
C     7.0296974   -1.6466504    1.2088017 
C     0.1305962    3.5466269    3.4805291 
C    -3.6844511    2.6603638    3.0855434 
C    -3.7412421   -3.4650780   -3.8007987 
C     3.5827866   -1.3362390    4.9303359 
C     2.9516105    5.3568984   -0.3268831 
H     1.0946730    2.1218603   -2.2225967 
H     1.3271774   -0.8525298   -2.9206935 
H     1.4873702    2.5974613   -4.6184654 
H     0.5026861    1.1821857   -5.0877678 
H     2.5876893   -0.1884258   -4.9528972 
H     3.4068505    1.1186355   -4.0513712 
H    -0.8900115    0.0732943   -3.3920631 
H    -1.3138020    1.7509485   -3.0434011 
H     3.6143390    0.7970365   -1.7018263 
H     3.3668594   -0.9645849   -1.7141791 
H    -0.8236444    3.3029851   -1.4886676 
H    -4.2569586    1.0064201   -0.7552246 
H     4.9679334   -0.7309994   -0.2860687 
H     0.4984823    1.1888060    2.1345667 
H    -2.7564332    0.7030043    1.3927667 
H    -1.7502547   -2.0184998   -2.5889669 
H     1.9926388   -0.4894002    2.8637074 
H     3.1039661    2.7082115   -0.9846915 
H    -2.7919227    4.9824848    1.9550100 
H    -6.0276195   -2.1178039   -3.1485961 
H     5.9952292   -1.8334760    3.7464106 
H     1.4127997    5.3972759    1.9248824 
H    -2.1710688    6.1581659   -0.8372934 
H    -0.4656969    5.6430713   -0.9160911 
H    -1.1285672    6.3298523    0.5951608 
H    -6.7014274    1.1341786   -1.7043378 
H    -7.4479861   -0.4089957   -2.2152302 
H    -6.9264980   -0.1771532   -0.5235295 
H     7.6616755   -2.0115630    2.0343864 
H     7.0000598   -2.4270833    0.4266821 
H     7.5221130   -0.7617348    0.7667419 
H     0.8277979    3.6202410    4.3363306 
H    -0.5691951    2.7204277    3.6851057 
H    -0.4458179    4.4858849    3.4418788 
H    -3.1969645    3.1747573    3.9330045 
H    -3.8080562    1.5976237    3.3524476 
H    -4.6919141    3.1015155    2.9759420 
H    -4.0647958   -4.3459765   -3.2132868 
H    -2.7002661   -3.6399107   -4.1197254 
H    -4.3773709   -3.4266942   -4.7017864 
H     4.1460416   -0.6244278    5.5610580 
H     3.8290862   -2.3515131    5.2889830 
H     2.5075049   -1.1621381    5.1007700 
H     2.1860643    6.0462725   -0.7283436 
H     3.5881113    5.0307080   -1.1656534 
H     3.5772080    5.9402964    0.3715800 
