115
Energy =
C    -1.5217553   -1.5975634    1.9848119 
C    -0.4081209   -2.3917005    1.6099681 
C     0.9092134   -2.0255090    1.9992621 
H    -0.5437776   -3.2245230    0.9085802 
Pd   -0.0289220   -0.4066402    0.7444058 
P    -1.6449229    0.9598163   -0.2763765 
P     1.9898297    0.5325844   -0.0039710 
H    -1.3882892   -0.9552534    2.8678914 
H     1.0137250   -1.4265423    2.9168058 
C    -5.6500291   -2.4829001    1.1951206 
C    -4.6493781   -3.1342050    0.4547290 
C    -3.3021520   -2.8343076    0.6724101 
C    -2.9247708   -1.8817327    1.6474980 
C    -3.9441346   -1.2092026    2.3602402 
C    -5.2934492   -1.5087258    2.1386683 
H    -6.7038370   -2.7268022    1.0271021 
H    -4.9230424   -3.8784382   -0.2995792 
H    -2.5386749   -3.3462733    0.0786877 
H    -3.6687188   -0.4540563    3.1046085 
H    -6.0675705   -0.9871804    2.7110681 
C     4.4229525   -4.2843162    0.9664311 
C     3.3771912   -4.1620688    0.0360938 
C     2.2324104   -3.4269521    0.3584693 
C     2.1121302   -2.7902026    1.6145223 
C     3.1765659   -2.9088278    2.5332340 
C     4.3171646   -3.6555289    2.2153467 
H     5.3173786   -4.8639824    0.7155289 
H     3.4566645   -4.6401650   -0.9458803 
H     1.4300629   -3.3281275   -0.3796480 
H     3.1065912   -2.4079397    3.5043077 
H     5.1317620   -3.7359911    2.9422271 
C     1.3512177    3.0291207   -1.2600163 
C    -0.1830388    3.2354505   -1.1387288 
C     1.4760820    4.5563487   -1.5272355 
C    -0.0098145    4.5376660   -1.9716806 
C     2.1487632    2.3945674   -0.1277822 
C    -1.1402947    2.1475373   -1.6231498 
C     3.4320443    0.1605230    1.0731404 
C     2.4205699   -0.0624078   -1.6834351 
C    -2.5026856    2.0553539    0.9210105 
C    -2.9262784   -0.0276648   -1.1490288 
C     3.3574927    0.5899954    2.4158633 
C     3.5077034    0.4708206   -2.4051253 
C    -2.1306922    2.0065531    2.2767849 
C    -2.4721356   -0.9266311   -2.1342685 
C     4.5787400   -0.5021024    0.6136703 
C     1.6359606   -1.0767020   -2.2597980 
C    -3.4873043    2.9752181    0.5060805 
C    -4.3041492    0.0958570   -0.8981488 
C     4.4327402    0.3880649    3.2946314 
C     3.8186908   -0.0075548   -3.6905999 
C    -2.7448453    2.8391281    3.2304377 
C    -3.3827839   -1.6883614   -2.8894135 
C     5.6742828   -0.7158229    1.4767384 
C     1.9259708   -1.5803777   -3.5408506 
C    -4.1208239    3.8191668    1.4357328 
C    -5.2350177   -0.6462820   -1.6467192 
C     5.5846628   -0.2612716    2.8016442 
C     3.0193251   -1.0325241   -4.2357935 
C    -3.7393540    3.7308669    2.7892943 
C    -4.7564724   -1.5274799   -2.6347316 
C     4.3662966    0.8417221    4.7362196 
C     4.9805885    0.5592218   -4.4762370 
C    -2.3498847    2.7806799    4.6898647 
C    -2.8878092   -2.6682164   -3.9310595 
C     6.9112038   -1.4200827    0.9669930 
C     1.0841208   -2.6755995   -4.1576947 
C    -5.1906089    4.7968683    1.0016608 
C    -6.7189912   -0.4838264   -1.4071990 
H     1.5602991    2.4938569   -2.2056635 
H    -0.4291199    3.5226325   -0.0978031 
H     2.2384075    4.8871206   -2.2519859 
H     1.6086179    5.1180207   -0.5853936 
H    -0.6489299    5.3972280   -1.7099924 
H    -0.1048925    4.3352028   -3.0533915 
H     1.8495384    2.8059055    0.8533162 
H     3.2280258    2.6031250   -0.2477495 
H    -0.6977391    1.5523947   -2.4423610 
H    -2.0766060    2.5868283   -2.0134752 
H     2.4489579    1.0847208    2.7839323 
H     4.1294110    1.2596668   -1.9665219 
H    -1.3400500    1.3141104    2.5897700 
H    -1.3963569   -1.0347530   -2.3204143 
H     4.6248980   -0.8760653   -0.4138544 
H     0.7887954   -1.4789087   -1.6898675 
H    -3.7758529    3.0388406   -0.5491464 
H    -4.6627033    0.7607893   -0.1073854 
H     6.4303072   -0.4290308    3.4798190 
H     3.2592765   -1.4150390   -5.2356831 
H    -4.2282489    4.3860871    3.5210397 
H    -5.4765740   -2.1145440   -3.2176756 
H     4.5009644   -0.0110697    5.4262654 
H     3.4004107    1.3201740    4.9679744 
H     5.1688589    1.5674876    4.9597450 
H     5.6786500   -0.2400570   -4.7826488 
H     4.6272459    1.0529748   -5.3997525 
H     5.5449379    1.3010107   -3.8881466 
H    -3.2132074    2.5061370    5.3225925 
H    -1.5510947    2.0406693    4.8639368 
H    -1.9890295    3.7631061    5.0434468 
H    -3.7151567   -3.0563102   -4.5467558 
H    -2.3900492   -3.5331219   -3.4535868 
H    -2.1496653   -2.1983464   -4.6041281 
H     7.4996570   -0.7527907    0.3100074 
H     6.6396723   -2.3105042    0.3739292 
H     7.5661828   -1.7398085    1.7938526 
H     0.3611819   -3.0860566   -3.4336438 
H     1.7147203   -3.5054469   -4.5221014 
H     0.5143594   -2.2959092   -5.0256482 
H    -6.1609080    4.5512549    1.4703648 
H    -5.3290699    4.7885166   -0.0917607 
H    -4.9340016    5.8265071    1.3081971 
H    -7.2526118   -1.4423859   -1.5227242 
H    -7.1555008    0.2247199   -2.1362724 
H    -6.9215762   -0.0935053   -0.3962894 
