115
Energy =
C    -1.1983576   -0.1230296    2.8404784 
C    -0.4038303   -1.2926642    2.8912361 
C     1.0220759   -1.2054588    2.8225262 
H    -0.8815144   -2.2788093    2.8301509 
Pd    0.1376047   -0.3654757    0.9833466 
P    -1.3575635    0.3796298   -0.6836686 
P     2.0372672   -0.5837337   -0.3697389 
H    -0.6975262    0.8184416    3.1151427 
H     1.4944992   -0.3063720    3.2457308 
C    -5.4863010    0.1645389    2.9335670 
C    -4.8794186   -1.0945569    2.7961883 
C    -3.4873228   -1.2074562    2.7515495 
C    -2.6666413   -0.0601185    2.8528028 
C    -3.2934024    1.2008582    2.9890135 
C    -4.6872848    1.3136969    3.0257507 
H    -6.5773911    0.2467299    2.9708218 
H    -5.4974351   -1.9946335    2.7210549 
H    -3.0366297   -2.1979931    2.6409329 
H    -2.6757200    2.1006413    3.0776275 
H    -5.1506344    2.2995149    3.1365527 
C     3.6146354   -4.6362914    2.5684874 
C     2.3692907   -4.6523691    1.9173179 
C     1.5195881   -3.5439339    1.9986426 
C     1.8972604   -2.3942901    2.7318802 
C     3.1547125   -2.3889005    3.3708723 
C     4.0027449   -3.5006774    3.2935819 
H     4.2785387   -5.5048615    2.5068079 
H     2.0619733   -5.5329322    1.3430384 
H     0.5596891   -3.5555033    1.4674603 
H     3.4703277   -1.5012287    3.9284741 
H     4.9756281   -3.4746217    3.7946527 
C     0.3951562   -2.2084641   -1.9154909 
C    -0.2142553   -1.1726285   -2.9107138 
C    -0.0321619   -3.3253699   -2.9038579 
C    -1.0772623   -2.3336372   -3.4792523 
C     1.8372853   -2.0938891   -1.4252885 
C    -0.8619388    0.1571401   -2.4753378 
C     2.2539797    0.8395805   -1.5119936 
C     3.6635710   -0.7290063    0.4624188 
C    -1.7519442    2.1722143   -0.6031458 
C    -2.9760009   -0.4919147   -0.5397845 
C     1.7542552    2.0902763   -1.1096006 
C     4.0185707    0.3000917    1.3605121 
C    -2.3983855    2.8503418   -1.6569534 
C    -4.2038385    0.1850137   -0.5950130 
C     2.8865074    0.7088197   -2.7635716 
C     4.5384549   -1.8030268    0.2480548 
C    -1.4117731    2.8788798    0.5633609 
C    -2.9660093   -1.8947447   -0.3837803 
C     1.8469587    3.2130880   -1.9548846 
C     5.2444179    0.2678339    2.0398433 
C    -2.7221834    4.2149412   -1.5429930 
C    -5.4205345   -0.5266061   -0.5434866 
C     2.9942975    1.8117912   -3.6282285 
C     5.7764635   -1.8625203    0.9230673 
C    -1.7319310    4.2406553    0.7122627 
C    -4.1605226   -2.6293970   -0.3453636 
C     2.4609127    3.0485129   -3.2084630 
C     6.1082466   -0.8245008    1.8066545 
C    -2.3894529    4.8869722   -0.3494628 
C    -5.3784414   -1.9263158   -0.4394010 
C     1.2499014    4.5366164   -1.5353607 
C     5.6394495    1.3652720    3.0027382 
C    -3.4011751    4.9538167   -2.6749480 
C    -6.7324768    0.2231742   -0.5883593 
C     3.6850522    1.6882858   -4.9680990 
C     6.7013808   -3.0375339    0.7005913 
C    -1.3962148    4.9784142    1.9891720 
C    -4.1454533   -4.1292988   -0.1526315 
H    -0.2565416   -2.2636597   -1.0225150 
H     0.5651618   -0.9258390   -3.6558424 
H    -0.3905224   -4.2755155   -2.4728579 
H     0.7670965   -3.5438671   -3.6343496 
H    -1.2612120   -2.3410677   -4.5664467 
H    -2.0429456   -2.4120599   -2.9508213 
H     2.5607775   -2.0872869   -2.2597489 
H     2.0810946   -2.9525735   -0.7735457 
H    -1.7681413    0.3347879   -3.0817465 
H    -0.1726147    0.9988433   -2.6589334 
H     1.2587449    2.1875715   -0.1362397 
H     3.3291021    1.1371382    1.5286564 
H    -2.6643655    2.3208139   -2.5777233 
H    -4.2276899    1.2764472   -0.6717660 
H     3.3023960   -0.2542562   -3.0786697 
H     4.2725218   -2.6169000   -0.4336174 
H    -0.8781029    2.3569408    1.3654329 
H    -2.0129006   -2.4256489   -0.2783046 
H     2.5313653    3.9111975   -3.8821895 
H     7.0671803   -0.8656608    2.3374438 
H    -2.6395192    5.9505833   -0.2523147 
H    -6.3208423   -2.4863658   -0.4071586 
H     1.6195279    5.3652125   -2.1609718 
H     1.4816898    4.7647222   -0.4808825 
H     0.1482789    4.5046649   -1.6229686 
H     5.8587828    0.9541490    4.0047212 
H     6.5536469    1.8814718    2.6579858 
H     4.8425277    2.1197790    3.1078824 
H    -4.3150026    5.4648829   -2.3237276 
H    -2.7343830    5.7309956   -3.0911600 
H    -3.6809381    4.2725323   -3.4948028 
H    -6.8174308    0.8225209   -1.5126304 
H    -6.8051198    0.9244231    0.2629169 
H    -7.5947249   -0.4615187   -0.5435084 
H     3.8085546    0.6341447   -5.2662385 
H     4.6908759    2.1464820   -4.9296579 
H     3.1198963    2.2097814   -5.7598226 
H     7.6244428   -2.9463164    1.2954709 
H     6.9866349   -3.1230589   -0.3634119 
H     6.2019895   -3.9824816    0.9823068 
H    -2.2714687    5.0036883    2.6658199 
H    -1.1083428    6.0242318    1.7892445 
H    -0.5704674    4.4892764    2.5329866 
H    -3.1492166   -4.5552965   -0.3592039 
H    -4.8774942   -4.6274382   -0.8111861 
H    -4.4140705   -4.3914895    0.8886042 
