115
Energy =
C    -1.4762430   -0.8606463    2.6645051 
C    -0.5330959   -1.8575403    2.3347041 
C     0.8718574   -1.6354147    2.4858909 
H    -0.8668751   -2.7727149    1.8273929 
Pd    0.0479632   -0.1477510    1.0708395 
P     2.0906749    0.4969650    0.1279107 
P    -1.4559706    1.0315735   -0.3082394 
H    -1.1379535   -0.0593438    3.3397830 
H     1.1990304   -0.9821234    3.3087146 
C    -5.7589972   -1.0813319    2.3602938 
C    -5.1404579   -0.0915529    3.1377872 
C    -3.7453458   -0.0343492    3.2185687 
C    -2.9365885   -0.9680796    2.5311728 
C    -3.5763618   -1.9714538    1.7655604 
C    -4.9699539   -2.0217487    1.6761984 
H    -6.8509694   -1.1273589    2.2926947 
H    -5.7449963    0.6438565    3.6776583 
H    -3.2682249    0.7464051    3.8191685 
H    -2.9844576   -2.7232962    1.2365086 
H    -5.4458553   -2.8030675    1.0744214 
C     3.7109633   -4.6213800    1.2321153 
C     2.6279886   -4.2923510    0.3998842 
C     1.7099184   -3.3148070    0.7973068 
C     1.8558685   -2.6451688    2.0345320 
C     2.9590795   -2.9701100    2.8498143 
C     3.8746087   -3.9537348    2.4543168 
H     4.4304746   -5.3861878    0.9222708 
H     2.5046418   -4.7945617   -0.5654730 
H     0.8848458   -3.0393382    0.1291259 
H     3.0963036   -2.4484415    3.8026797 
H     4.7247107   -4.1933032    3.1012155 
C     0.0996041    3.3703861   -0.7901031 
C     1.6334402    3.1374472   -0.8989998 
C     0.3308353    4.7631251   -1.4430673 
C     1.8048845    4.6813481   -0.9684856 
C    -0.8639235    2.3835414   -1.4516351 
C     2.4011593    2.3474937    0.1547922 
C    -2.7677692    1.8912589    0.6506744 
C    -2.3022727   -0.1382228   -1.4464273 
C     2.2606147    0.0429660   -1.6385397 
C     3.6012374   -0.1315473    0.9596781 
C    -2.3592309    2.6609447    1.7615097 
C    -3.0554290    0.2976963   -2.5559343 
C     3.3678471    0.4788892   -2.3995860 
C     3.8914795    0.3422463    2.2564121 
C    -4.1263191    1.8299089    0.3079242 
C    -2.1622527   -1.5162210   -1.2095806 
C     1.2418394   -0.6990070   -2.2531896 
C     4.4482722   -1.0728566    0.3539458 
C    -3.2904641    3.4038900    2.5043563 
C    -3.6808528   -0.6307298   -3.4087499 
C     3.4514422    0.1834481   -3.7692119 
C     5.0392716   -0.0919510    2.9388712 
C    -5.0851670    2.5508923    1.0494277 
C    -2.7782720   -2.4691866   -2.0398355 
C     1.2926420   -1.0015403   -3.6296532 
C     5.6068802   -1.5234142    1.0176746 
C    -4.6482027    3.3375142    2.1277584 
C    -3.5343519   -2.0052935   -3.1304714 
C     2.4008117   -0.5510362   -4.3639702 
C     5.8870452   -1.0180758    2.2980087 
C    -2.8600819    4.2448424    3.6857234 
C    -4.4966791   -0.1726855   -4.5974490 
C     4.6326508    0.6360529   -4.5984553 
C     5.3577101    0.4023646    4.3327409 
C    -6.5511881    2.4389983    0.6976976 
C    -2.6408419   -3.9465123   -1.7468827 
C     0.1670805   -1.7794119   -4.2743699 
C     6.5300516   -2.5184047    0.3515562 
H    -0.1716555    3.5283367    0.2706838 
H     1.8493012    2.7184747   -1.8995925 
H    -0.2917692    5.6008925   -1.0879781 
H     0.2577978    4.7029179   -2.5435143 
H     2.5933311    5.0781404   -1.6292366 
H     1.9292406    5.1165640    0.0392159 
H    -0.3908048    1.8936207   -2.3220909 
H    -1.7678902    2.9110129   -1.8063939 
H     2.1533208    2.7009736    1.1720815 
H     3.4897380    2.4844903    0.0186162 
H    -1.3037490    2.6653076    2.0628995 
H    -3.1628094    1.3664978   -2.7694622 
H     4.1733078    1.0501029   -1.9235161 
H     3.2181106    1.0561912    2.7472102 
H    -4.4564539    1.2010637   -0.5251124 
H    -1.5391698   -1.8465375   -0.3699040 
H     0.3870083   -1.0363691   -1.6582001 
H     4.2084473   -1.4700576   -0.6372552 
H    -5.3882016    3.9035866    2.7066765 
H    -4.0138675   -2.7345405   -3.7949020 
H     2.4539698   -0.7754627   -5.4364174 
H     6.7844541   -1.3675927    2.8231506 
H    -3.4372021    3.9851294    4.5912482 
H    -3.0340648    5.3184989    3.4890281 
H    -1.7889017    4.1111947    3.9104015 
H    -5.5617553   -0.4383981   -4.4679101 
H    -4.4335370    0.9186851   -4.7373836 
H    -4.1517563   -0.6597897   -5.5266564 
H     5.3349296    1.2451232   -4.0064458 
H     5.1871284   -0.2322313   -4.9986111 
H     4.3017457    1.2360584   -5.4649859 
H     4.6231297    1.1483939    4.6780637 
H     6.3597487    0.8656996    4.3704913 
H     5.3610104   -0.4336818    5.0561046 
H    -6.7222559    2.6434869   -0.3739463 
H    -7.1660554    3.1397953    1.2851989 
H    -6.9155801    1.4139013    0.8961183 
H    -1.7064758   -4.1635079   -1.2011786 
H    -2.6504596   -4.5475041   -2.6714871 
H    -3.4808449   -4.2981773   -1.1179028 
H     0.0807026   -2.7883888   -3.8316397 
H     0.3217582   -1.8940724   -5.3593265 
H    -0.8023719   -1.2759672   -4.1098298 
H     5.9761645   -3.1741930   -0.3406176 
H     7.0426640   -3.1521728    1.0944167 
H     7.3105385   -1.9962965   -0.2335847 
