115
Energy =
C    -1.2075810   -1.2305174    2.6372618 
C    -0.5195428   -2.3953788    2.2397178 
C     0.9067680   -2.3542298    2.0714248 
H    -1.0800177   -3.2884811    1.9350950 
Pd   -0.0152974   -0.9567995    0.6521776 
P     1.9522379   -0.4318222   -0.4821873 
P    -1.5326810    0.1271637   -0.7742641 
H    -0.5891570   -0.4233420    3.0614772 
H     1.4727250   -1.6988072    2.7479743 
C    -5.3861884   -0.6358254    3.4124742 
C    -4.4523498    0.3758118    3.6840282 
C    -3.0967543    0.1603490    3.4181006 
C    -2.6439666   -1.0639522    2.8681339 
C    -3.5987852   -2.0717927    2.6003108 
C    -4.9522960   -1.8581737    2.8740284 
H    -6.4483513   -0.4764079    3.6242388 
H    -4.7803595    1.3281049    4.1133762 
H    -2.3649990    0.9414976    3.6548072 
H    -3.2816237   -3.0310499    2.1811671 
H    -5.6780844   -2.6500268    2.6640531 
C     3.2321408   -5.5167573    0.2956180 
C     1.9112966   -5.2950652   -0.1326624 
C     1.1446831   -4.2796174    0.4479614 
C     1.6822264   -3.4592034    1.4700016 
C     3.0126940   -3.6883631    1.8825045 
C     3.7769389   -4.7103658    1.3051312 
H     3.8304082   -6.3139587   -0.1576386 
H     1.4801642   -5.9176547   -0.9239202 
H     0.1240354   -4.0996084    0.0890053 
H     3.4526103   -3.0494306    2.6554975 
H     4.8054475   -4.8723225    1.6439104 
C    -0.0129566   -0.3550525   -3.2520369 
C     0.8933965   -1.5730643   -2.8658327 
C    -0.0374613   -0.8744028   -4.7247082 
C     1.0795963   -1.8925241   -4.3794303 
C    -1.3891502   -0.2741475   -2.5938002 
C     2.1786847   -1.3732622   -2.0547500 
C    -1.5680333    1.9495618   -0.6467304 
C    -3.2628850   -0.4450650   -0.5027496 
C     3.5033756   -0.7102285    0.4733885 
C     2.0454085    1.3675756   -0.8642086 
C    -1.8658985    2.5048159    0.6170161 
C    -3.4911467   -1.8337953   -0.6259169 
C     3.5867870   -0.1530064    1.7676127 
C     1.6611741    2.2568042    0.1585092 
C    -1.2691732    2.7950103   -1.7251799 
C    -4.3380638    0.4148524   -0.2400283 
C     4.5796696   -1.4582330   -0.0256995 
C     2.5452381    1.8795618   -2.0751692 
C    -1.9169077    3.8940933    0.7976881 
C    -4.7871806   -2.3619919   -0.5387287 
C     4.7292348   -0.3322467    2.5606865 
C     1.8105322    3.6453683    0.0053007 
C    -1.2792706    4.1961549   -1.5622474 
C    -5.6483499   -0.0946450   -0.1204527 
C     5.7387309   -1.6636439    0.7536443 
C     2.6535526    3.2688196   -2.2775307 
C    -1.6186432    4.7218852   -0.3059217 
C    -5.8532078   -1.4729995   -0.2917523 
C     5.7938444   -1.0971057    2.0356837 
C     2.2916165    4.1300104   -1.2251731 
C    -2.2773742    4.4981248    2.1366394 
C    -5.0347179   -3.8498100   -0.6439330 
C     4.8283568    0.2731018    3.9432078 
C     1.4976807    4.5902045    1.1427636 
C    -0.9414743    5.0967159   -2.7290872 
C    -6.7932166    0.8376940    0.2032371 
C     6.8782519   -2.4931954    0.2053972 
C     3.1860940    3.8239485   -3.5807053 
H     0.5252489    0.6036897   -3.1669736 
H     0.2792565   -2.3431099   -2.3615205 
H     0.1921807   -0.1319780   -5.5066710 
H    -0.9968806   -1.3571571   -4.9792627 
H     0.9162593   -2.9388666   -4.6858392 
H     2.0714374   -1.5770834   -4.7474590 
H    -1.8850351   -1.2571389   -2.6857992 
H    -2.0428059    0.4457309   -3.1213932 
H     2.9656418   -0.8831387   -2.6564199 
H     2.5688429   -2.3605253   -1.7490950 
H    -2.0801976    1.8395270    1.4609362 
H    -2.6445242   -2.5130020   -0.7967060 
H     2.7475919    0.4290221    2.1661699 
H     1.2303937    1.8639616    1.0873817 
H    -1.0078537    2.3826530   -2.7045848 
H    -4.1704210    1.4922650   -0.1423082 
H     4.5377457   -1.9095709   -1.0212663 
H     2.8609728    1.2062007   -2.8791470 
H    -1.6399624    5.8106574   -0.1742589 
H    -6.8717328   -1.8725758   -0.2151461 
H     6.6888721   -1.2546911    2.6496067 
H     2.3853325    5.2133203   -1.3694826 
H    -3.2322731    5.0512647    2.0748589 
H    -1.5082570    5.2178171    2.4696614 
H    -2.3846773    3.7239927    2.9145730 
H    -5.9123045   -4.0683391   -1.2763665 
H    -4.1644129   -4.3797453   -1.0654212 
H    -5.2397317   -4.2818676    0.3546485 
H     5.0752760   -0.4948093    4.6979158 
H     5.6293031    1.0337817    3.9812857 
H     3.8850935    0.7592653    4.2424078 
H     2.4301937    4.8967972    1.6529262 
H     0.8434666    4.1152568    1.8913830 
H     1.0016557    5.5064309    0.7818024 
H    -1.7438908    5.0754480   -3.4893911 
H    -0.0113812    4.7649860   -3.2228634 
H    -0.8084985    6.1427167   -2.4084886 
H    -6.7144195    1.1895576    1.2491733 
H    -7.7697677    0.3406610    0.0856967 
H    -6.7786524    1.7321717   -0.4438539 
H     6.5306273   -3.5081174   -0.0604545 
H     7.6974822   -2.5907440    0.9358224 
H     7.2921058   -2.0397457   -0.7134135 
H     4.2454311    4.1232799   -3.4741308 
H     2.6250381    4.7216398   -3.8934482 
H     3.1297751    3.0802545   -4.3928912 
