115
Energy =
C    -1.4471424   -0.7017362    2.8413694 
C    -0.4497712   -1.6514504    2.5121976 
C     0.9352859   -1.4138708    2.6944430 
H    -0.7520175   -2.5703288    1.9942882 
Pd    0.0175255    0.1288303    1.2860277 
P     1.9551599    0.5150956    0.0014951 
P    -1.4641950    1.5338964    0.1054864 
H    -1.1982795    0.0644068    3.5908237 
H     1.2340319   -0.6745603    3.4527069 
C    -5.6663419   -1.4542137    2.4144656 
C    -4.7492702   -2.1715666    1.6283722 
C    -3.3773551   -1.9319149    1.7524051 
C    -2.8869387   -0.9624440    2.6596796 
C    -3.8224831   -0.2570035    3.4473923 
C    -5.1956526   -0.4994662    3.3268984 
H    -6.7403101   -1.6446433    2.3199363 
H    -5.1067134   -2.9247454    0.9181127 
H    -2.6784397   -2.5051716    1.1340416 
H    -3.4635817    0.4845492    4.1675339 
H    -5.9006251    0.0616546    3.9481599 
C     3.8973089   -4.4229769    1.8593228 
C     2.7282672   -4.3647780    1.0828717 
C     1.7693920   -3.3781438    1.3293275 
C     1.9560606   -2.4245338    2.3572735 
C     3.1435815   -2.4864870    3.1177610 
C     4.1015547   -3.4777654    2.8743362 
H     4.6477948   -5.1966305    1.6677795 
H     2.5645640   -5.0924386    0.2809287 
H     0.8682169   -3.3443492    0.7090356 
H     3.3088567   -1.7544942    3.9149156 
H     5.0133218   -3.5092215    3.4791175 
C     0.4064975    3.7776436   -0.1483465 
C     1.5769243    3.2155256   -1.0105121 
C     0.7336240    5.2032481   -0.6874787 
C     2.0983301    4.6736350   -1.1958249 
C    -1.0207866    3.2966309   -0.3689732 
C     2.5480942    2.2451135   -0.3541812 
C    -3.0934074    1.8644782    0.9000085 
C    -1.7974177    0.6517404   -1.4698759 
C     1.7498259   -0.2912350   -1.6325125 
C     3.5361493   -0.1559332    0.6649727 
C    -3.0467224    2.5627025    2.1274624 
C    -2.5231422   -0.5556891   -1.4082820 
C     0.9540742   -1.4500951   -1.6913080 
C     4.0564333    0.4159776    1.8455315 
C    -4.3313847    1.5609537    0.3196997 
C    -1.2609791    1.0715946   -2.6994849 
C     2.3989460    0.1658930   -2.7947645 
C     4.2505711   -1.1648053    0.0035040 
C    -4.2238504    2.9852536    2.7611286 
C    -2.7588893   -1.3172149   -2.5648739 
C     0.8252884   -2.1812165   -2.8832355 
C     5.3078356    0.0208748    2.3429717 
C    -5.5322689    1.9495536    0.9524536 
C    -1.4573450    0.3133506   -3.8692348 
C     2.2603012   -0.5271826   -4.0121130 
C     5.5038202   -1.5895566    0.4912624 
C    -5.4578293    2.6675680    2.1552863 
C    -2.2141008   -0.8685293   -3.7832349 
C     1.4791371   -1.6979370   -4.0319552 
C     6.0186601   -0.9768934    1.6448943 
C    -4.1849043    3.7318660    4.0756484 
C    -3.5981197   -2.5746110   -2.5015818 
C     0.0263538   -3.4635399   -2.9207579 
C     5.8753227    0.6228881    3.6092550 
C    -6.8611404    1.5737052    0.3382764 
C    -0.8857130    0.7782761   -5.1895449 
C     2.9564831   -0.0411963   -5.2643952 
C     6.2701900   -2.6727632   -0.2331128 
H     0.6649990    3.6963623    0.9248961 
H     1.2046666    2.8066249   -1.9678225 
H     0.7457322    6.0259158    0.0462706 
H     0.0604020    5.4856665   -1.5159861 
H     2.4120767    4.9662109   -2.2113988 
H     2.9225879    4.8997987   -0.4971012 
H    -1.3231230    3.4271450   -1.4236847 
H    -1.7075849    3.9231147    0.2251668 
H     2.8681677    2.6442647    0.6253923 
H     3.4707093    2.1374779   -0.9544490 
H    -2.0769291    2.7829549    2.5938202 
H    -2.9226394   -0.8974884   -0.4486121 
H     0.4154347   -1.7741789   -0.7939759 
H     3.4816713    1.1760470    2.3905019 
H    -4.3800011    1.0328877   -0.6375104 
H    -0.6650556    1.9869120   -2.7660779 
H     3.0244943    1.0641836   -2.7676261 
H     3.8377029   -1.6277591   -0.8985429 
H    -6.3872840    2.9807304    2.6461236 
H    -2.3735399   -1.4646475   -4.6899530 
H     1.3685958   -2.2452691   -4.9761569 
H     6.9939518   -1.3007355    2.0283247 
H    -4.7343624    3.1791005    4.8596714 
H    -4.6650195    4.7226934    3.9835602 
H    -3.1510633    3.8850628    4.4264976 
H    -3.5662822   -3.0321710   -1.4982429 
H    -4.6571494   -2.3469284   -2.7259978 
H    -3.2612625   -3.3243980   -3.2368637 
H     0.6953067   -4.3399111   -2.8276096 
H    -0.7012370   -3.5065695   -2.0938431 
H    -0.5237003   -3.5696989   -3.8709278 
H     6.0371325   -0.1554525    4.3775700 
H     5.2031198    1.3865916    4.0340270 
H     6.8548188    1.0972271    3.4192971 
H    -6.9109350    1.8731847   -0.7235203 
H    -7.7035479    2.0447298    0.8700984 
H    -7.0032163    0.4774842    0.3761868 
H    -0.6482470   -0.0754694   -5.8458429 
H     0.0359592    1.3653374   -5.0420169 
H    -1.6102108    1.4194123   -5.7261731 
H     3.9262953   -0.5563138   -5.3976877 
H     3.1601995    1.0417853   -5.2205425 
H     2.3512773   -0.2439272   -6.1641580 
H     6.7695767   -2.2661773   -1.1325270 
H     5.5931895   -3.4777927   -0.5671665 
H     7.0476577   -3.1175906    0.4093363 
