115
Energy =
C    -1.5057810   -0.8501627    2.6866626 
C    -0.4529708   -1.7983170    2.4738348 
C     0.8995523   -1.4580359    2.6908078 
H    -0.6976003   -2.7572262    1.9979268 
Pd   -0.1183793   -0.0643665    1.1613132 
P     1.6347150    0.0842152   -0.4261267 
P    -1.4825716    1.6407662    0.3034153 
H    -1.3782199   -0.1198247    3.4993796 
H     1.0969572   -0.5917126    3.3416458 
C    -5.5807733   -1.7598778    1.6238537 
C    -4.5285941   -2.1921923    0.7993674 
C    -3.2054186   -1.8912964    1.1360171 
C    -2.9024627   -1.1547299    2.3056357 
C    -3.9706711   -0.7111083    3.1123020 
C    -5.2964135   -1.0129816    2.7758280 
H    -6.6172486   -1.9993161    1.3646113 
H    -4.7426703   -2.7611721   -0.1116101 
H    -2.3929597   -2.2103014    0.4720760 
H    -3.7569417   -0.1307063    4.0155705 
H    -6.1107802   -0.6611509    3.4171445 
C     4.3801501   -3.9049714    2.0775206 
C     4.4487400   -2.7304241    2.8406532 
C     3.3052638   -1.9461006    3.0240278 
C     2.0656254   -2.3224740    2.4577207 
C     2.0094768   -3.5179866    1.7030881 
C     3.1551117   -4.2948232    1.5104754 
H     5.2752806   -4.5172269    1.9269617 
H     5.3974087   -2.4181245    3.2877439 
H     3.3672114   -1.0254344    3.6131388 
H     1.0648207   -3.8491166    1.2631590 
H     3.0922336   -5.2139184    0.9185618 
C     0.8580218    3.2210172    0.2780245 
C     1.4417727    2.9189433   -1.1333508 
C     1.7449644    4.4952062    0.3094018 
C     2.6523096    3.8151029   -0.7503149 
C    -0.6461159    3.2977795    0.5053910 
C     1.6397365    1.4879846   -1.6625297 
C    -3.1429190    1.9240201    1.0288543 
C    -1.7727628    1.4253348   -1.4943524 
C     1.5331778   -1.3791786   -1.5398382 
C     3.3314386    0.0552260    0.2913038 
C    -3.2419619    2.4399495    2.3392231 
C    -1.6906345    0.1257706   -2.0241018 
C     2.2671343   -1.4701520   -2.7391133 
C     3.6264328    0.9494394    1.3386290 
C    -4.3079501    1.6048529    0.3150096 
C    -2.0669167    2.5090962   -2.3452138 
C     0.6815807   -2.4365229   -1.1755833 
C     4.3245096   -0.8340871   -0.1564736 
C    -4.4952743    2.6810341    2.9219098 
C    -1.8653353   -0.1083438   -3.4010827 
C     2.1736549   -2.6142024   -3.5550823 
C     4.9138148    1.0104090    1.9016597 
C    -5.5793929    1.8267178    0.8828084 
C    -2.2469217    2.3063901   -3.7248780 
C     0.5662027   -3.5919484   -1.9663582 
C     5.6148427   -0.8115581    0.4048240 
C    -5.6507375    2.3743696    2.1733681 
C    -2.1362039    0.9942702   -4.2303895 
C     1.3242873   -3.6624469   -3.1493391 
C     5.8941885    0.1255941    1.4166723 
C    -4.6157708    3.2413424    4.3216099 
C    -1.7179955   -1.5032934   -3.9639593 
C     2.9858961   -2.7267422   -4.8265004 
C     5.2257213    2.0082139    2.9953131 
C    -6.8254581    1.4558575    0.1121959 
C    -2.5281187    3.4687910   -4.6513492 
C    -0.3374707   -4.7289903   -1.5443519 
C     6.6757180   -1.7773019   -0.0731378 
H     1.2754645    2.4899971    0.9964001 
H     0.8286618    3.4644203   -1.8756435 
H     2.1898735    4.7823552    1.2769721 
H     1.2119735    5.3665223   -0.1109962 
H     3.0898613    4.4425190   -1.5444790 
H     3.4551304    3.2241433   -0.2763217 
H    -1.1312190    4.0266403   -0.1680622 
H    -0.8601323    3.6256972    1.5380201 
H     2.5861921    1.4268791   -2.2290109 
H     0.8235808    1.2169291   -2.3547048 
H    -2.3365130    2.6557562    2.9201609 
H    -1.4718869   -0.7136160   -1.3555915 
H     2.9258150   -0.6526800   -3.0511749 
H     2.8416799    1.6013393    1.7398130 
H    -4.2346454    1.1855085   -0.6939606 
H    -2.1661804    3.5219516   -1.9403224 
H     0.0843679   -2.3398083   -0.2613033 
H     4.0925870   -1.5753020   -0.9270454 
H    -6.6360467    2.5569719    2.6192335 
H    -2.2732584    0.8286013   -5.3060289 
H     1.2400611   -4.5528044   -3.7844535 
H     6.8975224    0.1489975    1.8591587 
H    -5.2199371    2.5746639    4.9633711 
H    -5.1198105    4.2247201    4.3124784 
H    -3.6285349    3.3702335    4.7952855 
H    -2.1491931   -2.2578833   -3.2842413 
H    -2.2054682   -1.5984148   -4.9479032 
H    -0.6481885   -1.7551453   -4.0857818 
H     3.9120598   -3.3041676   -4.6456686 
H     2.4238054   -3.2509013   -5.6178021 
H     3.2812892   -1.7353991   -5.2081006 
H     4.3846435    2.1051729    3.7040274 
H     5.4093758    3.0115544    2.5668755 
H     6.1255368    1.7204595    3.5631409 
H    -7.7365208    1.8312139    0.6056505 
H    -6.9101342    0.3563349    0.0297922 
H    -6.7955577    1.8591395   -0.9151864 
H    -3.2378014    3.1852971   -5.4469112 
H    -1.5981370    3.8053028   -5.1473911 
H    -2.9452259    4.3308229   -4.1049629 
H     0.2481532   -5.5381618   -1.0683589 
H    -0.8622695   -5.1716638   -2.4079966 
H    -1.0943440   -4.3934426   -0.8148341 
H     7.3528261   -2.0683272    0.7477110 
H     7.2972032   -1.3179036   -0.8648008 
H     6.2237857   -2.6923701   -0.4906564 
