84
Energy =
C     2.1432865   -0.2504496   -1.9509114 
C     2.4294598    0.9594828   -1.2582515 
C     2.7942743    0.9372537    0.1175520 
H     2.2076966    1.9228067   -1.7347198 
Pd    0.7796808   -0.0096300   -0.1964021 
P    -0.4003709    0.3703110    1.7711531 
P    -1.1135640   -1.1269758   -0.9361863 
H     2.6476847   -1.1570441   -1.5818783 
H     3.2837059    0.0222031    0.4871120 
C     0.6668886   -0.6161723   -5.9773329 
C     1.2273864   -1.7187382   -5.3163197 
C     1.7001081   -1.5845264   -4.0052958 
C     1.6227341   -0.3465958   -3.3271176 
C     1.0347331    0.7499729   -3.9999184 
C     0.5709701    0.6169023   -5.3116677 
H     0.3010126   -0.7165242   -7.0042679 
H     1.3061195   -2.6846177   -5.8259555 
H     2.1484297   -2.4472255   -3.5001221 
H     0.9311207    1.7145398   -3.4930696 
H     0.1216694    1.4781146   -5.8158354 
C     3.6233463    4.4509872    2.4519647 
C     2.6563729    4.5050702    1.4337444 
C     2.3553712    3.3635808    0.6865341 
C     3.0237274    2.1416302    0.9346689 
C     3.9670023    2.0927745    1.9860694 
C     4.2714245    3.2391469    2.7307631 
H     3.8594876    5.3483083    3.0329964 
H     2.1272085    5.4414950    1.2307379 
H     1.5822769    3.4129814   -0.0882653 
H     4.4846371    1.1506164    2.1997417 
H     5.0199600    3.1863959    3.5282313 
C    -2.2230440    0.3024325    1.2665457 
C    -2.4240969   -0.9548063    0.3967155 
C    -3.2118666    0.3575120    2.4402622 
C    -0.1716319    1.9396114    2.6692976 
C    -0.2267588   -0.9779615    3.0004398 
C    -1.8322373   -0.3741374   -2.4426122 
C    -1.0093579   -2.9289886   -1.2240798 
C     0.8610115    2.0416826    3.6274330 
C    -0.6191579   -0.8217719    4.3476807 
C    -0.9391368    3.0826085    2.3577188 
C     0.2392271   -2.2334275    2.5555475 
C    -2.0636324    1.0197465   -2.4374499 
C    -2.1730261   -3.7083968   -1.4046751 
C    -2.1082100   -1.1180114   -3.6053346 
C     0.2524978   -3.5550798   -1.2292856 
C     1.0879366    3.2532047    4.2900164 
C    -0.5443199   -1.9083226    5.2292898 
C    -0.7055981    4.2921095    3.0253944 
C     0.3026650   -3.3191333    3.4396317 
C    -2.6112463    1.6482153   -3.5618926 
C    -2.0668225   -5.0924008   -1.5940191 
C    -2.6432680   -0.4790974   -4.7330477 
C     0.3539512   -4.9404968   -1.4191807 
C     0.3026297    4.3779836    3.9964239 
C    -0.0876387   -3.1567452    4.7771551 
C    -2.9063342    0.8974896   -4.7110178 
C    -0.8050122   -5.7087321   -1.6027334 
H    -2.3569593    1.1972456    0.6286059 
H    -2.3408260   -1.8626334    1.0230156 
H    -3.4272040   -0.9516072   -0.0642651 
H    -3.1174636   -0.5392821    3.0761137 
H    -3.0422104    1.2483550    3.0679186 
H    -4.2474272    0.3993546    2.0593261 
H     1.4818481    1.1709769    3.8612086 
H    -0.9767992    0.1485231    4.7074058 
H    -1.7283907    3.0367173    1.6003865 
H     0.5534063   -2.3582133    1.5120009 
H    -1.7992477    1.6173907   -1.5569994 
H    -3.1617447   -3.2364889   -1.4039257 
H    -1.8968749   -2.1907353   -3.6384148 
H     1.1537228   -2.9516157   -1.0780968 
H     1.8894421    3.3201508    5.0318089 
H    -0.8460095   -1.7798529    6.2739070 
H    -1.3165797    5.1687725    2.7869167 
H     0.6632416   -4.2894839    3.0833072 
H    -2.7972826    2.7271166   -3.5461832 
H    -2.9717948   -5.6922694   -1.7350003 
H    -2.8489849   -1.0636957   -5.6353799 
H     1.3382866   -5.4197948   -1.4215848 
H     0.4817619    5.3232285    4.5186719 
H    -0.0319533   -4.0021602    5.4706759 
H    -3.3282998    1.3896607   -5.5932517 
H    -0.7270202   -6.7908203   -1.7501426 
