84
Energy =
C     2.1959515   -0.1510660   -1.8916316 
C     2.4279083    1.0576818   -1.1764055 
C     2.7501641    1.0285423    0.2097025 
H     2.1949645    2.0204186   -1.6487823 
Pd    0.7747946    0.0278265   -0.1771929 
P    -0.4709841    0.3463992    1.7602614 
P    -1.0548393   -1.1521114   -0.9772659 
H     2.7160431   -1.0474345   -1.5194197 
H     3.2525339    0.1224872    0.5841874 
C     0.8804634   -0.4916502   -5.9751708 
C     1.4608223   -1.5847504   -5.3156678 
C     1.8772181   -1.4605199   -3.9845767 
C     1.7236244   -0.2416002   -3.2854068 
C     1.1127513    0.8434982   -3.9564920 
C     0.7049854    0.7205707   -5.2876343 
H     0.5596901   -0.5837342   -7.0178475 
H     1.5989556   -2.5350839   -5.8416428 
H     2.3417684   -2.3149298   -3.4798349 
H     0.9477044    1.7905682   -3.4330763 
H     0.2373202    1.5727584   -5.7904663 
C     3.4110915    4.5356273    2.6067242 
C     4.0844740    3.3390283    2.8912872 
C     3.8344871    2.1935962    2.1251639 
C     2.9214982    2.2288119    1.0468747 
C     2.2264379    3.4344618    0.7926009 
C     2.4731499    4.5748985    1.5610152 
H     3.6049187    5.4322656    3.2042612 
H     4.8103218    3.2975512    3.7101012 
H     4.3718710    1.2636864    2.3436260 
H     1.4754701    3.4715041   -0.0042563 
H     1.9239347    5.4985645    1.3528909 
C    -2.2748688    0.2250269    1.2021378 
C    -2.4098502   -1.0302816    0.3164284 
C    -3.2994290    0.2381653    2.3459443 
C    -0.3177873    1.9123195    2.6802380 
C    -0.2876988   -1.0082920    2.9809454 
C    -1.7567653   -0.4343562   -2.5079623 
C    -0.8717341   -2.9487105   -1.2613600 
C     0.6826705    2.0354570    3.6695394 
C    -0.7271755   -0.8805772    4.3166626 
C    -1.1100918    3.0348961    2.3567426 
C     0.2377503   -2.2411518    2.5393277 
C    -1.9177976   -1.1843674   -3.6883424 
C     0.4122763   -3.5269990   -1.2292054 
C    -2.0884639    0.9390528   -2.5057704 
C    -1.9993407   -3.7702714   -1.4794943 
C     0.8535764    3.2464879    4.3495744 
C    -0.6399082   -1.9728366    5.1899877 
C    -0.9324161    4.2441605    3.0418631 
C     0.3138261   -3.3329514    3.4148561 
C    -2.4389414   -0.5742805   -4.8382075 
C     0.5710061   -4.9074030   -1.4168142 
C    -2.6204419    1.5380284   -3.6535743 
C    -1.8359776   -5.1490231   -1.6658831 
C     0.0441042    4.3504023    4.0428212 
C    -0.1235206   -3.1988997    4.7408772 
C    -2.8006398    0.7797508   -4.8214354 
C    -0.5524094   -5.7179961   -1.6355758 
H    -2.4181671    1.1212157    0.5681809 
H    -2.3177261   -1.9402414    0.9383343 
H    -3.3980083   -1.0543150   -0.1751757 
H    -3.1953594   -0.6608751    2.9771129 
H    -3.1772034    1.1283125    2.9855398 
H    -4.3240070    0.2503815    1.9344406 
H     1.3226964    1.1815453    3.9132624 
H    -1.1303318    0.0725000    4.6743094 
H    -1.8752558    2.9731219    1.5761553 
H     0.5884286   -2.3434568    1.5050865 
H    -1.6286016   -2.2388781   -3.7168889 
H     1.2856088   -2.8905162   -1.0517913 
H    -1.9174055    1.5452195   -1.6083479 
H    -3.0042054   -3.3348789   -1.5105524 
H     1.6303232    3.3296535    5.1156618 
H    -0.9785119   -1.8664205    6.2257302 
H    -1.5621488    5.1046179    2.7933641 
H     0.7208907   -4.2856548    3.0610205 
H    -2.5556686   -1.1632475   -5.7534689 
H     1.5722058   -5.3496388   -1.3902534 
H    -2.8850235    2.6004198   -3.6405017 
H    -2.7131669   -5.7818451   -1.8353676 
H     0.1797552    5.2954481    4.5783475 
H    -0.0582863   -4.0488969    5.4279333 
H    -3.2106215    1.2494120   -5.7213936 
H    -0.4296569   -6.7961986   -1.7809855 
