84
Energy =
C     2.1646351   -0.5846434   -1.7833641 
C     2.6378250    0.4305205   -0.8996044 
C     2.8632245    0.1447317    0.4740493 
H     2.6438346    1.4738371   -1.2394282 
Pd    0.7459523   -0.3224554   -0.0872767 
P    -0.4417616    0.0806793    1.8689858 
P    -1.2867613   -0.9664392   -1.0069759 
H     2.4624623   -1.6187053   -1.5511686 
H     3.0982979   -0.8998430    0.7328339 
C     0.9698689    0.0025157   -5.8766293 
C     1.2965540   -1.2761774   -5.4023799 
C     1.6724073   -1.4545077   -4.0650424 
C     1.7332842   -0.3578952   -3.1756162 
C     1.3677416    0.9198664   -3.6607779 
C     1.0004294    1.0975956   -4.9974131 
H     0.6828774    0.1454852   -6.9234084 
H     1.2684068   -2.1373953   -6.0780310 
H     1.9379319   -2.4545582   -3.7038866 
H     1.3605138    1.7820047   -2.9857596 
H     0.7242720    2.0946857   -5.3542789 
C     3.7555475    2.9169967    3.6419499 
C     3.9064119    1.5356856    3.8296946 
C     3.6281833    0.6505004    2.7819472 
C     3.1903793    1.1255418    1.5249273 
C     3.0530449    2.5220616    1.3476442 
C     3.3318319    3.4057569    2.3943468 
H     3.9711756    3.6122611    4.4596979 
H     4.2393999    1.1431643    4.7955648 
H     3.7438609   -0.4270605    2.9374027 
H     2.7239913    2.9255314    0.3842305 
H     3.2192144    4.4836915    2.2382069 
C    -2.0229704   -0.9503702    1.7323921 
C    -2.5841165   -0.6739017    0.3203236 
C    -1.7722155   -2.4419193    1.9996570 
C    -1.0733071    1.8017021    1.9207179 
C     0.3535421   -0.2670149    3.4768932 
C    -1.8199119    0.0469545   -2.4321172 
C    -1.4642276   -2.7162452   -1.5130709 
C    -2.1223770    2.1883583    2.7833517 
C     1.0426651   -1.4930336    3.6140969 
C    -0.5123483    2.7552222    1.0470322 
C     0.3827040    0.6645674    4.5332848 
C    -1.9916811    1.4362517   -2.2387401 
C    -2.7177434   -3.2399559   -1.8966444 
C    -1.9615734   -0.4985293   -3.7226534 
C    -0.3330483   -3.5554740   -1.5106454 
C    -2.5965804    3.5070330    2.7671332 
C     1.7085210   -1.7993485    4.8069182 
C    -0.9898355    4.0731266    1.0328916 
C     1.0642337    0.3577171    5.7195756 
C    -2.3400514    2.2574326   -3.3172642 
C    -2.8308532   -4.5856926   -2.2689145 
C    -2.3053119    0.3325097   -4.7979301 
C    -0.4506090   -4.9018369   -1.8836860 
C    -2.0321087    4.4495783    1.8926342 
C     1.7186247   -0.8740467    5.8630269 
C    -2.5020578    1.7058638   -4.5984396 
C    -1.6989663   -5.4170839   -2.2620135 
H    -2.7386767   -0.5605953    2.4788199 
H    -3.4702958   -1.3008854    0.1181772 
H    -2.8946865    0.3817096    0.2249892 
H    -0.9893775   -2.8494926    1.3341481 
H    -1.4676783   -2.6171851    3.0440119 
H    -2.6971968   -3.0142447    1.8098903 
H    -2.5694834    1.4654258    3.4746721 
H     1.0699329   -2.2015589    2.7784360 
H     0.2968922    2.4512654    0.3740876 
H    -0.1085225    1.6362357    4.4277778 
H    -1.8504994    1.8798444   -1.2460275 
H    -3.6043569   -2.5961748   -1.9181435 
H    -1.7961985   -1.5662415   -3.8929840 
H     0.6380752   -3.1487986   -1.2082378 
H    -3.4096793    3.7996431    3.4393472 
H     2.2314533   -2.7559762    4.9080282 
H    -0.5470521    4.8056863    0.3501269 
H     1.0866949    1.0900646    6.5330180 
H    -2.4831751    3.3312184   -3.1573042 
H    -3.8050631   -4.9868014   -2.5666959 
H    -2.4117146   -0.0988522   -5.7982183 
H     0.4326408   -5.5487319   -1.8772980 
H    -2.4069931    5.4782148    1.8824753 
H     2.2468540   -1.1098006    6.7925952 
H    -2.7732972    2.3493700   -5.4416483 
H    -1.7920295   -6.4686361   -2.5522936 
