84
Energy =
C     2.1261943   -0.5572601   -1.7470064 
C     2.5676365    0.5208072   -0.9284302 
C     2.7858945    0.3390885    0.4632245 
H     2.5586350    1.5371692   -1.3402528 
Pd    0.6687336   -0.1998749   -0.0880417 
P    -0.5750574    0.1427009    1.8504595 
P    -1.2931037   -0.9384229   -1.0689839 
H     2.4191402   -1.5696062   -1.4294604 
H     3.0178519   -0.6812447    0.8056422 
C     1.0506313   -0.3086114   -5.9063423 
C     1.3360802   -1.5465166   -5.3123977 
C     1.6721258   -1.6124542   -3.9545501 
C     1.7326274   -0.4425908   -3.1634163 
C     1.4101679    0.7943468   -3.7694798 
C     1.0830863    0.8594467   -5.1266673 
H     0.7951954   -0.2531410   -6.9694782 
H     1.3066865   -2.4636399   -5.9098456 
H     1.9059666   -2.5813990   -3.4994404 
H     1.4074632    1.7139774   -3.1755111 
H     0.8412792    1.8265231   -5.5784319 
C     3.7120724    3.3854317    3.3621773 
C     3.6684369    2.0306854    3.7284413 
C     3.3904013    1.0516992    2.7678302 
C     3.1291653    1.4047472    1.4225992 
C     3.1817948    2.7734014    1.0676054 
C     3.4766544    3.7495292    2.0258656 
H     3.9365377    4.1523319    4.1105409 
H     3.8553174    1.7340454    4.7655361 
H     3.3555095   -0.0017638    3.0633587 
H     2.9877955    3.0843498    0.0363905 
H     3.5190414    4.8026867    1.7291872 
C    -2.1916907   -0.8111938    1.6195296 
C    -2.6649395   -0.5994061    0.1647783 
C    -2.0017861   -2.2985805    1.9645295 
C    -1.0331107    1.8915059    2.1419940 
C     0.1792533   -0.4463539    3.4089677 
C    -1.7649251    0.0149832   -2.5559368 
C    -1.4222075   -2.7123771   -1.4964536 
C    -2.3380891    2.3975635    1.9658971 
C    -0.0575609    0.1805023    4.6486276 
C     0.0053852    2.7766680    2.5100341 
C     1.0307706   -1.5702244    3.3474272 
C    -1.8767940    1.4180455   -2.4235003 
C    -2.6426915   -3.2712541   -1.9334774 
C    -1.9289844   -0.5801395   -3.8208372 
C    -0.2893512   -3.5388914   -1.3637412 
C    -2.5950771    3.7644768    2.1495139 
C     0.5568610   -0.3117624    5.8088041 
C    -0.2596542    4.1380331    2.6962524 
C     1.6315816   -2.0655378    4.5113453 
C    -2.1935212    2.2053598   -3.5363736 
C    -2.7200693   -4.6371444   -2.2352574 
C    -2.2399972    0.2170388   -4.9315051 
C    -0.3712189   -4.9053713   -1.6657116 
C    -1.5585787    4.6370198    2.5114677 
C     1.3991278   -1.4322592    5.7428453 
C    -2.3813748    1.6044361   -4.7917390 
C    -1.5858584   -5.4544185   -2.1020770 
H    -2.9332929   -0.3717945    2.3120911 
H    -3.5367523   -1.2382182   -0.0623742 
H    -2.9688649    0.4462764   -0.0136503 
H    -1.1903034   -2.7555771    1.3697545 
H    -1.7654972   -2.4362386    3.0315508 
H    -2.9297935   -2.8518142    1.7376126 
H    -3.1690391    1.7376139    1.6996455 
H    -0.7104528    1.0575389    4.7061120 
H     1.0187192    2.3967577    2.6659740 
H     1.2269171   -2.0489240    2.3803100 
H    -1.7092993    1.8972385   -1.4505382 
H    -3.5314606   -2.6406454   -2.0489839 
H    -1.8044815   -1.6596190   -3.9450572 
H     0.6535784   -3.1062136   -1.0123689 
H    -3.6130266    4.1447247    2.0153908 
H     0.3751603    0.1824694    6.7687247 
H     0.5569318    4.8070525    2.9859940 
H     2.2895288   -2.9389764    4.4570546 
H    -2.2888855    3.2904401   -3.4251451 
H    -3.6685520   -5.0652875   -2.5753953 
H    -2.3639833   -0.2523631   -5.9124774 
H     0.5130214   -5.5418497   -1.5578377 
H    -1.7643811    5.7027157    2.6548734 
H     1.8770409   -1.8118499    6.6518176 
H    -2.6271603    2.2210888   -5.6623652 
H    -1.6511323   -6.5217060   -2.3372379 
