84
Energy =
C     2.2407567   -0.6654276   -1.7227998 
C     2.6560249    0.4259772   -0.9081771 
C     2.7806889    0.2743242    0.4990221 
H     2.7070912    1.4346163   -1.3371769 
Pd    0.6908532   -0.2239698   -0.1664107 
P    -0.5387328    0.2770641    1.7404265 
P    -1.2382635   -1.2181637   -0.9877441 
H     2.4442357   -1.6795656   -1.3464794 
H     2.9967451   -0.7388518    0.8726448 
C     1.2512190   -0.5266547   -5.9126083 
C     1.6075471    0.6575349   -5.2455120 
C     1.9471027    0.6299210   -3.8881333 
C     1.9454540   -0.5879273   -3.1662625 
C     1.6068579   -1.7747799   -3.8579756 
C     1.2560832   -1.7427432   -5.2123945 
H     0.9816218   -0.5011437   -6.9733269 
H     1.6213033    1.6091040   -5.7872506 
H     2.2109960    1.5675825   -3.3886638 
H     1.6029409   -2.7284479   -3.3194958 
H     0.9866772   -2.6733630   -5.7222405 
C     3.6334461    3.3667800    3.3654463 
C     4.0294374    2.0422067    3.6007706 
C     3.7418562    1.0447676    2.6600870 
C     3.0731648    1.3574791    1.4550309 
C     2.6884237    2.6993576    1.2274787 
C     2.9595728    3.6904348    2.1746731 
H     3.8473417    4.1456672    4.1045451 
H     4.5575646    1.7816061    4.5239678 
H     4.0374777    0.0086923    2.8571060 
H     2.1468320    2.9631453    0.3136615 
H     2.6373165    4.7201123    1.9889442 
C    -2.3012325   -0.3773800    1.4728065 
C    -2.2814790   -1.5855131    0.5134304 
C    -3.1112818   -0.6134077    2.7558534 
C    -0.8153496    2.0574712    2.0529277 
C     0.1577612   -0.4705260    3.2536371 
C    -2.2531955   -0.1800643   -2.0968051 
C    -0.9941053   -2.8222628   -1.8305482 
C    -1.2066124    2.5671783    3.3091212 
C     0.0283916   -1.8621507    3.4671059 
C    -0.7048968    2.9324991    0.9519034 
C     0.9613107    0.2875709    4.1313100 
C    -3.6223419    0.0803260   -1.8859585 
C    -1.5881068   -3.1264736   -3.0697839 
C    -1.6012780    0.3848079   -3.2150702 
C    -0.1137816   -3.7483072   -1.2289120 
C    -1.4597804    3.9375283    3.4595392 
C     0.6546615   -2.4722163    4.5602176 
C    -0.9664523    4.2999946    1.1068012 
C     1.5874720   -0.3315908    5.2229953 
C    -4.3269457    0.8954945   -2.7840907 
C    -1.3045527   -4.3489091   -3.6971828 
C    -2.3140115    1.1866709   -4.1140744 
C     0.1574877   -4.9701369   -1.8558113 
C    -1.3367185    4.8044766    2.3625979 
C     1.4320113   -1.7065716    5.4446984 
C    -3.6766985    1.4468638   -3.8981054 
C    -0.4348926   -5.2693230   -3.0946451 
H    -2.7483607    0.4774173    0.9282522 
H    -1.8317496   -2.4768892    0.9866671 
H    -3.3042339   -1.8727751    0.2101086 
H    -2.6992736   -1.4420721    3.3546879 
H    -3.1246784    0.2923839    3.3848263 
H    -4.1564205   -0.8612609    2.4999519 
H    -1.3062517    1.9001477    4.1716518 
H    -0.5592185   -2.4769047    2.7773845 
H    -0.4122824    2.5330849   -0.0272511 
H     1.1116358    1.3573654    3.9604708 
H    -4.1527143   -0.3500005   -1.0305774 
H    -2.2598717   -2.4075800   -3.5493670 
H    -0.5380041    0.1893793   -3.3852604 
H     0.3726885   -3.5026931   -0.2760656 
H    -1.7567315    4.3287075    4.4380332 
H     0.5373083   -3.5487760    4.7212929 
H    -0.8763230    4.9726365    0.2476295 
H     2.2062950    0.2697046    5.8969311 
H    -5.3899769    1.0945390   -2.6137887 
H    -1.7657875   -4.5803296   -4.6628324 
H    -1.7988222    1.6103582   -4.9822396 
H     0.8387490   -5.6861360   -1.3847282 
H    -1.5334447    5.8743833    2.4868368 
H     1.9201499   -2.1848402    6.2999267 
H    -4.2327958    2.0793428   -4.5977170 
H    -0.2149040   -6.2205766   -3.5899347 
