84
Energy =
C     2.1836622   -0.5673096   -1.7653689 
C     2.6432141    0.4465089   -0.8730532 
C     2.8561215    0.1563784    0.5017985 
H     2.6477316    1.4911872   -1.2087059 
Pd    0.7473664   -0.3193284   -0.0810929 
P    -0.4597724    0.0701715    1.8655845 
P    -1.2742687   -0.9683902   -1.0220524 
H     2.4838319   -1.6009044   -1.5341032 
H     3.0945847   -0.8878908    0.7587495 
C     1.0267854    0.0309121   -5.8678727 
C     1.0437044    1.1225744   -4.9840382 
C     1.3983782    0.9410754   -3.6445006 
C     1.7649129   -0.3369826   -3.1608379 
C     1.7179895   -1.4302296   -4.0552376 
C     1.3545694   -1.2481992   -5.3955136 
H     0.7495071    0.1767976   -6.9168679 
H     0.7667650    2.1198804   -5.3396975 
H     1.3805034    1.8004469   -2.9661597 
H     1.9847811   -2.4304696   -3.6955546 
H     1.3370806   -2.1067925   -6.0748576 
C     3.7055201    2.9213745    3.6878962 
C     3.8654048    1.5404251    3.8707700 
C     3.6009664    0.6577012    2.8173633 
C     3.1683988    1.1349072    1.5593618 
C     3.0215626    2.5310918    1.3872212 
C     3.2865346    3.4123308    2.4395599 
H     3.9103220    3.6146897    4.5100730 
H     4.1946678    1.1462489    4.8372469 
H     3.7236824   -0.4196325    2.9689924 
H     2.6957552    2.9362404    0.4234118 
H     3.1667314    4.4900460    2.2872903 
C    -2.0342422   -0.9684384    1.7108222 
C    -2.5847060   -0.6885798    0.2951400 
C    -1.7777630   -2.4598804    1.9733076 
C    -1.1008170    1.7875877    1.9191737 
C     0.3240524   -0.2799141    3.4786475 
C    -1.7989271    0.0486570   -2.4477373 
C    -1.4388035   -2.7166541   -1.5379369 
C    -0.5394702    2.7473188    1.0526031 
C     1.0183156   -1.5029688    3.6165680 
C    -2.1573115    2.1654084    2.7766620 
C     0.3405195    0.6478192    4.5387012 
C    -1.9799159    1.4361822   -2.2501631 
C    -2.6865250   -3.2445785   -1.9343599 
C    -1.9237601   -0.4917889   -3.7421515 
C    -0.3034132   -3.5501393   -1.5309937 
C    -1.0237542    4.0627720    1.0405063 
C     1.6766509   -1.8104065    4.8132665 
C    -2.6381444    3.4817040    2.7626874 
C     1.0144464    0.3398723    5.7290549 
C    -2.3202136    2.2604636   -3.3289083 
C    -2.7897829   -4.5887931   -2.3148980 
C    -2.2595488    0.3423530   -4.8175345 
C    -0.4111319   -4.8950398   -1.9121991 
C    -2.0731117    4.4305480    1.8953791 
C     1.6739566   -0.8891006    5.8729063 
C    -2.4649779    1.7138800   -4.6142762 
C    -1.6537539   -5.4144790   -2.3034321 
H    -2.7584393   -0.5858823    2.4527894 
H    -3.4657286   -1.3193996    0.0826613 
H    -2.9001763    0.3657666    0.2018807 
H    -0.9871842   -2.8600874    1.3124705 
H    -1.4810344   -2.6384405    3.0193456 
H    -2.6980255   -3.0362514    1.7731128 
H     0.2755097    2.4500746    0.3835796 
H     1.0556073   -2.2081758    2.7784864 
H    -2.6049273    1.4374305    3.4623555 
H    -0.1544364    1.6175624    4.4330127 
H    -1.8518931    1.8760748   -1.2540539 
H    -3.5761546   -2.6051250   -1.9595617 
H    -1.7512399   -1.5579080   -3.9153652 
H     0.6631882   -3.1401940   -1.2187297 
H    -0.5807340    4.8002103    0.3631681 
H     2.2038486   -2.7646578    4.9146985 
H    -3.4568064    3.7675411    3.4310519 
H     1.0269388    1.0692280    6.5453893 
H    -2.4704050    3.3328144   -3.1658227 
H    -3.7595053   -4.9931916   -2.6227088 
H    -2.3527225   -0.0850771   -5.8208278 
H     0.4753039   -5.5375206   -1.9021648 
H    -2.4532540    5.4572680    1.8868619 
H     2.1962328   -1.1257160    6.8056145 
H    -2.7296991    2.3598607   -5.4576652 
H    -1.7391252   -6.4648685   -2.6002189 
