84
Energy =
C     2.1701680   -0.8152653   -1.6392795 
C     2.6197474    0.3792404   -1.0135388 
C     2.7478958    0.4623762    0.3989489 
H     2.6887873    1.2972024   -1.6094614 
Pd    0.6410185   -0.1006046   -0.1577797 
P    -0.5487946    0.4583059    1.7574251 
P    -1.3270544   -0.9934442   -0.9947775 
H     2.3484076   -1.7582518   -1.1003214 
H     2.9096361   -0.4796275    0.9454416 
C     1.3099373   -1.3900568   -5.8193435 
C     1.3428773   -2.4788039   -4.9332279 
C     1.6355386   -2.2743706   -3.5797099 
C     1.8867037   -0.9754642   -3.0772439 
C     1.8402379    0.1122624   -3.9806614 
C     1.5650494   -0.0957763   -5.3364294 
H     1.0912841   -1.5488008   -6.8802917 
H     1.1465794   -3.4921729   -5.2980286 
H     1.6619425   -3.1291285   -2.8959756 
H     2.0154261    1.1326271   -3.6255476 
H     1.5414806    0.7588684   -6.0203646 
C     3.6065721    3.9741974    2.7340090 
C     3.4764420    2.7164092    3.3419798 
C     3.2235731    1.5827648    2.5620414 
C     3.0731581    1.6820712    1.1597377 
C     3.2193966    2.9542543    0.5600110 
C     3.4885566    4.0842867    1.3390332 
H     3.8091499    4.8621468    3.3412091 
H     3.5820084    2.6178087    4.4275626 
H     3.1351041    0.6004178    3.0382270 
H     3.1223662    3.0682093   -0.5247143 
H     3.6047739    5.0597778    0.8553192 
C    -2.3907497    0.1674756    1.3992271 
C    -2.5871395   -0.9820402    0.3892190 
C    -3.2675391   -0.0011024    2.6492017 
C    -0.4914020    2.1794248    2.3655409 
C    -0.0575665   -0.6502930    3.1317980 
C    -2.0515296   -0.0409896   -2.3740655 
C    -1.2548971   -2.7449302   -1.5237058 
C    -0.0146570    3.1631123    1.4759462 
C    -0.3134423   -2.0356455    3.0091770 
C    -0.9538375    2.5636752    3.6444093 
C     0.6808835   -0.1882915    4.2417575 
C    -1.5429441   -0.2345070   -3.6775071 
C    -2.0983921   -3.2775835   -2.5187126 
C    -3.0325711    0.9493457   -2.1537136 
C    -0.3290409   -3.5862932   -0.8706435 
C     0.0089234    4.5104638    1.8592987 
C     0.1306092   -2.9308099    3.9898181 
C    -0.9271655    3.9123829    4.0212200 
C     1.1300706   -1.0915030    5.2167505 
C    -2.0226269    0.5411756   -4.7400460 
C    -2.0035918   -4.6339464   -2.8613728 
C    -3.5047721    1.7230338   -3.2226039 
C    -0.2472204   -4.9432872   -1.2087052 
C    -0.4441139    4.8855161    3.1316690 
C     0.8532246   -2.4606696    5.0978861 
C    -3.0016067    1.5210271   -4.5167187 
C    -1.0807556   -5.4665142   -2.2099353 
H    -2.6494458    1.1229716    0.9028104 
H    -2.4829088   -1.9614876    0.8886398 
H    -3.6042629   -0.9565599   -0.0421618 
H    -2.9785130   -0.9001118    3.2199568 
H    -3.1899662    0.8744534    3.3137100 
H    -4.3268298   -0.1056857    2.3555767 
H     0.3470405    2.8644507    0.4857002 
H    -0.8533799   -2.4240194    2.1397828 
H    -1.3255919    1.8139107    4.3500602 
H     0.9136738    0.8752100    4.3437569 
H    -0.7837854   -0.9993472   -3.8656917 
H    -2.8211096   -2.6345765   -3.0312877 
H    -3.4385493    1.1243987   -1.1524630 
H     0.3368942   -3.1695263   -0.1046824 
H     0.3924301    5.2648307    1.1654805 
H    -0.0840916   -3.9993736    3.8854226 
H    -1.2849481    4.2044402    5.0139095 
H     1.6992409   -0.7187384    6.0746994 
H    -1.6231347    0.3753456   -5.7456223 
H    -2.6564646   -5.0419940   -3.6398655 
H    -4.2711617    2.4838592   -3.0424334 
H     0.4741358   -5.5902904   -0.6988889 
H    -0.4211943    5.9377486    3.4334737 
H     1.2025038   -3.1611336    5.8631696 
H    -3.3741674    2.1260194   -5.3496395 
H    -1.0105336   -6.5244802   -2.4828512 
