84
Energy =
C     0.0894706    0.7206406   -2.7652474 
C     0.0447362    1.9672402   -2.0875269 
C     1.0650666    2.3311802   -1.1608387 
H    -0.8649843    2.5788880   -2.1386069 
Pd    0.0999416    0.4106222   -0.5398589 
P     0.5747222    0.3250733    1.7383520 
P    -0.8092050   -1.7011906   -0.2045788 
H     1.0798929    0.2483278   -2.8644916 
H     2.0718370    1.9249861   -1.3430023 
C    -2.8087169   -0.8792577   -5.5134920 
C    -1.6902397   -1.6337013   -5.1271131 
C    -0.7616156   -1.0984612   -4.2297090 
C    -0.9306969    0.1988978   -3.6916864 
C    -2.0682101    0.9423710   -4.0820018 
C    -2.9922547    0.4096020   -4.9878727 
H    -3.5336151   -1.2926589   -6.2220068 
H    -1.5427902   -2.6422927   -5.5257443 
H     0.1085564   -1.6937127   -3.9302507 
H    -2.2232632    1.9553807   -3.6968273 
H    -3.8581866    1.0071164   -5.2915364 
C     1.0091071    5.9645050    1.1397757 
C    -0.1976804    5.3051207    0.8513607 
C    -0.1913792    4.1091366    0.1286440 
C     1.0240437    3.5500203   -0.3312501 
C     2.2324146    4.2035902   -0.0011017 
C     2.2241624    5.4049376    0.7191914 
H     1.0008759    6.9033847    1.7028115 
H    -1.1468196    5.7215094    1.2031931 
H    -1.1365371    3.5904818   -0.0670205 
H     3.1840423    3.7754942   -0.3363680 
H     3.1696804    5.9071559    0.9489619 
C    -1.5285810   -1.6200508    1.5372137 
C    -0.4173123   -1.1017235    2.4777776 
C    -2.7932626   -0.7472880    1.5509735 
C     0.4954815   -2.9878606   -0.1382691 
C    -2.1238978   -2.3401455   -1.2959016 
C     2.3145647   -0.1335775    2.0860303 
C     0.2529566    1.7995846    2.7681614 
C     0.4494365   -4.0816457    0.7511520 
C    -2.1795644   -3.6897357   -1.6992918 
C     1.5898040   -2.8648201   -1.0204937 
C    -3.0984705   -1.4295553   -1.7592549 
C     2.7652835   -0.2887688    3.4150337 
C     1.2997999    2.7121793    3.0196617 
C     3.1978867   -0.3808865    1.0183722 
C    -1.0456715    2.0888979    3.2378520 
C     1.4863597   -5.0254548    0.7625020 
C    -3.2186198   -4.1250242   -2.5334791 
C     2.6193133   -3.8142183   -1.0131015 
C    -4.1402262   -1.8751481   -2.5800697 
C     4.0835611   -0.6902925    3.6633815 
C     1.0516930    3.8786206    3.7532804 
C     4.5170279   -0.7833744    1.2719319 
C    -1.2855673    3.2586750    3.9702893 
C     2.5712197   -4.8931285   -0.1172902 
C    -4.2012625   -3.2226737   -2.9677528 
C     4.9593535   -0.9387090    2.5932184 
C    -0.2374513    4.1538727    4.2317591 
H    -1.8038326   -2.6466250    1.8404160 
H    -0.8361801   -0.7923721    3.4514086 
H     0.3254229   -1.8940599    2.6720796 
H    -2.5845108    0.2688375    1.1659477 
H    -3.5927241   -1.1875330    0.9338284 
H    -3.1730295   -0.6564533    2.5839726 
H    -0.3943804   -4.2073437    1.4375357 
H    -1.4133968   -4.3971780   -1.3656475 
H     1.6332338   -2.0146788   -1.7107911 
H    -3.0283860   -0.3701622   -1.4890095 
H     2.0895535   -0.0858493    4.2535285 
H     2.3090754    2.5085056    2.6498386 
H     2.8441569   -0.2627112   -0.0122148 
H    -1.8741432    1.4019434    3.0420184 
H     1.4441741   -5.8683728    1.4598826 
H    -3.2602401   -5.1742338   -2.8437889 
H     3.4631255   -3.7084044   -1.7025976 
H    -4.8916864   -1.1644266   -2.9366321 
H     4.4304070   -0.8077988    4.6952001 
H     1.8710176    4.5781327    3.9447432 
H     5.1983270   -0.9752087    0.4366902 
H    -2.2943184    3.4681131    4.3408657 
H     3.3792504   -5.6316780   -0.1043350 
H    -5.0104196   -3.5675889   -3.6196463 
H     5.9895811   -1.2513407    2.7924730 
H    -0.4262870    5.0663505    4.8063895 
