84
Energy =
C     0.2335701    0.7199960   -2.7407710 
C     0.2974149    1.9618931   -2.0495685 
C     1.3283905    2.2233609   -1.1099075 
H    -0.5620680    2.6413141   -2.0982724 
Pd    0.2002627    0.3641971   -0.5273037 
P     0.5921952    0.2150103    1.7667149 
P    -0.7555680   -1.7452275   -0.3211138 
H     1.1839354    0.1822469   -2.8799377 
H     2.2668311    1.6582889   -1.2224655 
C    -2.8673917   -0.5977914   -5.4196309 
C    -1.7943228   -1.4400427   -5.0898914 
C    -0.7959955   -0.9940894   -4.2189005 
C    -0.8491353    0.2996220   -3.6494392 
C    -1.9415309    1.1325228   -3.9835548 
C    -2.9344943    0.6897240   -4.8645251 
H    -3.6469179   -0.9422669   -6.1066250 
H    -1.7372178   -2.4484356   -5.5115155 
H     0.0367362   -1.6588612   -3.9623591 
H    -2.0098716    2.1448263   -3.5722084 
H    -3.7641777    1.3557613   -5.1234726 
C     1.6729621    5.6171779    1.5142246 
C     2.6406825    4.6013764    1.5162028 
C     2.5242993    3.5179820    0.6380728 
C     1.4292430    3.4173537   -0.2504656 
C     0.4712647    4.4577913   -0.2545165 
C     0.5940426    5.5446166    0.6175382 
H     1.7635406    6.4672538    2.1979594 
H     3.4932643    4.6546121    2.2014506 
H     3.2832819    2.7286203    0.6439628 
H    -0.3784459    4.4237838   -0.9445459 
H    -0.1547958    6.3433087    0.5963845 
C    -1.3051569   -1.8612173    1.4809050 
C    -0.0881802   -1.4434742    2.3313128 
C    -2.5494398   -0.9963359    1.7376290 
C     0.4981013   -3.0759171   -0.5001707 
C    -2.1835047   -2.2055170   -1.3577879 
C     2.3700981    0.1627719    2.2015510 
C    -0.1887800    1.4678473    2.8437589 
C     0.3827281   -4.3184245    0.1600646 
C    -3.1234398   -1.1946956   -1.6545884 
C     1.6230565   -2.8368935   -1.3180596 
C    -2.3618561   -3.5016958   -1.8822442 
C     3.1616229   -0.8470523    1.6088268 
C    -0.1197309    1.3729767    4.2510872 
C     2.9833609    1.1427652    3.0072238 
C    -0.8790270    2.5413071    2.2505734 
C     1.3753735   -5.2961150    0.0046542 
C    -4.2472385   -1.4890798   -2.4342365 
C     2.6115935   -3.8181070   -1.4751432 
C    -3.4857283   -3.7861795   -2.6697134 
C     4.5415579   -0.8857250    1.8398696 
C    -0.7330740    2.3484331    5.0473124 
C     4.3681286    1.0991358    3.2301586 
C    -1.4872184    3.5171255    3.0518975 
C     2.4896305   -5.0483204   -0.8118906 
C    -4.4299837   -2.7848067   -2.9414839 
C     5.1478724    0.0878083    2.6513140 
C    -1.4148805    3.4211157    4.4487516 
H    -1.5488157   -2.9180303    1.6929423 
H    -0.3528708   -1.3849984    3.4017202 
H     0.7323747   -2.1752182    2.2283784 
H    -2.3739774    0.0586878    1.4581600 
H    -3.4177959   -1.3647726    1.1677949 
H    -2.8038630   -1.0193507    2.8116832 
H    -0.4818206   -4.5322265    0.7971842 
H    -2.9609455   -0.1749696   -1.2873052 
H     1.7264070   -1.8705688   -1.8233270 
H    -1.6235279   -4.2852015   -1.6840153 
H     2.7014402   -1.6008011    0.9582668 
H     0.4206896    0.5465125    4.7266228 
H     2.3859020    1.9443196    3.4515644 
H    -0.9316138    2.6100178    1.1593291 
H     1.2767491   -6.2554544    0.5228992 
H    -4.9698477   -0.7003913   -2.6646606 
H     3.4790700   -3.6194195   -2.1128139 
H    -3.6218630   -4.7943226   -3.0745153 
H     5.1460397   -1.6754775    1.3818134 
H    -0.6775556    2.2730382    6.1381968 
H     4.8373691    1.8619417    3.8602664 
H    -2.0134018    4.3539642    2.5820669 
H     3.2629463   -5.8143098   -0.9295857 
H    -5.3042955   -3.0110924   -3.5603735 
H     6.2277641    0.0580424    2.8288859 
H    -1.8904266    4.1824258    5.0757295 
