84
Energy =
C     0.2635109    0.7676488   -2.8005121 
C     0.1092548    2.0210675   -2.1540484 
C     1.0243422    2.4397761   -1.1468483 
H    -0.8260232    2.5765892   -2.2922753 
Pd    0.1066569    0.4783372   -0.5786051 
P     0.4907892    0.3132661    1.7197940 
P    -0.8587718   -1.6191507   -0.2788390 
H     1.2731228    0.3264829   -2.7976122 
H     2.0502143    2.0481426   -1.2191000 
C    -2.3162439   -0.9963416   -5.7555270 
C    -1.2374015   -1.7167831   -5.2198807 
C    -0.4131228   -1.1286967   -4.2563733 
C    -0.6510014    0.1891912   -3.8002053 
C    -1.7476037    0.8985586   -4.3413967 
C    -2.5662877    0.3123268   -5.3131837 
H    -2.9587303   -1.4517609   -6.5159053 
H    -1.0402482   -2.7404077   -5.5531973 
H     0.4261636   -1.6963294   -3.8379817 
H    -1.9492655    1.9270335   -4.0246541 
H    -3.4005379    0.8831306   -5.7341975 
C     0.7184750    5.9572012    1.3170972 
C     1.8126415    5.0870037    1.4363868 
C     1.8948934    3.9495942    0.6276440 
C     0.8836348    3.6489846   -0.3142685 
C    -0.2196678    4.5278724   -0.4120848 
C    -0.2953212    5.6724769    0.3888404 
H     0.6550184    6.8518521    1.9446619 
H     2.6037853    5.2948541    2.1635606 
H     2.7523940    3.2746144    0.7279710 
H    -1.0210653    4.3298474   -1.1312212 
H    -1.1503779    6.3489282    0.2864447 
C    -1.7593968   -1.4218802    1.3702899 
C    -0.6996744   -0.9817849    2.4070855 
C    -2.9319591   -0.4369501    1.2546168 
C     0.3899055   -2.9152969    0.0717071 
C    -2.0568228   -2.2910673   -1.4775632 
C     2.1716970   -0.3451351    2.0611553 
C     0.3024884    1.7944184    2.7746107 
C     1.7163098   -2.7052286   -0.3574299 
C    -2.0491010   -3.6392073   -1.8901051 
C     0.0826376   -4.0710196    0.8229912 
C    -2.9994419   -1.3968868   -2.0320715 
C     2.4489717   -1.2102200    3.1391734 
C     1.2040970    2.0976774    3.8144015 
C     3.2208051    0.0311928    1.1966827 
C    -0.7814100    2.6584788    2.5130871 
C     2.7218222   -3.6261740   -0.0347410 
C    -2.9997399   -4.0912771   -2.8158490 
C     1.0904800   -4.9901679    1.1434167 
C    -3.9539963   -1.8594243   -2.9441410 
C     3.7477602   -1.7009402    3.3346448 
C     1.0010324    3.2398468    4.6017466 
C     4.5189924   -0.4537785    1.3989586 
C    -0.9800037    3.7937356    3.3063561 
C     2.4102746   -4.7666112    0.7190957 
C    -3.9569107   -3.2072927   -3.3353645 
C     4.7830386   -1.3266512    2.4654139 
C    -0.0908001    4.0843206    4.3529091 
H    -2.1498985   -2.4138892    1.6617832 
H    -1.1826170   -0.5698830    3.3093690 
H    -0.0904350   -1.8483335    2.7113272 
H    -2.5925555    0.5464686    0.8790623 
H    -3.7110479   -0.8154906    0.5736469 
H    -3.3901482   -0.2839083    2.2474802 
H     1.9618405   -1.8023521   -0.9283121 
H    -1.3018436   -4.3342049   -1.4944216 
H    -0.9422299   -4.2572774    1.1623386 
H    -2.9705446   -0.3354457   -1.7628542 
H     1.6582342   -1.5059343    3.8362454 
H     2.0625005    1.4463832    4.0082648 
H     3.0120559    0.6953280    0.3516315 
H    -1.4574797    2.4512012    1.6761157 
H     3.7502833   -3.4446500   -0.3618666 
H    -2.9911100   -5.1397203   -3.1313349 
H     0.8452573   -5.8828593    1.7280521 
H    -4.6812746   -1.1609671   -3.3687680 
H     3.9502001   -2.3763870    4.1721688 
H     1.7011505    3.4702348    5.4114479 
H     5.3235523   -0.1553487    0.7189294 
H    -1.8185423    4.4640668    3.0943693 
H     3.1960556   -5.4834760    0.9787626 
H    -4.6978355   -3.5654931   -4.0573908 
H     5.7955310   -1.7132191    2.6205383 
H    -0.2433822    4.9771704    4.9678541 
