84
Energy =
C     0.2101155    0.9455974   -2.6936253 
C     0.0953183    2.1306501   -1.9209597 
C     1.0604192    2.4449896   -0.9195366 
H    -0.8300642    2.7188751   -1.9663148 
Pd    0.1255683    0.4555835   -0.5019219 
P     0.4985302    0.1915910    1.7817037 
P    -0.7553461   -1.6920987   -0.3839011 
H     1.2176651    0.5078177   -2.7793481 
H     2.0871903    2.0853575   -1.0869097 
C    -2.5080915   -0.5068399   -5.6954265 
C    -1.3985916   -1.2697586   -5.2997425 
C    -0.5281959   -0.7825986   -4.3204443 
C    -0.7487014    0.4734599   -3.7080654 
C    -1.8758636    1.2261037   -4.1102695 
C    -2.7411562    0.7419742   -5.0978326 
H    -3.1874804   -0.8825486   -6.4671968 
H    -1.2131183   -2.2477111   -5.7548321 
H     0.3345325   -1.3846052   -4.0130972 
H    -2.0674375    2.2097772   -3.6694299 
H    -3.5993981    1.3467360   -5.4088780 
C     0.7762917    5.8692324    1.6673796 
C     2.0275197    5.3880301    1.2559973 
C     2.1100297    4.2524471    0.4399834 
C     0.9412537    3.5888335    0.0041780 
C    -0.3119232    4.0665990    0.4542589 
C    -0.3923887    5.1965941    1.2723331 
H     0.7101123    6.7562951    2.3055581 
H     2.9435028    5.9003383    1.5682806 
H     3.0898453    3.8863824    0.1125330 
H    -1.2282121    3.5343769    0.1752035 
H    -1.3700203    5.5498235    1.6151789 
C    -1.5516390   -1.7659179    1.3248456 
C    -0.4902332   -1.3125221    2.3523507 
C    -2.8313700   -0.9160638    1.3548186 
C     0.5639607   -2.9648300   -0.3613817 
C    -2.0130402   -2.2531008   -1.5806557 
C     2.2319590   -0.2554732    2.1739437 
C     0.0947406    1.5678769    2.9139910 
C     0.4710905   -4.1486608    0.4002644 
C    -2.9789600   -1.3163346   -2.0087738 
C     1.7170969   -2.7379182   -1.1419088 
C    -2.0348528   -3.5649821   -2.0960124 
C     2.6188566   -0.5307376    3.5036058 
C     1.1066502    2.4793972    3.2843680 
C     3.1768652   -0.3685947    1.1368563 
C    -1.2287799    1.7876634    3.3504956 
C     1.5187901   -5.0802141    0.3858331 
C    -3.9804789   -1.7020546   -2.9063318 
C     2.7586521   -3.6741364   -1.1600390 
C    -3.0332421   -3.9394117   -3.0059867 
C     3.9350285   -0.9189053    3.7823453 
C     0.7988088    3.5748507    4.1000752 
C     4.4939943   -0.7572933    1.4207551 
C    -1.5284040    2.8865939    4.1659624 
C     2.6623955   -4.8444719   -0.3922335 
C    -4.0088692   -3.0136305   -3.4051805 
C     4.8724587   -1.0334889    2.7421324 
C    -0.5154089    3.7803565    4.5442120 
H    -1.8203963   -2.8181447    1.5300952 
H    -0.9535525   -1.0986707    3.3314594 
H     0.2612903   -2.1056883    2.5059302 
H    -2.6249413    0.1317057    1.0652429 
H    -3.5951497   -1.3147119    0.6681418 
H    -3.2571411   -0.9177795    2.3737593 
H    -0.4178080   -4.3534097    1.0059659 
H    -2.9330092   -0.2822173   -1.6498581 
H     1.7964909   -1.8176433   -1.7318578 
H    -1.2739167   -4.2905899   -1.7907314 
H     1.8948732   -0.4316341    4.3203097 
H     2.1352727    2.3296072    2.9429479 
H     2.8729674   -0.1562565    0.1054361 
H    -2.0304363    1.1007167    3.0642871 
H     1.4393847   -5.9944801    0.9828794 
H    -4.7254085   -0.9711759   -3.2347543 
H     3.6490826   -3.4870354   -1.7688987 
H    -3.0484048   -4.9595536   -3.4033915 
H     4.2320777   -1.1301436    4.8147699 
H     1.5913242    4.2740244    4.3835568 
H     5.2236397   -0.8441474    0.6091358 
H    -2.5563976    3.0415069    4.5094630 
H     3.4788740   -5.5737650   -0.3993472 
H    -4.7865529   -3.3111934   -4.1160746 
H     5.9007850   -1.3361615    2.9651619 
H    -0.7509218    4.6375404    5.1831639 
