84
Energy =
C     0.9548931    0.3310507   -2.6865682 
C     1.0062226    1.6235141   -2.0852572 
C     1.9683054    1.9119413   -1.0819702 
H     0.1945117    2.3400901   -2.2644463 
Pd    0.6755625    0.1636130   -0.4822204 
P     0.5601984    0.3382153    1.8346711 
P    -0.4773145   -1.8282233   -0.2528654 
H     1.8974946   -0.2357103   -2.7249955 
H     2.9023957    1.3287905   -1.1066594 
C    -2.0276517   -1.1056695   -5.4435754 
C    -2.2344312    0.1082017   -4.7679496 
C    -1.2808254    0.5854794   -3.8622558 
C    -0.0827668   -0.1297951   -3.6284589 
C     0.1135452   -1.3485788   -4.3199541 
C    -0.8506040   -1.8351261   -5.2106425 
H    -2.7771877   -1.4784615   -6.1491902 
H    -3.1500806    0.6829557   -4.9409001 
H    -1.4755412    1.5226848   -3.3311518 
H     1.0317106   -1.9203584   -4.1506382 
H    -0.6776834   -2.7823945   -5.7316346 
C     2.2423997    5.4980020    1.2787417 
C     3.3927776    4.7630315    0.9568043 
C     3.2893808    3.5951014    0.1900282 
C     2.0363097    3.1551772   -0.2927511 
C     0.8861858    3.9129558    0.0296764 
C     0.9875553    5.0658046    0.8135306 
H     2.3197310    6.4033550    1.8894687 
H     4.3741790    5.0936249    1.3123719 
H     4.1886761    3.0138947   -0.0408224 
H    -0.0993703    3.5786324   -0.3085025 
H     0.0833255    5.6274675    1.0696625 
C    -0.1545471   -2.4268118    1.5116659 
C    -0.1725334   -1.2574626    2.5186674 
C    -1.0139223   -3.6224329    1.9494201 
C     0.0689982   -3.2396246   -1.2794243 
C    -2.2679367   -1.6013800   -0.5297869 
C     2.1261557    0.6225032    2.7261555 
C    -0.6285075    1.6204911    2.3827482 
C    -0.7918756   -4.2877291   -1.6651214 
C    -2.7740245   -1.7022832   -1.8449218 
C     1.4309227   -3.2884570   -1.6446102 
C    -3.1252876   -1.1668640    0.5054432 
C     2.9509164   -0.4663655    3.0838902 
C    -1.6426254    2.0063776    1.4811367 
C     2.5822718    1.9405371    2.9429938 
C    -0.6047969    2.1687245    3.6816308 
C    -0.2945392   -5.3582344   -2.4217092 
C    -4.1179086   -1.4051607   -2.1061049 
C     1.9249232   -4.3662218   -2.3905996 
C    -4.4673718   -0.8707044    0.2351746 
C     4.2006733   -0.2382699    3.6738900 
C    -2.6164557    2.9357080    1.8702604 
C     3.8330853    2.1587914    3.5363007 
C    -1.5756904    3.1056557    4.0613530 
C     1.0599355   -5.3986470   -2.7861881 
C    -4.9684137   -0.9929769   -1.0699604 
C     4.6423903    1.0743349    3.9044970 
C    -2.5792828    3.4911141    3.1583647 
H     0.8956194   -2.7650656    1.4011684 
H    -1.2045339   -1.0085568    2.8186780 
H     0.3636825   -1.5341040    3.4432774 
H    -2.0795485   -3.3484576    2.0250181 
H    -0.9211620   -4.4565142    1.2337835 
H    -0.6826069   -3.9853175    2.9381915 
H    -1.8493932   -4.2658357   -1.3829414 
H    -2.1205108   -2.0089405   -2.6676521 
H     2.1010336   -2.4718370   -1.3484104 
H    -2.7545709   -1.0502183    1.5268456 
H     2.6253497   -1.4970319    2.9031221 
H    -1.6642239    1.5749025    0.4723732 
H     1.9629908    2.7953418    2.6536713 
H     0.1726161    1.8711172    4.3930466 
H    -0.9689120   -6.1658918   -2.7243172 
H    -4.4940962   -1.4914521   -3.1304472 
H     2.9829690   -4.3966040   -2.6704909 
H    -5.1221136   -0.5434756    1.0493452 
H     4.8303843   -1.0882451    3.9560980 
H    -3.4006881    3.2293202    1.1648617 
H     4.1735076    3.1853742    3.7052998 
H    -1.5497523    3.5340953    5.0686033 
H     1.4425253   -6.2364933   -3.3780477 
H    -6.0184498   -0.7635803   -1.2782664 
H     5.6178803    1.2496707    4.3694226 
H    -3.3344533    4.2239214    3.4610556 
