84
Energy =
C     0.1988218    0.7990785   -2.7965171 
C     0.0492248    2.0431338   -2.1309865 
C     0.9820447    2.4574368   -1.1386596 
H    -0.8932468    2.5925570   -2.2416987 
Pd    0.0933779    0.4809063   -0.5755391 
P     0.5211050    0.2969865    1.7138872 
P    -0.8429071   -1.6304431   -0.2832983 
H     1.2117738    0.3665049   -2.8228393 
H     2.0091940    2.0747012   -1.2363626 
C    -2.4322403   -0.9427483   -5.7193912 
C    -1.3314831   -1.6590390   -5.2244343 
C    -0.4908766   -1.0786451   -4.2703888 
C    -0.7336720    0.2271921   -3.7833071 
C    -1.8525794    0.9320546   -4.2832344 
C    -2.6877142    0.3538305   -5.2456651 
H    -3.0876557   -1.3919743   -6.4723790 
H    -1.1297118   -2.6734351   -5.5822938 
H     0.3659109   -1.6429454   -3.8842941 
H    -2.0598253    1.9513028   -3.9413695 
H    -3.5394725    0.9215184   -5.6346153 
C     0.6986204    5.9463300    1.3684421 
C     1.7979446    5.0794847    1.4620191 
C     1.8729615    3.9514038    0.6395885 
C     0.8491250    3.6568382   -0.2905330 
C    -0.2589032    4.5322243   -0.3625724 
C    -0.3274732    5.6676157    0.4519865 
H     0.6408011    6.8337712    2.0066964 
H     2.5988219    5.2826317    2.1798097 
H     2.7345003    3.2789584    0.7201199 
H    -1.0696680    4.3392357   -1.0724883 
H    -1.1865663    6.3416535    0.3694082 
C    -1.7109513   -1.4656145    1.3870562 
C    -0.6338502   -1.0271596    2.4063567 
C    -2.8978665   -0.4943367    1.3109101 
C     0.4266925   -2.9167943    0.0264010 
C    -2.0565168   -2.3010309   -1.4669975 
C     2.2176662   -0.3359835    2.0240709 
C     0.3234431    1.7654257    2.7850165 
C     0.1429606   -4.0907903    0.7585447 
C    -3.0252378   -1.4129619   -1.9852967 
C     1.7453495   -2.6809231   -0.4128813 
C    -2.0352778   -3.6410214   -1.9050080 
C     2.5258541   -1.1990323    3.0954352 
C    -0.7714743    2.6202197    2.5397947 
C     3.2460608    0.0563072    1.1421026 
C     1.2294151    2.0686988    3.8210738 
C     1.1661810   -5.0025498    1.0498964 
C    -3.9909637   -1.8747382   -2.8859073 
C     2.7666230   -3.5939560   -0.1181096 
C    -2.9978757   -4.0921485   -2.8187682 
C     3.8346250   -1.6716696    3.2673560 
C    -0.9762652    3.7458940    3.3451084 
C     4.5541045   -0.4114179    1.3202341 
C     1.0203017    3.2014111    4.6203310 
C     2.4783687   -4.7529036    0.6164427 
C    -3.9801398   -3.2151181   -3.3018946 
C     4.8490333   -1.2820587    2.3803861 
C    -0.0822819    4.0364538    4.3875042 
H    -2.0823452   -2.4664696    1.6732434 
H    -1.1014897   -0.6390989    3.3271339 
H    -0.0041180   -1.8893084    2.6799671 
H    -2.5795962    0.4979882    0.9405733 
H    -3.6877236   -0.8742790    0.6432707 
H    -3.3349063   -0.3595715    2.3158839 
H    -0.8755151   -4.2971871    1.1055241 
H    -3.0083253   -0.3561969   -1.6973792 
H     1.9724394   -1.7646184   -0.9698294 
H    -1.2682910   -4.3304421   -1.5385291 
H     1.7514653   -1.5071919    3.8054101 
H    -1.4511475    2.4137864    1.7055371 
H     3.0131345    0.7186225    0.3019644 
H     2.0966033    1.4254775    4.0022617 
H     0.9390472   -5.9098039    1.6192041 
H    -4.7381361   -1.1808452   -3.2825269 
H     3.7890474   -3.3920131   -0.4521261 
H    -2.9787030   -5.1344250   -3.1536170 
H     4.0612590   -2.3452344    4.1001873 
H    -1.8234839    4.4090744    3.1455296 
H     5.3422116   -0.1012808    0.6263235 
H     1.7243248    3.4320889    5.4265527 
H     3.2763284   -5.4640434    0.8537351 
H    -4.7300055   -3.5724310   -4.0150630 
H     5.8693146   -1.6549468    2.5168150 
H    -0.2395994    4.9220283    5.0117052 
