84
Energy =
C     0.4261115    0.5819860   -2.7538448 
C     0.2205337    1.8714822   -2.1883060 
C     1.1724996    2.4241585   -1.2846340 
H    -0.7493326    2.3701166   -2.3095972 
Pd    0.3931399    0.4623896   -0.5224028 
P     0.5062203    0.6045600    1.7886552 
P    -0.4415138   -1.6866824   -0.2022753 
H     1.4721004    0.2555520   -2.8621051 
H     2.2171263    2.0942354   -1.3999267 
C    -2.3078118   -1.6026686   -5.2572634 
C    -0.9644131   -1.9912203   -5.1518601 
C    -0.0897404   -1.2744693   -4.3262733 
C    -0.5388217   -0.1542297   -3.5900459 
C    -1.9027600    0.2079024   -3.6854523 
C    -2.7727620   -0.5036676   -4.5162793 
H    -2.9924139   -2.1562036   -5.9080729 
H    -0.5930230   -2.8492223   -5.7218148 
H     0.9610982   -1.5769644   -4.2563392 
H    -2.2903100    1.0506002   -3.1043504 
H    -3.8236393   -0.2047887   -4.5806925 
C     0.7204379    6.2259529    0.6732309 
C    -0.4130073    5.4350543    0.4195887 
C    -0.2778729    4.1864555   -0.1927011 
C     0.9960295    3.7033917   -0.5738854 
C     2.1301683    4.4937605   -0.2804392 
C     1.9925920    5.7478034    0.3278784 
H     0.6109262    7.2052466    1.1501953 
H    -1.4056592    5.7909856    0.7128927 
H    -1.1664159    3.5680345   -0.3622763 
H     3.1257906    4.1289497   -0.5578010 
H     2.8815859    6.3544789    0.5294981 
C    -0.6253608   -1.9690651    1.6724859 
C    -0.7783876   -0.6095127    2.3872342 
C    -1.7375030   -2.9478578    2.0803855 
C     0.5995903   -3.0695922   -0.7982110 
C    -2.1111667   -1.8829790   -0.9245576 
C     2.0607200   -0.0459174    2.5097438 
C     0.1720575    2.1787615    2.6449058 
C     0.2622051   -4.4250052   -0.5874958 
C    -3.0917011   -0.9299172   -0.5654699 
C     1.8042587   -2.7589051   -1.4619604 
C    -2.4371983   -2.8937802   -1.8479142 
C     2.3155542    0.0500354    3.8946658 
C     1.2386258    3.0856879    2.8312466 
C     2.9784695   -0.7167377    1.6770375 
C    -1.1296465    2.5489283    3.0433856 
C     1.1170370   -5.4416877   -1.0334068 
C    -4.3890414   -1.0204281   -1.0826512 
C     2.6566174   -3.7782020   -1.9077097 
C    -3.7355124   -2.9708922   -2.3722215 
C     3.4748628   -0.5230396    4.4325553 
C     1.0077213    4.3261763    3.4354165 
C     4.1345554   -1.2938627    2.2216536 
C    -1.3525091    3.7937334    3.6476226 
C     2.3137901   -5.1209552   -1.6931020 
C    -4.7147088   -2.0466673   -1.9838634 
C     4.3828430   -1.1964678    3.5984391 
C    -0.2856406    4.6816257    3.8475507 
H     0.3614588   -2.3937945    1.9413981 
H    -1.7766774   -0.1813136    2.1844014 
H    -0.6838829   -0.7339878    3.4811707 
H    -2.7299796   -2.5705148    1.7810122 
H    -1.5980895   -3.9405362    1.6240513 
H    -1.7339089   -3.0810508    3.1765064 
H    -0.6722321   -4.6932239   -0.0855394 
H    -2.8344860   -0.1060109    0.1106887 
H     2.0701128   -1.7091339   -1.6284446 
H    -1.6791334   -3.6108047   -2.1744878 
H     1.6135957    0.5803139    4.5480159 
H     2.2505942    2.8160523    2.5119336 
H     2.7816421   -0.7862324    0.6008241 
H    -1.9752289    1.8698225    2.8953986 
H     0.8458759   -6.4890915   -0.8660288 
H    -5.1443671   -0.2835547   -0.7905463 
H     3.5883407   -3.5229509   -2.4229623 
H    -3.9769523   -3.7560235   -3.0957704 
H     3.6714634   -0.4438883    5.5067509 
H     1.8407882    5.0213617    3.5765824 
H     4.8417967   -1.8157587    1.5689546 
H    -2.3636429    4.0675371    3.9660117 
H     2.9781059   -5.9190001   -2.0401892 
H    -5.7275619   -2.1149186   -2.3937482 
H     5.2874446   -1.6426258    4.0243576 
H    -0.4624715    5.6528721    4.3205936 
