84
Energy =
C     0.2316732    0.7191714   -2.7425860 
C     0.3003770    1.9612362   -2.0518093 
C     1.3339819    2.2203093   -1.1146512 
H    -0.5574624    2.6428738   -2.0984803 
Pd    0.2012583    0.3638049   -0.5297938 
P     0.5916715    0.2155868    1.7652558 
P    -0.7537420   -1.7461468   -0.3236413 
H     1.1805798    0.1798175   -2.8852676 
H     2.2700396    1.6513601   -1.2275881 
C    -2.8798221   -0.5914515   -5.4127460 
C    -1.8048305   -1.4341129   -5.0904467 
C    -0.8032684   -0.9906255   -4.2218896 
C    -0.8547018    0.3011827   -3.6479734 
C    -1.9490875    1.1344673   -3.9745671 
C    -2.9455477    0.6940049   -4.8527179 
H    -3.6619976   -0.9340546   -6.0976582 
H    -1.7487924   -2.4409509   -5.5159046 
H     0.0309786   -1.6557218   -3.9710993 
H    -2.0165802    2.1451379   -3.5590915 
H    -3.7769082    1.3602696   -5.1056287 
C     1.6884904    5.6109539    1.5119906 
C     2.6476934    4.5870910    1.5207265 
C     2.5289662    3.5052007    0.6411404 
C     1.4396319    3.4140594   -0.2554218 
C     0.4908021    4.4627799   -0.2667821 
C     0.6160915    5.5481506    0.6068198 
H     1.7808650    6.4597723    2.1970441 
H     3.4953236    4.6326377    2.2126184 
H     3.2810505    2.7093337    0.6526156 
H    -0.3532067    4.4367186   -0.9641044 
H    -0.1254974    6.3534089    0.5800143 
C    -1.3022833   -1.8633557    1.4786312 
C    -0.0851611   -1.4447055    2.3282454 
C    -2.5472746   -0.9999939    1.7370087 
C     0.5015074   -3.0751874   -0.5035490 
C    -2.1819671   -2.2082472   -1.3591225 
C     2.3682383    0.1672444    2.2060450 
C    -0.1952965    1.4670560    2.8396828 
C     1.6268716   -2.8337665   -1.3201612 
C    -2.3575204   -3.5038117   -1.8860259 
C     0.3870106   -4.3186886    0.1549658 
C    -3.1256779   -1.1996811   -1.6516035 
C     3.1658599   -0.8332790    1.6058674 
C    -0.8716331    2.5477487    2.2434993 
C     2.9741138    1.1398309    3.0260389 
C    -0.1429582    1.3656976    4.2472522 
C     2.6168557   -3.8134869   -1.4774470 
C    -3.4826130   -3.7902155   -2.6710523 
C     1.3812670   -5.2947423   -0.0003751 
C    -4.2505402   -1.4959688   -2.4289908 
C     4.5447250   -0.8703197    1.8435654 
C    -1.4823011    3.5241956    3.0421397 
C     4.3578340    1.0979502    3.2556527 
C    -0.7594822    2.3413967    5.0407728 
C     2.4960524   -5.0444720   -0.8154423 
C    -4.4307175   -2.7912671   -2.9382474 
C     5.1437124    0.0957357    2.6692791 
C    -1.4271798    3.4212704    4.4393020 
H    -1.5444942   -2.9205788    1.6902992 
H    -0.3485312   -1.3892187    3.3991278 
H     0.7369889   -2.1743414    2.2227651 
H    -2.3736025    0.0552360    1.4571644 
H    -3.4160502   -1.3696839    1.1686546 
H    -2.7999729   -1.0231541    2.8114703 
H     1.7292371   -1.8667688   -1.8243769 
H    -1.6162434   -4.2854197   -1.6913870 
H    -0.4781147   -4.5345047    0.7906232 
H    -2.9654902   -0.1802063   -1.2826689 
H     2.7109658   -1.5811829    0.9448472 
H    -0.9112078    2.6218701    1.1520939 
H     2.3717957    1.9344735    3.4762209 
H     0.3869232    0.5340107    4.7254780 
H     3.4845208   -3.6130625   -2.1143179 
H    -3.6166900   -4.7979685   -3.0775059 
H     1.2835070   -6.2547676    0.5167579 
H    -4.9761470   -0.7090320   -2.6559643 
H     5.1541136   -1.6528967    1.3797363 
H    -1.9971768    4.3667197    2.5699522 
H     4.8214399    1.8549173    3.8968673 
H    -0.7173384    2.2605872    6.1318672 
H     3.2705957   -5.8092214   -0.9331088 
H    -5.3060279   -3.0190474   -3.5551683 
H     6.2227696    0.0673317    2.8520582 
H    -1.9052420    4.1827068    5.0642062 
