84
Energy =
C     0.6615510    0.5394397   -2.7321601 
C     0.5682786    1.8260047   -2.1399526 
C     1.4204533    2.1946470   -1.0578409 
H    -0.2782645    2.4774576   -2.3915505 
Pd    0.2401087    0.3670715   -0.5323173 
P     0.2803485    0.3909087    1.7962222 
P    -0.8708540   -1.6591777   -0.2751350 
H     1.6210838    0.0103642   -2.6157132 
H     2.4186431    1.7313565   -1.0296174 
C    -1.7734710   -1.0829281   -5.8860082 
C    -0.8168991   -1.8769084   -5.2346377 
C    -0.0370046   -1.3329948   -4.2100664 
C    -0.1987375    0.0132426   -3.8065865 
C    -1.1726467    0.7978690   -4.4658011 
C    -1.9460963    0.2552127   -5.4982055 
H    -2.3807280   -1.5041242   -6.6935913 
H    -0.6807700   -2.9233095   -5.5251151 
H     0.7055680   -1.9591236   -3.7022060 
H    -1.3118646    1.8486606   -4.1915624 
H    -2.6836396    0.8830049   -6.0090631 
C     1.1524098    5.9566090    1.0095707 
C    -0.0173454    5.3361567    0.5395284 
C     0.0531209    4.1008440   -0.1098727 
C     1.2987735    3.4615104   -0.3120661 
C     2.4623268    4.0786181    0.1994393 
C     2.3907864    5.3195644    0.8452298 
H     1.0946744    6.9262712    1.5145012 
H    -0.9900119    5.8145620    0.6918151 
H    -0.8685887    3.6144028   -0.4485596 
H     3.4337381    3.5893350    0.0646378 
H     3.3058305    5.7917474    1.2177067 
C    -1.8857558   -1.4263776    1.2984314 
C    -0.9232415   -0.9318781    2.4015800 
C    -3.0620070   -0.4718319    1.0414138 
C     0.2895205   -3.0289990    0.0971920 
C    -2.0150178   -2.2649285   -1.5609250 
C     1.8930072   -0.1403402    2.4861590 
C    -0.1242651    1.9394898    2.6782441 
C     1.5639243   -3.0026665   -0.5071460 
C    -2.1060583   -3.6269105   -1.9125931 
C    -0.0410598   -4.0960259    0.9590768 
C    -2.8136941   -1.3136793   -2.2326112 
C     2.9528482   -0.4643080    1.6185008 
C     0.9197977    2.8060321    3.0672048 
C     2.0698948   -0.2662238    3.8812074 
C    -1.4631661    2.3269298    2.8966611 
C     2.4919236   -4.0206808   -0.2539116 
C    -3.0108503   -4.0317873   -2.9037656 
C     0.8925791   -5.1097849    1.2158185 
C    -3.7238689   -1.7276161   -3.2111267 
C     4.1762364   -0.9146112    2.1352853 
C     0.6239920    4.0254330    3.6882350 
C     3.2929742   -0.7168185    4.3927982 
C    -1.7504838    3.5491921    3.5179992 
C     2.1585436   -5.0731620    0.6116707 
C    -3.8238596   -3.0866755   -3.5470740 
C     4.3457681   -1.0420663    3.5211752 
C    -0.7081882    4.3990987    3.9171062 
H    -2.2877877   -2.4129849    1.5925783 
H    -1.4831190   -0.5500286    3.2733552 
H    -0.2834800   -1.7592656    2.7532122 
H    -2.7110665    0.5043818    0.6566962 
H    -3.7684979   -0.8926291    0.3081848 
H    -3.6137287   -0.2970919    1.9820058 
H     1.8274674   -2.1735702   -1.1737399 
H    -1.4711026   -4.3686286   -1.4172387 
H    -1.0274733   -4.1452808    1.4320472 
H    -2.7075552   -0.2486483   -1.9984089 
H     2.8119985   -0.3663073    0.5361210 
H     1.9627420    2.5252265    2.8927288 
H     1.2562228   -0.0022377    4.5661723 
H    -2.2877152    1.6764752    2.5911651 
H     3.4783859   -3.9891263   -0.7276672 
H    -3.0803653   -5.0908031   -3.1730178 
H     0.6287263   -5.9320536    1.8888166 
H    -4.3387301   -0.9853382   -3.7288097 
H     4.9963312   -1.1653328    1.4546442 
H     1.4410235    4.6885781    3.9881777 
H     3.4270755   -0.8121297    5.4752594 
H    -2.7926230    3.8351262    3.6939883 
H     2.8853720   -5.8658407    0.8165121 
H    -4.5286252   -3.4078916   -4.3208854 
H     5.3007952   -1.3925556    3.9259722 
H    -0.9345376    5.3528587    4.4045017 
