84
Energy =
C     0.5475037    0.6350948   -2.7888959 
C     0.3731975    1.9184941   -2.2100749 
C     1.2040567    2.3547659   -1.1394939 
H    -0.5281550    2.4923894   -2.4568949 
Pd    0.1794597    0.4439326   -0.5813081 
P     0.3459821    0.3693466    1.7477212 
P    -0.8713281   -1.6136134   -0.2935679 
H     1.5383415    0.1670594   -2.6738781 
H     2.2194670    1.9326182   -1.0998980 
C    -1.8020013   -1.1818862   -5.8994894 
C    -0.8047288   -1.9101097   -5.2322604 
C    -0.0550012   -1.3041168   -4.2201935 
C    -0.2882799    0.0401494   -3.8460681 
C    -1.3027025    0.7577943   -4.5202655 
C    -2.0460955    0.1530431   -5.5401302 
H    -2.3854627   -1.6518206   -6.6976620 
H    -0.6132420   -2.9536518   -5.5008581 
H     0.7200418   -1.8776342   -3.6986493 
H    -1.4960802    1.8058938   -4.2694820 
H    -2.8158051    0.7295681   -6.0637432 
C     0.7819584    5.9812217    1.1427137 
C     1.8282770    5.0834294    1.4035075 
C     1.9494947    3.9110263    0.6516013 
C     1.0251749    3.6023453   -0.3734096 
C    -0.0315788    4.5103322   -0.6145663 
C    -0.1453214    5.6893785    0.1300261 
H     0.6886037    6.9028372    1.7259225 
H     2.5514231    5.2972356    2.1967677 
H     2.7687219    3.2144445    0.8629077 
H    -0.7648195    4.3075063   -1.4019237 
H    -0.9620645    6.3870526   -0.0828287 
C    -1.9038833   -1.3335644    1.2639556 
C    -0.9235802   -0.8825520    2.3714679 
C    -3.0356691   -0.3261090    1.0143977 
C     0.2997636   -2.9321814    0.2080147 
C    -1.9824751   -2.2910059   -1.5705095 
C     1.9731169   -0.2958535    2.2807076 
C     0.0802406    1.8993737    2.7127988 
C     1.6676336   -2.7673142   -0.0906106 
C    -1.9844806   -3.6519117   -1.9387211 
C    -0.1132122   -4.0605704    0.9503037 
C    -2.8415302   -1.3872835   -2.2345063 
C     2.1286559   -1.0954501    3.4316629 
C     0.8679728    2.2308695    3.8333129 
C     3.1057352    0.0027607    1.4952279 
C    -0.9450317    2.7732100    2.2946626 
C     2.6097465   -3.7057061    0.3514632 
C    -2.8650365   -4.1053593   -2.9306956 
C     0.8311881   -4.9982525    1.3885715 
C    -3.7268520   -1.8503417   -3.2135782 
C     3.3913400   -1.5975342    3.7771980 
C     0.6082754    3.4118219    4.5429160 
C     4.3672399   -0.4942120    1.8463589 
C    -1.2016535    3.9472667    3.0111700 
C     2.1925343   -4.8195136    1.0938735 
C    -3.7416286   -3.2100582   -3.5610445 
C     4.5106732   -1.3009485    2.9854422 
C    -0.4270800    4.2666954    4.1372973 
H    -2.3438653   -2.3049308    1.5549641 
H    -1.4698777   -0.4372618    3.2202952 
H    -0.3574330   -1.7508387    2.7463011 
H    -2.6400034    0.6340754    0.6338460 
H    -3.7647806   -0.7116967    0.2838465 
H    -3.5709105   -0.1242216    1.9587841 
H     1.9941850   -1.8859889   -0.6543696 
H    -1.2985102   -4.3560137   -1.4575510 
H    -1.1715016   -4.2112513    1.1902109 
H    -2.8002458   -0.3186425   -1.9967693 
H     1.2699466   -1.3304842    4.0690768 
H     1.6833479    1.5723504    4.1494493 
H     2.9916816    0.6144878    0.5944365 
H    -1.5278998    2.5425605    1.3960193 
H     3.6704380   -3.5588136    0.1251761 
H    -2.8646044   -5.1637346   -3.2111480 
H     0.5037756   -5.8699499    1.9645438 
H    -4.3889928   -1.1442346   -3.7235643 
H     3.4994828   -2.2211804    4.6705040 
H     1.2203080    3.6646641    5.4148817 
H     5.2376862   -0.2567957    1.2260785 
H    -1.9939590    4.6242872    2.6776295 
H     2.9278959   -5.5503277    1.4458590 
H    -4.4278239   -3.5691922   -4.3348356 
H     5.4945444   -1.6968892    3.2572537 
H    -0.6239241    5.1896203    4.6923183 
