84
Energy =
C     0.1489444    0.7321504   -2.7596137 
C     0.0881815    1.9755572   -2.0773819 
C     1.0896535    2.3374960   -1.1295178 
H    -0.8219895    2.5851492   -2.1431428 
Pd    0.1158875    0.4115004   -0.5364390 
P     0.5468330    0.3137830    1.7499668 
P    -0.8059254   -1.6994315   -0.2298184 
H     1.1418613    0.2613659   -2.8399898 
H     2.1008839    1.9352098   -1.2947848 
C    -2.6908530   -0.8606222   -5.5719545 
C    -1.5866502   -1.6203354   -5.1558976 
C    -0.6766472   -1.0872327   -4.2384454 
C    -0.8511426    0.2130131   -3.7091737 
C    -1.9740074    0.9620449   -4.1298339 
C    -2.8790123    0.4314307   -5.0560040 
H    -3.4009821   -1.2724004   -6.2961976 
H    -1.4361234   -2.6315316   -5.5466722 
H     0.1822089   -1.6865800   -3.9154219 
H    -2.1314958    1.9777674   -3.7528770 
H    -3.7332959    1.0332185   -5.3833116 
C     0.9785957    5.9579827    1.1891442 
C    -0.2203025    5.2959013    0.8751477 
C    -0.1964061    4.1039371    0.1462067 
C     1.0292486    3.5515859   -0.2942411 
C     2.2290211    4.2075874    0.0615499 
C     2.2031840    5.4050474    0.7878647 
H     0.9566225    6.8937073    1.7570372 
H    -1.1772375    5.7069951    1.2117612 
H    -1.1358629    3.5828465   -0.0694226 
H     3.1881715    3.7847134   -0.2585674 
H     3.1424790    5.9094000    1.0375972 
C    -1.5563578   -1.6251676    1.4993145 
C    -0.4594264   -1.1168749    2.4618766 
C    -2.8181997   -0.7483811    1.4960409 
C     0.4898261   -2.9939506   -0.1455830 
C    -2.1051368   -2.3238918   -1.3478970 
C     2.2800039   -0.1453564    2.1289754 
C     0.2061441    1.7829902    2.7815528 
C     0.4081758   -4.1040223    0.7210520 
C    -2.1635304   -3.6706137   -1.7602665 
C     1.6133813   -2.8610932   -0.9885907 
C    -3.0647243   -1.4035138   -1.8231397 
C     2.7019910   -0.3164977    3.4654184 
C     1.2484613    2.6940399    3.0563807 
C     3.1881534   -0.3732907    1.0779908 
C    -1.1005330    2.0701150    3.2296969 
C     1.4384107   -5.0547307    0.7480502 
C    -3.1910998   -4.0934544   -2.6148565 
C     2.6367171   -3.8169875   -0.9653867 
C    -4.0950958   -1.8365675   -2.6647243 
C     4.0164429   -0.7150778    3.7375494 
C     0.9874651    3.8568304    3.7912888 
C     4.5035851   -0.7722913    1.3553136 
C    -1.3533016    3.2362440    3.9636322 
C     2.5524533   -4.9126731   -0.0930142 
C    -4.1593761   -3.1814482   -3.0610104 
C     4.9171806   -0.9439492    2.6838630 
C    -0.3099700    4.1299794    4.2480882 
H    -1.8400725   -2.6525346    1.7917733 
H    -0.8930287   -0.8151026    3.4314355 
H     0.2785426   -1.9126310    2.6607091 
H    -2.5996162    0.2692893    1.1207020 
H    -3.6079867   -1.1824450    0.8622818 
H    -3.2159687   -0.6623231    2.5226604 
H    -0.4583980   -4.2367979    1.3771286 
H    -1.4082718   -4.3856307   -1.4180904 
H     1.6844266   -1.9982333   -1.6605960 
H    -2.9915027   -0.3462043   -1.5455568 
H     2.0069648   -0.1279898    4.2914191 
H     2.2642077    2.4919176    2.7037597 
H     2.8567990   -0.2422345    0.0415339 
H    -1.9254272    1.3842618    3.0159507 
H     1.3683435   -5.9105866    1.4271909 
H    -3.2349184   -5.1405448   -2.9319440 
H     3.5037536   -3.7031845   -1.6240901 
H    -4.8347255   -1.1181810   -3.0305703 
H     4.3408680   -0.8453292    4.7751143 
H     1.8033651    4.5551083    4.0010348 
H     5.2045225   -0.9484995    0.5329664 
H    -2.3684773    3.4439940    4.3172282 
H     3.3551397   -5.6567205   -0.0679654 
H    -4.9595872   -3.5166808   -3.7288046 
H     5.9444325   -1.2539524    2.9017157 
H    -0.5088673    5.0396131    4.8238311 
