87
Energy =
C     1.4994999   -0.6984605   -2.4106045 
C     2.0957740    0.4917191   -1.9112054 
C     2.7800657    0.5012977   -0.6634123 
H     1.8597917    1.4488035   -2.3921343 
Pd    0.6695955   -0.1982707   -0.3842795 
P     0.1988462    0.5186914    1.7677580 
P    -1.3737972   -1.2985585   -0.3261028 
H     1.9178950   -1.6569246   -2.0661671 
H     3.2440410   -0.4470486   -0.3508835 
C    -1.0890780   -1.0402434   -5.8355034 
C    -0.7615899   -2.1653629   -5.0640644 
C     0.1047566   -2.0429942   -3.9720188 
C     0.6504687   -0.7881801   -3.6149637 
C     0.3263053    0.3343646   -4.4129752 
C    -0.5323561    0.2076897   -5.5103764 
H    -1.7634471   -1.1353827   -6.6926018 
H    -1.1807575   -3.1456810   -5.3130789 
H     0.3528360   -2.9267226   -3.3747693 
H     0.7493919    1.3175937   -4.1815957 
H    -0.7652557    1.0871414   -6.1200062 
C     4.3330579    3.9339434    1.4167168 
C     4.7242511    2.6369533    1.7796125 
C     4.2119917    1.5316723    1.0904710 
C     3.2961475    1.6974307    0.0262476 
C     2.8999111    3.0108597   -0.3170268 
C     3.4187648    4.1143771    0.3661471 
H     4.7350031    4.8009405    1.9508649 
H     5.4364202    2.4849786    2.5972886 
H     4.5310943    0.5224907    1.3726301 
H     2.1737105    3.1747935   -1.1194370 
H     3.1002023    5.1227210    0.0842949 
C    -1.5983056    0.0104526    2.1594064 
C    -1.8759280   -1.3726399    1.5017448 
C    -2.6321595    1.0872109    1.7920231 
C    -1.1689316   -2.5310377    2.2263105 
C     0.3135348    2.3414529    1.9029960 
C     1.1828326   -0.1869057    3.1429312 
C    -1.2960748   -3.0136231   -0.9691082 
C    -2.7598836   -0.4887202   -1.2047456 
C    -0.2752906    3.1076250    0.8703173 
C     0.8264317    0.0272132    4.4922923 
C    -2.2791617   -3.5519774   -1.8223908 
C    -4.1112701   -0.7852223   -0.9240894 
C     1.0177624    2.9967557    2.9315772 
C     2.3030991   -0.9871534    2.8445963 
C    -0.1383935   -3.7720043   -0.6816510 
C    -2.4497660    0.4513474   -2.2073846 
C    -0.2136683    4.5050998    0.9038375 
C     1.5880217   -0.5444479    5.5204412 
C    -2.1122077   -4.8351929   -2.3644738 
C    -5.1322777   -0.1431028   -1.6373156 
C     1.0914695    4.3968722    2.9483902 
C     3.0613558   -1.5593609    3.8751078 
C     0.0189587   -5.0551412   -1.2181861 
C    -3.4743602    1.0851148   -2.9231084 
C     0.4655932    5.1529257    1.9475293 
C     2.7055407   -1.3368197    5.2135046 
C    -0.9685480   -5.5885617   -2.0634134 
C    -4.8155212    0.7917039   -2.6364170 
H    -1.6287626   -0.1382760    3.2544352 
H    -2.9666348   -1.5495257    1.5343369 
H    -2.4630915    2.0117870    2.3662307 
H    -3.6440878    0.7129278    2.0274357 
H    -2.6180743    1.3405128    0.7196922 
H    -1.4827848   -3.5066628    1.8223379 
H    -0.0699693   -2.4618254    2.1454085 
H    -1.4206216   -2.5021668    3.3008855 
H    -0.7762855    2.6050252    0.0347420 
H    -0.0416224    0.6460644    4.7462655 
H    -3.1643852   -2.9649699   -2.0842102 
H    -4.3738226   -1.5180473   -0.1531648 
H     1.5228053    2.4202565    3.7116407 
H     2.5686708   -1.1685482    1.7979294 
H     0.6500097   -3.3453526   -0.0503326 
H    -1.4020407    0.6747340   -2.4324215 
H    -0.6854569    5.0892394    0.1069463 
H     1.3069292   -0.3719215    6.5644309 
H    -2.8788796   -5.2431587   -3.0312539 
H    -6.1788430   -0.3748932   -1.4142304 
H     1.6466175    4.8967217    3.7485888 
H     3.9285611   -2.1821943    3.6326785 
H     0.9177706   -5.6359958   -0.9871611 
H    -3.2212249    1.8061843   -3.7069276 
H     0.5206199    6.2461768    1.9706292 
H     3.2962811   -1.7843176    6.0193461 
H    -0.8409283   -6.5878072   -2.4921084 
H    -5.6171422    1.2895376   -3.1916958 
