87
Energy =
C     1.5526432   -0.2680534   -2.6278365 
C     2.0605687    0.8955877   -1.9834994 
C     2.7663455    0.7904899   -0.7526298 
H     1.7598921    1.8834934   -2.3545904 
Pd    0.7101513   -0.0658447   -0.5523530 
P     0.2799712    0.3284033    1.6922657 
P    -1.3761474   -1.0705527   -0.6154206 
H     2.0834389   -1.2137324   -2.4354818 
H     3.2965928   -0.1576366   -0.5734284 
C    -0.6675661   -0.2010381   -6.3090325 
C    -0.8056560    0.8566599   -5.3942958 
C    -0.1139135    0.8335847   -4.1806510 
C     0.7422403   -0.2455063   -3.8582251 
C     0.8424538   -1.3197063   -4.7711150 
C     0.1519789   -1.2929727   -5.9892989 
H    -1.2078010   -0.1778902   -7.2609753 
H    -1.4663594    1.6980187   -5.6261009 
H    -0.2492026    1.6527698   -3.4657041 
H     1.4917055   -2.1695604   -4.5313345 
H     0.2583202   -2.1254727   -6.6926819 
C     4.2001933    4.0296784    1.6901221 
C     4.6607598    2.7204928    1.8915234 
C     4.1786981    1.6767395    1.0924555 
C     3.2272358    1.9192627    0.0753448 
C     2.7530598    3.2405068   -0.0976512 
C     3.2414670    4.2827998    0.6952228 
H     4.5802416    4.8492081    2.3086013 
H     5.4048937    2.5116989    2.6671797 
H     4.5506995    0.6579520    1.2478532 
H     1.9931487    3.4574073   -0.8550562 
H     2.8657653    5.2993817    0.5427355 
C    -1.4899018   -0.2533087    2.0793775 
C    -2.3546606   -0.2705641    0.7883025 
C    -2.1627454    0.5374561    3.2149967 
C    -3.7346359   -0.9148796    1.0008705 
C     0.3347085    2.1100656    2.1038869 
C     1.3526157   -0.5599962    2.8840995 
C    -1.3703678   -2.8570004   -0.2040548 
C    -2.3924220   -0.8809724   -2.1182984 
C    -0.4446589    2.9837867    1.3119499 
C     1.1398375   -0.5281607    4.2801434 
C    -2.4716202   -3.6962019   -0.4806820 
C    -2.2451132   -1.8118100   -3.1703092 
C     1.1416065    2.6399056    3.1276902 
C     2.4147204   -1.3345352    2.3730262 
C    -0.2555525   -3.3821174    0.4825609 
C    -3.2453228    0.2296867   -2.2954106 
C    -0.4539381    4.3581391    1.5756918 
C     1.9732046   -1.2579454    5.1382123 
C    -2.4507511   -5.0365006   -0.0725250 
C    -2.9730147   -1.6552114   -4.3552670 
C     1.1377758    4.0197989    3.3779423 
C     3.2470775   -2.0631061    3.2336314 
C    -0.2438803   -4.7210753    0.8964289 
C    -3.9702452    0.3800326   -3.4850301 
C     0.3345052    4.8779100    2.6148224 
C     3.0267082   -2.0257697    4.6179672 
C    -1.3409466   -5.5495088    0.6179106 
C    -3.8410182   -0.5646164   -4.5134570 
H    -1.3326247   -1.3019734    2.4018734 
H    -2.4883624    0.7777323    0.4547594 
H    -1.5198629    0.5980339    4.1068037 
H    -3.1030873    0.0490998    3.5206104 
H    -2.3907484    1.5689291    2.8975564 
H    -4.2862379   -0.9939061    0.0491794 
H    -3.6328981   -1.9271804    1.4278379 
H    -4.3462654   -0.3083808    1.6897468 
H    -1.0364025    2.5869558    0.4783204 
H     0.3306192    0.0720693    4.7061181 
H    -3.3402492   -3.3048500   -1.0198854 
H    -1.5669788   -2.6638833   -3.0592954 
H     1.7859677    1.9842751    3.7198816 
H     2.5846564   -1.3637311    1.2911667 
H     0.6054292   -2.7373135    0.6926427 
H    -3.3581471    0.9794477   -1.5055410 
H    -1.0685053    5.0261992    0.9634363 
H     1.7990979   -1.2248749    6.2185900 
H    -3.3063915   -5.6829316   -0.2933693 
H    -2.8523510   -2.3839378   -5.1624138 
H     1.7745373    4.4238989    4.1713265 
H     4.0676125   -2.6595993    2.8217040 
H     0.6259481   -5.1168244    1.4306586 
H    -4.6403329    1.2374092   -3.6057950 
H     0.3330357    5.9536845    2.8180129 
H     3.6753140   -2.5938271    5.2927083 
H    -1.3306433   -6.5976844    0.9341443 
H    -4.4099126   -0.4465068   -5.4411965 
