87
Energy =
C     1.4393100   -0.1837038   -2.6949341 
C     1.9702952    0.9612073   -2.0356308 
C     2.7281254    0.8232336   -0.8395834 
H     1.6482018    1.9583437   -2.3611627 
Pd    0.6895390   -0.0557279   -0.5788259 
P     0.3583269    0.2750261    1.6918435 
P    -1.3920588   -1.0722277   -0.5813495 
H     1.9821499   -1.1324420   -2.5595170 
H     3.2695707   -0.1264951   -0.7093652 
C    -0.9482572    0.0010458   -6.2661136 
C    -0.1134653   -1.0988457   -6.0218234 
C     0.6326693   -1.1650154   -4.8383613 
C     0.5732078   -0.1228344   -3.8856391 
C    -0.2987082    0.9639292   -4.1312161 
C    -1.0454527    1.0266018   -5.3103852 
H    -1.5318478    0.0550407   -7.1908291 
H    -0.0386768   -1.9066229   -6.7573430 
H     1.2934410   -2.0206278   -4.6578943 
H    -0.4024948    1.7576289   -3.3830565 
H    -1.7170137    1.8736284   -5.4828028 
C     4.2397954    3.9987852    1.6403845 
C     4.7007765    2.6836911    1.7976407 
C     4.1933172    1.6608789    0.9871602 
C     3.2149320    1.9305306    0.0029138 
C     2.7404420    3.2568815   -0.1246142 
C     3.2544753    4.2784162    0.6790934 
H     4.6401785    4.8022010    2.2671362 
H     5.4652863    2.4539664    2.5471247 
H     4.5654619    0.6375062    1.1080219 
H     1.9612508    3.4948556   -0.8555253 
H     2.8783226    5.2994662    0.5613791 
C    -1.3778995   -0.3574842    2.1433654 
C    -2.3074636   -0.3363653    0.8982817 
C    -2.0017654    0.3682251    3.3476129 
C    -3.6683095   -1.0053038    1.1536723 
C     0.3922840    2.0510594    2.1312073 
C     1.5024451   -0.6129312    2.8151378 
C    -1.3581812   -2.8739532   -0.2446436 
C    -2.4792991   -0.8294390   -2.0258582 
C     1.2386186    2.5866019    3.1197111 
C     2.5179484   -1.4027049    2.2366778 
C    -2.4672632   -3.7086829   -0.5029224 
C    -3.3428505    0.2832594   -2.1185579 
C    -0.4433487    2.9182482    1.3907394 
C     1.3880858   -0.5703360    4.2224838 
C    -0.2082461   -3.4198566    0.3631858 
C    -2.3795849   -1.7176568   -3.1194845 
C     1.2178582    3.9627861    3.3887784 
C     3.3996530   -2.1363292    3.0420073 
C    -2.4189678   -5.0652172   -0.1553371 
C    -4.1236434    0.4768739   -3.2658367 
C    -0.4677653    4.2888595    1.6724085 
C     2.2716741   -1.3040197    5.0252441 
C    -0.1687937   -4.7753687    0.7171180 
C    -3.1635202   -1.5183031   -4.2614919 
C     0.3598872    4.8129319    2.6783080 
C     3.2771668   -2.0877147    4.4380902 
C    -1.2736186   -5.5993162    0.4565381 
C    -4.0409640   -0.4263069   -4.3355117 
H    -1.1844092   -1.4158913    2.4097122 
H    -2.4700918    0.7216619    0.6122203 
H    -1.3187176    0.3832128    4.2109252 
H    -2.9247819   -0.1418711    3.6701075 
H    -2.2488253    1.4133421    3.0954915 
H    -4.2648231   -1.0555544    0.2274048 
H    -3.5355199   -2.0314127    1.5368332 
H    -4.2518072   -0.4320008    1.8934648 
H     1.9288957    1.9397961    3.6678648 
H     2.6139062   -1.4378935    1.1457520 
H    -3.3636265   -3.3008265   -0.9809394 
H    -3.4203911    1.0006972   -1.2951436 
H    -1.0667010    2.5201309    0.5812815 
H     0.6176490    0.0421095    4.6999612 
H     0.6583359   -2.7777854    0.5581699 
H    -1.6943525   -2.5700994   -3.0745524 
H     1.8857465    4.3704611    4.1542367 
H     4.1828175   -2.7446549    2.5779360 
H    -3.2807879   -5.7080058   -0.3623376 
H    -4.8009159    1.3353355   -3.3211131 
H    -1.1256362    4.9508187    1.0998086 
H     2.1743827   -1.2615953    6.1149120 
H     0.7282975   -5.1874962    1.1903879 
H    -3.0794289   -2.2145391   -5.1012733 
H     0.3459337    5.8858244    2.8957101 
H     3.9651744   -2.6588023    5.0698691 
H    -1.2418826   -6.6601671    0.7255388 
H    -4.6536775   -0.2746720   -5.2298777 
