87
Energy =
C     1.4711356   -0.6167291   -2.3880109 
C     2.2252541    0.4339866   -1.8068223 
C     2.8325173    0.2959174   -0.5268813 
H     2.1722969    1.4316537   -2.2592286 
Pd    0.6274160   -0.0606942   -0.3625556 
P     0.1882180    0.2929071    1.8911671 
P    -1.5950247   -0.7291553   -0.5423334 
H     1.6808873   -1.6415665   -2.0441707 
H     3.1035566   -0.7227880   -0.2110100 
C    -0.8442464   -0.4426289   -6.0123868 
C    -0.7898626   -1.6173431   -5.2476859 
C    -0.0118943   -1.6653810   -4.0855160 
C     0.7157513   -0.5330830   -3.6521606 
C     0.6681224    0.6380984   -4.4445046 
C    -0.1028242    0.6809197   -5.6106385 
H    -1.4498704   -0.4045052   -6.9235604 
H    -1.3536914   -2.5033556   -5.5570882 
H     0.0258482   -2.5867419   -3.4948425 
H     1.2407418    1.5251567   -4.1540422 
H    -0.1222337    1.5944518   -6.2141810 
C     4.8479716    3.3918895    1.6853345 
C     4.4038936    3.6513416    0.3796746 
C     3.7436637    2.6585831   -0.3528550 
C     3.5251066    1.3767704    0.2013615 
C     3.9868793    1.1288448    1.5148215 
C     4.6350149    2.1251375    2.2506078 
H     5.3597677    4.1717087    2.2581955 
H     4.5760093    4.6334386   -0.0730069 
H     3.4163665    2.8820588   -1.3733858 
H     3.8173246    0.1446691    1.9661952 
H     4.9725695    1.9145776    3.2702507 
C    -1.6975056    0.4074990    2.0263922 
C    -2.3510849   -0.7390170    1.2035662 
C    -2.1715581    1.8004254    1.5732025 
C    -2.2910226   -2.1248334    1.8674965 
C     0.8725507    1.8132662    2.6435722 
C     0.6815654   -1.0997561    2.9797650 
C    -1.7565813   -2.4209860   -1.2296246 
C    -2.6937997    0.3433530   -1.5395806 
C     1.0086580    2.9413002    1.8053130 
C     0.1153314   -1.2904836    4.2589983 
C    -0.7976734   -3.3791985   -0.8293680 
C    -4.1009734    0.2644196   -1.4543240 
C     1.2922495    1.8922945    3.9867996 
C     1.6440105   -2.0182809    2.5121791 
C    -2.7147196   -2.7672508   -2.2020352 
C    -2.1048643    1.2603291   -2.4313915 
C     1.5221715    4.1391675    2.3137812 
C     0.5122132   -2.3755637    5.0518966 
C    -0.8121762   -4.6668174   -1.3780913 
C    -4.8998805    1.0914314   -2.2552645 
C     1.8101026    3.0940758    4.4883806 
C     2.0388410   -3.1030838    3.3075479 
C    -2.7206616   -4.0574994   -2.7532322 
C    -2.9074987    2.0798748   -3.2358908 
C     1.9213692    4.2179870    3.6566534 
C     1.4733309   -3.2825421    4.5784719 
C    -1.7741070   -5.0076721   -2.3438029 
C    -4.3046714    1.9977050   -3.1475472 
H    -1.9654329    0.2662009    3.0897917 
H    -3.4145211   -0.4693551    1.0713655 
H    -1.7980013    2.5885267    2.2460573 
H    -3.2750408    1.8355096    1.5732133 
H    -1.8322615    2.0349096    0.5478934 
H    -2.9048513   -2.8505428    1.3100240 
H    -1.2665146   -2.5249826    1.9306693 
H    -2.6838758   -2.0564760    2.8971941 
H     0.7262738    2.8695049    0.7484896 
H    -0.6427382   -0.5983275    4.6408347 
H    -0.0269757   -3.1073039   -0.0975393 
H    -4.5804331   -0.4460200   -0.7714183 
H     1.2302719    1.0174745    4.6406560 
H     2.0749734   -1.8840401    1.5141805 
H    -3.4412986   -2.0270420   -2.5494614 
H    -1.0144347    1.3232992   -2.4966900 
H     1.6306646    5.0060625    1.6549287 
H     0.0668815   -2.5148383    6.0423347 
H    -0.0663502   -5.4028370   -1.0607161 
H    -5.9905126    1.0262254   -2.1841280 
H     2.1332459    3.1490463    5.5330557 
H     2.7862403   -3.8097912    2.9325843 
H    -3.4654564   -4.3162710   -3.5129627 
H    -2.4380151    2.7815271   -3.9327612 
H     2.3320745    5.1528545    4.0515263 
H     1.7782839   -4.1306416    5.1999193 
H    -1.7794972   -6.0114119   -2.7808992 
H    -4.9329796    2.6404564   -3.7727465 
