87
Energy =
C     1.5417825   -0.8011247   -2.3552799 
C     2.2338997    0.3044524   -1.7856872 
C     2.9152551    0.1884136   -0.5462693 
H     2.0959299    1.3049798   -2.2143915 
Pd    0.7357532   -0.3463489   -0.3101986 
P     0.1590065    0.3922840    1.8317852 
P    -1.3361801   -1.3856687   -0.3518999 
H     1.8920609   -1.8095897   -2.0889389 
H     3.2800694   -0.8122400   -0.2664193 
C    -1.0235200   -0.6769291   -5.8149607 
C    -0.4499286    0.5115514   -5.3332762 
C     0.3972475    0.4867879   -4.2204659 
C     0.6954633   -0.7310218   -3.5629105 
C     0.1308625   -1.9215038   -4.0760363 
C    -0.7242141   -1.8932184   -5.1837806 
H    -1.6899523   -0.6541139   -6.6831660 
H    -0.6623187    1.4635904   -5.8311474 
H     0.8284129    1.4278112   -3.8629730 
H     0.3582150   -2.8765507   -3.5914690 
H    -1.1558691   -2.8280937   -5.5558100 
C     4.8191044    3.3964749    1.5957259 
C     5.3113699    2.0859752    1.6840942 
C     4.6791301    1.0486993    0.9862877 
C     3.5584786    1.3073238    0.1654490 
C     3.0795439    2.6356836    0.0765023 
C     3.6979613    3.6661518    0.7904824 
H     5.3039499    4.2058768    2.1510656 
H     6.1852295    1.8676051    2.3065695 
H     5.0561387    0.0240110    1.0742791 
H     2.1937810    2.8582308   -0.5262656 
H     3.3002797    4.6841291    0.7253375 
C    -1.5501784   -0.3508222    2.2669755 
C    -1.7912734   -1.6625089    1.4634393 
C    -2.6762817    0.6882817    2.1046820 
C    -1.0121304   -2.8577321    2.0349021 
C    -0.0986317    2.2100080    1.7656653 
C     1.2685235    0.1260229    3.2655319 
C    -1.3251136   -3.0195427   -1.1857697 
C    -2.7195220   -0.4546703   -1.1049430 
C    -0.0344417    3.0257808    2.9137841 
C     1.0857825   -0.9219657    4.1922602 
C    -0.1922537   -3.8471443   -1.0138562 
C    -4.0708063   -0.7089252   -0.7855059 
C    -0.4165699    2.7917855    0.5205673 
C     2.3982986    0.9663004    3.3949122 
C    -2.3486321   -3.4254944   -2.0642567 
C    -2.4073395    0.5281276   -2.0647737 
C    -0.2675463    4.4038226    2.8083080 
C     2.0073572   -1.1195959    5.2298168 
C    -0.0994333   -5.0699241   -1.6887097 
C    -5.0884691    0.0222203   -1.4122263 
C    -0.6572819    4.1682192    0.4211755 
C     3.3131799    0.7634234    4.4352420 
C    -2.2458408   -4.6474832   -2.7458632 
C    -3.4288924    1.2510182   -2.6949107 
C    -0.5767176    4.9771753    1.5648429 
C     3.1230684   -0.2791380    5.3541779 
C    -1.1268026   -5.4713261   -2.5590605 
C    -4.7693628    1.0029612   -2.3655266 
H    -1.4945068   -0.6236080    3.3363899 
H    -2.8706873   -1.8964954    1.5036726 
H    -2.5485149    1.5203645    2.8146729 
H    -3.6490445    0.2067156    2.3073176 
H    -2.7149305    1.1149370    1.0894071 
H    -1.2526072   -3.7906968    1.5013625 
H     0.0808800   -2.6987491    1.9749708 
H    -1.2792371   -2.9993527    3.0969750 
H     0.2039420    2.5881574    3.8885153 
H     0.2232777   -1.5890445    4.1210854 
H     0.6275456   -3.5222910   -0.3626444 
H    -4.3361764   -1.4761193   -0.0503617 
H    -0.4714833    2.1563894   -0.3724982 
H     2.5561067    1.7902368    2.6930069 
H    -3.2167073   -2.7819475   -2.2350530 
H    -1.3613759    0.7104319   -2.3305609 
H    -0.2102004    5.0321572    3.7031318 
H     1.8470033   -1.9320904    5.9459565 
H     0.7806169   -5.7053788   -1.5459117 
H    -6.1347007   -0.1759869   -1.1576006 
H    -0.9038666    4.6093578   -0.5501308 
H     4.1785720    1.4281041    4.5217295 
H    -3.0437246   -4.9515962   -3.4311887 
H    -3.1741477    2.0053782   -3.4462687 
H    -0.7572820    6.0544206    1.4886084 
H     3.8395365   -0.4342065    6.1673293 
H    -1.0492393   -6.4221966   -3.0960694 
H    -5.5686796    1.5706060   -2.8529573 
