87
Energy =
C     1.4757061   -0.2772151   -2.6547852 
C     2.1175955    0.7948913   -1.9677005 
C     2.8691877    0.5533740   -0.7859436 
H     1.8920187    1.8294272   -2.2586080 
Pd    0.7534863   -0.1411005   -0.5381343 
P     0.3521664    0.1902872    1.7233807 
P    -1.3621342   -1.0905464   -0.5962341 
H     1.9393098   -1.2723778   -2.5705750 
H     3.3214112   -0.4451863   -0.6788781 
C    -0.9718071    0.2704846   -6.1495028 
C    -0.2314190   -0.9075939   -5.9746517 
C     0.5363530   -1.0900365   -4.8171883 
C     0.5925385   -0.0897675   -3.8205610 
C    -0.1870161    1.0780005   -3.9958927 
C    -0.9548107    1.2574561   -5.1494296 
H    -1.5708284    0.4156141   -7.0543271 
H    -0.2462383   -1.6858436   -6.7448609 
H     1.1237427   -2.0067378   -4.6915078 
H    -0.2021054    1.8438034   -3.2123496 
H    -1.5535404    2.1662488   -5.2669558 
C     4.6407362    3.5441960    1.7523163 
C     3.4583131    3.8380892    1.0498252 
C     2.8810985    2.8802471    0.2110569 
C     3.4643294    1.5995043    0.0672014 
C     4.6446622    1.3135007    0.7888298 
C     5.2345543    2.2813936    1.6124772 
H     5.0940078    4.2975360    2.4047686 
H     2.9818204    4.8175489    1.1613970 
H     1.9510254    3.1176459   -0.3145439 
H     5.1036163    0.3230030    0.6984065 
H     6.1559129    2.0439009    2.1542816 
C    -1.2082606   -0.7747030    2.1674630 
C    -2.2236989   -0.5882955    1.0099379 
C    -1.7640344   -0.4155220    3.5535452 
C    -3.5630720   -1.3050899    1.2354740 
C    -0.0893237    1.9422044    2.0404661 
C     1.6213781   -0.2835328    2.9441624 
C    -1.2940575   -2.9206172   -0.5285299 
C    -2.4961410   -0.6355833   -1.9484744 
C    -0.0367814    2.5175607    3.3273341 
C     1.6796920   -1.6041312    3.4433079 
C    -2.4178274   -3.7305008   -0.8014820 
C    -3.2586195    0.5506290   -1.8726229 
C    -0.5502594    2.7179237    0.9547187 
C     2.6303031    0.6368006    3.3025422 
C    -0.0869232   -3.5268541   -0.1188647 
C    -2.5344644   -1.4076337   -3.1296227 
C    -0.4280091    3.8500968    3.5163402 
C     2.7142375   -1.9854158    4.3070524 
C    -2.3290771   -5.1220617   -0.6626542 
C    -4.0757801    0.9324077   -2.9444324 
C    -0.9497235    4.0466813    1.1505429 
C     3.6613081    0.2459403    4.1674322 
C    -0.0061819   -4.9188802    0.0258019 
C    -3.3547038   -1.0193775   -4.1956162 
C    -0.8838155    4.6154760    2.4315465 
C     3.7048929   -1.0607891    4.6739115 
C    -1.1272421   -5.7169664   -0.2467482 
C    -4.1305122    0.1453104   -4.1043849 
H    -0.8871316   -1.8357112    2.1673444 
H    -2.4101905    0.4981700    0.8925127 
H    -0.9740714   -0.4851208    4.3208202 
H    -2.5695328   -1.1121041    3.8409551 
H    -2.1707232    0.6100318    3.5656207 
H    -4.2098653   -1.2154241    0.3461728 
H    -3.4107920   -2.3764485    1.4503550 
H    -4.1027649   -0.8553792    2.0859536 
H     0.3171229    1.9293546    4.1799127 
H     0.9201509   -2.3417846    3.1632264 
H    -3.3575782   -3.2755321   -1.1302322 
H    -3.2240727    1.1802768   -0.9769974 
H    -0.5774692    2.2745849   -0.0497020 
H     2.6139560    1.6575490    2.9073967 
H     0.7922802   -2.8996495    0.0792860 
H    -1.9259959   -2.3128671   -3.2161969 
H    -0.3775065    4.2919706    4.5167791 
H     2.7448459   -3.0081627    4.6966395 
H    -3.2029699   -5.7447607   -0.8801322 
H    -4.6739049    1.8465256   -2.8706918 
H    -1.3024198    4.6410759    0.3012967 
H     4.4357852    0.9705394    4.4381914 
H     0.9348836   -5.3802160    0.3423677 
H    -3.3779045   -1.6262545   -5.1057082 
H    -1.1862737    5.6564796    2.5851900 
H     4.5105867   -1.3612697    5.3515177 
H    -1.0637715   -6.8049388   -0.1415104 
H    -4.7716683    0.4442412   -4.9398248 
