87
Energy =
C     1.4845322   -0.2405865   -2.6532740 
C     2.1130340    0.8328098   -1.9558226 
C     2.8650733    0.5900764   -0.7747371 
H     1.8767198    1.8671284   -2.2388930 
Pd    0.7553533   -0.1291190   -0.5376745 
P     0.3441090    0.1827236    1.7247573 
P    -1.3487236   -1.1019832   -0.6078146 
H     1.9590985   -1.2311876   -2.5766243 
H     3.3273325   -0.4045686   -0.6743987 
C    -0.9592248    0.3124474   -6.1498568 
C    -0.2036244   -0.8574539   -5.9854915 
C     0.5628501   -1.0423865   -4.8275456 
C     0.6026020   -0.0524285   -3.8199304 
C    -0.1917334    1.1068315   -3.9851835 
C    -0.9582768    1.2887111   -5.1391733 
H    -1.5576924    0.4592353   -7.0547803 
H    -0.2055605   -1.6273093   -6.7642283 
H     1.1620065   -1.9525266   -4.7099880 
H    -0.2194035    1.8637056   -3.1933320 
H    -1.5686083    2.1907532   -5.2488154 
C     4.6000593    3.5789858    1.7907584 
C     3.4167930    3.8665943    1.0870754 
C     2.8512125    2.9094332    0.2396568 
C     3.4471762    1.6354523    0.0881354 
C     4.6281859    1.3555261    0.8111043 
C     5.2064727    2.3230306    1.6433880 
H     5.0441875    4.3318388    2.4500284 
H     2.9305970    4.8405974    1.2043927 
H     1.9204740    3.1418037   -0.2870099 
H     5.0969549    0.3701992    0.7147113 
H     6.1286983    2.0905655    2.1858961 
C    -1.2082160   -0.7998855    2.1582341 
C    -2.2215097   -0.6186108    0.9980981 
C    -1.7725152   -0.4529457    3.5439975 
C    -3.5530420   -1.3525169    1.2148530 
C    -0.1150310    1.9285654    2.0511844 
C     1.6139142   -0.2865443    2.9467750 
C    -1.2591448   -2.9315921   -0.5486549 
C    -2.4838942   -0.6543661   -1.9614843 
C    -0.0701919    2.4970253    3.3413917 
C     1.6828250   -1.6093899    3.4385532 
C    -0.0479363   -3.5255374   -0.1330938 
C    -3.2662820    0.5184006   -1.8806941 
C    -0.5811653    2.7061578    0.9690122 
C     2.6132410    0.6409118    3.3136399 
C    -2.3712994   -3.7532615   -0.8336052 
C    -2.5038037   -1.4183021   -3.1484295 
C    -0.4738208    3.8248828    3.5371930 
C     2.7179969   -1.9860784    4.3035775 
C     0.0481652   -4.9172203    0.0054623 
C    -4.0845794    0.8944115   -2.9537147 
C    -0.9931484    4.0300720    1.1716248 
C     3.6449564    0.2546101    4.1797301 
C    -2.2671219   -5.1443655   -0.7008523 
C    -3.3253844   -1.0359990   -4.2154938 
C    -0.9344233    4.5922932    2.4558740 
C     3.6988928   -1.0545153    4.6789816 
C    -1.0614067   -5.7271115   -0.2790218 
C    -4.1208074    0.1150264   -4.1195527 
H    -0.8761267   -1.8574970    2.1541291 
H    -2.4199596    0.4663001    0.8859015 
H    -0.9847531   -0.5182614    4.3139025 
H    -2.5720113   -1.1589373    3.8251198 
H    -2.1893921    0.5684710    3.5593624 
H    -4.1978754   -1.2657006    0.3238639 
H    -3.3885700   -2.4231761    1.4241455 
H    -4.1009909   -0.9140901    2.0659487 
H     0.2871354    1.9072195    4.1914300 
H     0.9309850   -2.3524011    3.1519540 
H     0.8224587   -2.8891042    0.0743281 
H    -3.2465780    1.1418888   -0.9803527 
H    -0.6021286    2.2685327   -0.0380729 
H     2.5889650    1.6636556    2.9241342 
H    -3.3139872   -3.3077727   -1.1669167 
H    -1.8798597   -2.3125984   -3.2386196 
H    -0.4295255    4.2613502    4.5402976 
H     2.7567007   -3.0107063    4.6874607 
H     0.9923717   -5.3689562    0.3264897 
H    -4.6982023    1.7978894   -2.8762294 
H    -1.3499170    4.6259197    0.3251010 
H     4.4117920    0.9847707    4.4572315 
H    -3.1320107   -5.7762209   -0.9277096 
H    -3.3343194   -1.6365658   -5.1300069 
H    -1.2462871    5.6297276    2.6147625 
H     4.5050134   -1.3513916    5.3576690 
H    -0.9859055   -6.8147530   -0.1783949 
H    -4.7629643    0.4093934   -4.9558444 
