87
Energy =
C     1.4916842   -0.2412985   -2.6489650 
C     2.1217280    0.8286919   -1.9477852 
C     2.8690976    0.5811367   -0.7646772 
H     1.8900203    1.8643530   -2.2296799 
Pd    0.7567005   -0.1309435   -0.5351252 
P     0.3399463    0.1768463    1.7271393 
P    -1.3515708   -1.0951028   -0.6138312 
H     1.9624395   -1.2336912   -2.5720551 
H     3.3280241   -0.4151164   -0.6649942 
C    -0.9382909    0.3241007   -6.1529906 
C    -0.1903434   -0.8502515   -5.9855486 
C     0.5714937   -1.0389919   -4.8251974 
C     0.6140058   -0.0487116   -3.8180097 
C    -0.1732462    1.1149465   -3.9861596 
C    -0.9350521    1.3006897   -5.1426485 
H    -1.5324675    0.4742734   -7.0601673 
H    -0.1947507   -1.6206848   -6.7636855 
H     1.1648545   -1.9525922   -4.7052279 
H    -0.1990366    1.8723940   -3.1948191 
H    -1.5398312    2.2061655   -5.2545989 
C     4.6062718    3.5604228    1.8104881 
C     5.2105431    2.3037089    1.6609072 
C     4.6317185    1.3393497    0.8253653 
C     3.4523446    1.6232962    0.1013617 
C     2.8586515    2.8980527    0.2550016 
C     3.4247160    3.8520602    1.1056314 
H     5.0507960    4.3107908    2.4722974 
H     6.1315594    2.0682012    2.2041358 
H     5.0987116    0.3533513    0.7273807 
H     1.9290968    3.1333869   -0.2724179 
H     2.9401687    4.8266724    1.2245850 
C    -1.2174031   -0.8010435    2.1533788 
C    -2.2266599   -0.6120794    0.9909298 
C    -1.7841827   -0.4559296    3.5385811 
C    -3.5621307   -1.3405049    1.2019159 
C    -0.1136580    1.9232730    2.0574465 
C     1.6048158   -0.3005371    2.9510834 
C    -1.2703986   -2.9251105   -0.5598317 
C    -2.4805744   -0.6378766   -1.9694374 
C    -0.5756361    2.7052293    0.9766313 
C     1.6665848   -1.6243732    3.4410539 
C    -2.3855247   -3.7411324   -0.8493008 
C    -3.2546828    0.5403704   -1.8882392 
C    -0.0689630    2.4881638    3.3492022 
C     2.6080824    0.6215542    3.3207500 
C    -0.0625023   -3.5255277   -0.1439015 
C    -2.5029515   -1.3991807   -3.1579729 
C    -0.9835551    4.0299336    1.1821034 
C     2.6990004   -2.0074451    4.3065722 
C    -2.2875313   -5.1330524   -0.7206661 
C    -4.0672227    0.9246779   -2.9626534 
C    -0.4685334    3.8167962    3.5478926 
C     3.6370848    0.2288334    4.1871340 
C     0.0273771   -4.9179966   -0.0093981 
C    -3.3186322   -1.0084605   -4.2265214 
C    -0.9250592    4.5885240    2.4679398 
C     3.6841409   -1.0813488    4.6843022 
C    -1.0852072   -5.7222167   -0.2981257 
C    -4.1058300    0.1481500   -4.1303192 
H    -0.8897156   -1.8599992    2.1470897 
H    -2.4200845    0.4739602    0.8812217 
H    -0.9987958   -0.5267319    4.3104126 
H    -2.5873099   -1.1594778    3.8153929 
H    -2.1969900    0.5670912    3.5559016 
H    -4.2038897   -1.2483561    0.3092564 
H    -3.4031722   -2.4124416    1.4088944 
H    -4.1105859   -0.9018968    2.0525767 
H    -0.5967324    2.2702509   -0.0315905 
H     0.9113927   -2.3632295    3.1525972 
H    -3.3256285   -3.2906018   -1.1830881 
H    -3.2328180    1.1618085   -0.9865348 
H     0.2850570    1.8948658    4.1981786 
H     2.5888952    1.6451415    2.9332135 
H     0.8102057   -2.8934478    0.0670317 
H    -1.8854233   -2.2978766   -3.2483680 
H    -1.3370267    4.6292164    0.3366393 
H     2.7323549   -3.0328618    4.6888156 
H    -3.1545151   -5.7605431   -0.9515419 
H    -4.6743615    1.8324880   -2.8849214 
H    -0.4240497    4.2505797    4.5521393 
H     4.4072050    0.9548001    4.4664731 
H     0.9691704   -5.3748074    0.3114957 
H    -3.3293432   -1.6069221   -5.1423819 
H    -1.2338929    5.6264979    2.6291185 
H     4.4881538   -1.3832867    5.3632359 
H    -1.0148369   -6.8103982   -0.1997872 
H    -4.7434933    0.4489815   -4.9677295 
