87
Energy =
C     1.7397968   -1.0237357   -2.2874430 
C     2.3077128    0.2161221   -1.8945704 
C     2.9577049    0.3515250   -0.6304298 
H     2.0733231    1.1150121   -2.4783710 
Pd    0.8670368   -0.3388246   -0.3352258 
P     0.3522833    0.2660102    1.8302077 
P    -1.3103080   -1.1311799   -0.4243741 
H     2.1780340   -1.9335546   -1.8473192 
H     3.4471762   -0.5445491   -0.2201486 
C    -0.7037003   -1.8299278   -5.7348527 
C    -0.5786299   -0.5097794   -5.2687675 
C     0.2181387   -0.2273384   -4.1556175 
C     0.9063268   -1.2615607   -3.4792495 
C     0.7619381   -2.5849059   -3.9523922 
C    -0.0296281   -2.8654544   -5.0724212 
H    -1.3262243   -2.0470539   -6.6089592 
H    -1.1072181    0.3033803   -5.7770523 
H     0.2947794    0.8060325   -3.8025747 
H     1.2754120   -3.4002489   -3.4316615 
H    -0.1245132   -3.8978505   -5.4234223 
C     4.2450420    4.0352439    1.2006238 
C     3.4600024    4.0754453    0.0366457 
C     3.0332006    2.8894605   -0.5707385 
C     3.4019603    1.6302217   -0.0409664 
C     4.2029879    1.6063595    1.1249378 
C     4.6113821    2.7935134    1.7440144 
H     4.5727325    4.9647756    1.6772161 
H     3.1699677    5.0385233   -0.3960814 
H     2.4016614    2.9491427   -1.4629221 
H     4.4992577    0.6435851    1.5532319 
H     5.2249435    2.7479481    2.6496413 
C    -0.9598913   -0.9556936    2.4255124 
C    -2.0263983   -1.2961665    1.3471250 
C    -1.5625585   -0.5794362    3.7895121 
C    -2.7088045   -2.6487077    1.6113923 
C    -0.2787059    1.9770476    1.8729216 
C     1.6630569    0.1177398    3.0967546 
C    -1.5359833   -2.7278952   -1.2845605 
C    -2.4462323    0.0893203   -1.1848299 
C     0.6569004    3.0357037    1.9170168 
C     2.5873984   -0.9377577    2.9479390 
C    -0.7222193   -3.8045472   -0.8654462 
C    -3.8444959   -0.1120011   -1.1994643 
C    -1.6451465    2.2717126    1.6775613 
C     1.7591306    0.9733702    4.2126633 
C    -2.3992295   -2.8996294   -2.3830101 
C    -1.9156235    1.2948516   -1.6837335 
C     0.2230284    4.3617099    1.7970095 
C     3.5955371   -1.1346470    3.8997907 
C    -0.8075976   -5.0458083   -1.5061558 
C    -4.6898700    0.8741932   -1.7242078 
C    -2.0702375    3.6011796    1.5571833 
C     2.7793196    0.7805723    5.1551186 
C    -2.4734231   -4.1439738   -3.0264047 
C    -2.7653053    2.2807851   -2.2042099 
C    -1.1390614    4.6487513    1.6199005 
C     3.6968262   -0.2695883    5.0009365 
C    -1.6893061   -5.2186724   -2.5859267 
C    -4.1512532    2.0695237   -2.2286984 
H    -0.3242867   -1.8562151    2.5544566 
H    -2.8031509   -0.5105531    1.3655676 
H    -0.7670437   -0.4013668    4.5322966 
H    -2.1978664   -1.3963964    4.1718326 
H    -2.1795368    0.3320315    3.7199952 
H    -3.4670637   -2.8727312    0.8428420 
H    -1.9808194   -3.4771749    1.6135912 
H    -3.2146672   -2.6341374    2.5919625 
H     1.7244121    2.8259892    2.0399150 
H     2.5203713   -1.5978440    2.0739932 
H    -0.0122349   -3.6652445   -0.0405037 
H    -4.2761833   -1.0375077   -0.8020966 
H    -2.3858623    1.4709287    1.6055358 
H     1.0443139    1.7920293    4.3436039 
H    -2.9970912   -2.0625485   -2.7542373 
H    -0.8333999    1.4638938   -1.6378990 
H     0.9596187    5.1705977    1.8356074 
H     4.3089687   -1.9561387    3.7776083 
H    -0.1808165   -5.8775918   -1.1683994 
H    -5.7724103    0.7107135   -1.7376243 
H    -3.1335761    3.8154805    1.4097070 
H     2.8538830    1.4526616    6.0162148 
H    -3.1422402   -4.2666214   -3.8843054 
H    -2.3437287    3.2173492   -2.5830386 
H    -1.4743109    5.6868760    1.5270581 
H     4.4913304   -0.4152234    5.7400357 
H    -1.7529880   -6.1880456   -3.0907967 
H    -4.8160547    2.8385158   -2.6355701 
