87
Energy =
C    -1.8759767    0.4751596   -2.1229778 
C    -1.2285063    1.7284536   -1.9806458 
C     0.1699641    1.8728423   -2.2038882 
H    -1.7732065    2.5504494   -1.5007706 
Pd   -0.1892144    0.3314714   -0.6202570 
P     1.8388394    0.2307184    0.5080171 
P    -0.8546183   -1.4574832    0.7130879 
H    -1.3928706   -0.2740768   -2.7692990 
H     0.6382689    1.1645726   -2.9041217 
C    -5.9613231   -0.4572489   -1.1400335 
C    -5.0969442   -1.4431149   -1.6387067 
C    -3.7790163   -1.1174146   -1.9780300 
C    -3.2903920    0.1986711   -1.8092973 
C    -4.1793893    1.1872297   -1.3253625 
C    -5.4989344    0.8614145   -0.9955500 
H    -6.9936458   -0.7096371   -0.8772805 
H    -5.4492207   -2.4717417   -1.7673086 
H    -3.1109549   -1.8927197   -2.3675583 
H    -3.8432415    2.2228111   -1.2081546 
H    -6.1740634    1.6414797   -0.6282747 
C     2.5140433    5.4152350   -1.4994013 
C     1.1210125    5.4633864   -1.3362888 
C     0.3435387    4.3209658   -1.5565993 
C     0.9430545    3.1059371   -1.9594750 
C     2.3469110    3.0765826   -2.1275662 
C     3.1242692    4.2149498   -1.8951243 
H     3.1206004    6.3089469   -1.3216259 
H     0.6359325    6.3987391   -1.0382232 
H    -0.7422654    4.3864794   -1.4327909 
H     2.8315902    2.1409474   -2.4290591 
H     4.2105846    4.1657088   -2.0196791 
C     0.6371608   -1.9983468    1.7628751 
C     1.4831908   -0.7368106    2.0967520 
C     1.4247535   -3.1545438    1.1244627 
C     0.7910956    0.1788379    3.1227308 
C    -1.3850425   -2.9005067   -0.2851887 
C    -2.1979234   -1.1342179    1.9144303 
C     2.5967675    1.8193877    1.0060313 
C     3.1404174   -0.7178320   -0.3715750 
C    -0.6606884   -3.1734150   -1.4678658 
C    -2.4604442   -2.0002864    2.9983699 
C     1.7204262    2.8831399    1.3132047 
C     4.2459389   -1.2794676    0.3034837 
C    -2.5261129   -3.6681984    0.0185207 
C    -3.0007475    0.0081238    1.7311951 
C     3.9894409    2.0303385    1.0590504 
C     3.0191477   -0.9061934   -1.7638250 
C    -1.0599597   -4.2106427   -2.3187911 
C    -3.5144563   -1.7226231    3.8790639 
C     2.2305943    4.1261446    1.7029608 
C     5.2097742   -2.0086159   -0.4055636 
C    -2.9253979   -4.7026053   -0.8412956 
C    -4.0582913    0.2779069    2.6098873 
C     4.4935850    3.2795922    1.4453790 
C     3.9850135   -1.6362415   -2.4705307 
C    -2.1957387   -4.9768157   -2.0070285 
C    -4.3150180   -0.5854274    3.6848007 
C     3.6178279    4.3254494    1.7717895 
C     5.0813497   -2.1881914   -1.7918639 
H     0.2152803   -2.3596271    2.7181885 
H     2.4531075   -1.0695688    2.5100850 
H     0.8023102   -4.0617442    1.0630384 
H     2.3100084   -3.3821417    1.7439125 
H     1.7829984   -2.9199512    0.1094973 
H     1.4555312    0.9979169    3.4407503 
H    -0.1336871    0.6252718    2.7140885 
H     0.5097158   -0.4081004    4.0144976 
H     0.2093291   -2.5583677   -1.7292246 
H    -1.8518622   -2.8978344    3.1566054 
H     0.6374231    2.7360423    1.2284496 
H     4.3573495   -1.1575162    1.3861347 
H    -3.1192854   -3.4468401    0.9105707 
H    -2.7969086    0.6808299    0.8925355 
H     4.6832093    1.2294023    0.7874546 
H     2.1554039   -0.4855802   -2.2901897 
H    -0.4913232   -4.4159873   -3.2315813 
H    -3.7125490   -2.3975580    4.7180955 
H     1.5440007    4.9466345    1.9325758 
H     6.0630292   -2.4407844    0.1272622 
H    -3.8169228   -5.2907530   -0.6003059 
H    -4.6817593    1.1635784    2.4512518 
H     5.5764602    3.4364849    1.4853252 
H     3.8790226   -1.7762811   -3.5511823 
H    -2.5142386   -5.7817018   -2.6773187 
H    -5.1385643   -0.3735229    4.3744654 
H     4.0164665    5.3013170    2.0673329 
H     5.8349656   -2.7612716   -2.3415303 
