87
Energy =
C    -2.1025858    0.8389424   -1.9487674 
C    -1.2526706    1.9681661   -1.8155797 
C     0.1176128    1.9025793   -2.1987901 
H    -1.6013419    2.8321530   -1.2367660 
Pd   -0.3203368    0.3323031   -0.6720994 
P     1.7650366    0.0833681    0.2909306 
P    -1.0016371   -1.4514368    0.6312006 
H    -1.8172040    0.0802988   -2.6947590 
H     0.3734923    1.2020114   -3.0078461 
C    -6.1502866    0.4425880   -0.5419104 
C    -5.4876777   -0.6358121   -1.1482167 
C    -4.1806039   -0.4790291   -1.6202803 
C    -3.4973168    0.7510102   -1.4798705 
C    -4.1812036    1.8314365   -0.8770252 
C    -5.4945503    1.6779763   -0.4189946 
H    -7.1755661    0.3249365   -0.1770419 
H    -5.9951765   -1.5997233   -1.2590470 
H    -3.6679623   -1.3196506   -2.1008954 
H    -3.6917262    2.8052566   -0.7727177 
H    -6.0119326    2.5292760    0.0357378 
C     3.0646462    4.9855823   -1.6163166 
C     3.3064280    3.9174111   -2.4925769 
C     2.3427693    2.9153046   -2.6613125 
C     1.1166848    2.9607115   -1.9588041 
C     0.9021555    4.0263122   -1.0534975 
C     1.8611933    5.0305106   -0.8931923 
H     3.8120377    5.7757244   -1.4904280 
H     4.2440839    3.8690210   -3.0560457 
H     2.5332662    2.0890465   -3.3552704 
H    -0.0192884    4.0714891   -0.4640556 
H     1.6734517    5.8498655   -0.1921027 
C     0.2758890   -1.6749718    2.0149018 
C     1.7221840   -1.3291069    1.5699217 
C     0.1790864   -3.0493238    2.6974159 
C     2.6606346   -1.0886800    2.7654960 
C    -1.0300529   -2.9703727   -0.3937154 
C    -2.5840839   -1.3332810    1.5370673 
C     2.2414820    1.6082646    1.1775636 
C     3.1319735   -0.4051800   -0.8251313 
C    -2.2405303   -3.5589952   -0.8187489 
C    -3.0981547   -0.0388337    1.7567353 
C     1.3581698    2.0739403    2.1790609 
C     4.4767801   -0.4853446   -0.4000392 
C     0.1897503   -3.4734832   -0.9013111 
C    -3.2659442   -2.4506111    2.0680886 
C     3.3763399    2.3721833    0.8474110 
C     2.8019551   -0.7930382   -2.1405588 
C    -2.2249145   -4.6451273   -1.7060031 
C    -4.2773829    0.1383816    2.4911357 
C     1.6344312    3.2602292    2.8679391 
C     5.4683829   -0.9300609   -1.2846020 
C     0.1986938   -4.5617625   -1.7822199 
C    -4.4472904   -2.2665700    2.7986010 
C     3.6440361    3.5625748    1.5390760 
C     3.7968216   -1.2408308   -3.0207461 
C    -1.0088941   -5.1530746   -2.1850010 
C    -4.9544915   -0.9747811    3.0092531 
C     2.7838464    4.0038263    2.5530910 
C     5.1314468   -1.3055468   -2.5946472 
H    -0.0580941   -0.8943485    2.7279188 
H     2.1173498   -2.1794455    0.9827111 
H    -0.8406870   -3.2344983    3.0711510 
H     0.8592679   -3.1020749    3.5643730 
H     0.4474848   -3.8587688    1.9970557 
H     3.6826825   -0.8477545    2.4319659 
H     2.3039926   -0.2547649    3.3924851 
H     2.7232309   -1.9935322    3.3933400 
H    -3.1978650   -3.1680580   -0.4624355 
H    -2.5758628    0.8271695    1.3343794 
H     0.4472853    1.5100731    2.4139789 
H     4.7567075   -0.1938977    0.6170413 
H     1.1409571   -3.0082564   -0.6240055 
H    -2.8826774   -3.4634511    1.9085272 
H     4.0391407    2.0603782    0.0361019 
H     1.7569608   -0.7479818   -2.4682415 
H    -3.1712405   -5.0956548   -2.0228849 
H    -4.6741634    1.1464369    2.6448314 
H     0.9499922    3.6081814    3.6485103 
H     6.5090470   -0.9833541   -0.9486395 
H     1.1528580   -4.9440150   -2.1593151 
H    -4.9727552   -3.1364009    3.2060966 
H     4.5259741    4.1522913    1.2700853 
H     3.5285008   -1.5380751   -4.0397443 
H    -1.0014777   -6.0029781   -2.8748905 
H    -5.8803587   -0.8374958    3.5773038 
H     2.9992326    4.9328840    3.0907102 
H     5.9105619   -1.6506609   -3.2821035 
