87
Energy =
C    -2.0021469    0.4586263   -2.0754302 
C    -1.2760720    1.6759013   -1.9597225 
C     0.0996907    1.7456663   -2.3163268 
H    -1.7228866    2.5135913   -1.4103832 
Pd   -0.2180953    0.1783472   -0.7419627 
P     1.7945371    0.2185994    0.4035371 
P    -0.7666044   -1.6742359    0.5436192 
H    -1.6416338   -0.2771245   -2.8110410 
H     0.4424151    1.0416920   -3.0903876 
C    -5.9840631   -0.3151509   -0.6294501 
C    -5.2488969   -1.3130933   -1.2865435 
C    -3.9674709   -1.0371066   -1.7762902 
C    -3.3840917    0.2396156   -1.6050019 
C    -4.1441969    1.2415720   -0.9568618 
C    -5.4289302    0.9659754   -0.4763821 
H    -6.9882374   -0.5286449   -0.2492934 
H    -5.6745008   -2.3128721   -1.4212207 
H    -3.4006869   -1.8230698   -2.2865872 
H    -3.7344432    2.2488689   -0.8273204 
H    -6.0039428    1.7569013    0.0166930 
C     2.7710597    5.0664248   -1.7201005 
C     3.1152645    4.0136052   -2.5803235 
C     2.2335544    2.9424504   -2.7647677 
C     0.9904601    2.8983011   -2.0927036 
C     0.6650117    3.9602685   -1.2174382 
C     1.5426568    5.0335466   -1.0403337 
H     3.4566222    5.9078531   -1.5764596 
H     4.0702443    4.0295225   -3.1156677 
H     2.5047998    2.1294930   -3.4470566 
H    -0.2781003    3.9465961   -0.6621086 
H     1.2715004    5.8463219   -0.3594418 
C     0.8614776   -2.2866750    1.3016032 
C     1.6738689   -1.0615726    1.8132667 
C     1.6507473   -3.1520194    0.3042281 
C     1.1390492   -0.4724635    3.1286603 
C    -1.4964203   -3.0434504   -0.4326971 
C    -1.9041020   -1.3854209    1.9477583 
C     2.1008997    1.8609905    1.1539075 
C     3.3135888   -0.2465753   -0.5092690 
C    -2.6135694   -3.7813424    0.0052406 
C    -2.0110427   -2.2839660    3.0312545 
C     1.0176165    2.4865150    1.8138017 
C     4.5394370   -0.4617452    0.1574879 
C    -0.9776222   -3.2759441   -1.7268129 
C    -2.7051991   -0.2266644    1.9257339 
C     3.3244602    2.5480496    1.0341776 
C     3.2490540   -0.4190058   -1.9058890 
C    -3.1890173   -4.7480943   -0.8329667 
C    -2.9065955   -2.0187253    4.0756805 
C     1.1782646    3.7485048    2.3964983 
C     5.6795143   -0.8326632   -0.5681107 
C    -1.5508459   -4.2469808   -2.5558311 
C    -3.6049153    0.0300910    2.9689225 
C     3.4722132    3.8207135    1.6039285 
C     4.3906284   -0.7919825   -2.6284500 
C    -2.6602923   -4.9846224   -2.1098436 
C    -3.7038707   -0.8629804    4.0457124 
C     2.4091196    4.4160584    2.2971119 
C     5.6068827   -0.9968933   -1.9604783 
H     0.5995529   -2.9079794    2.1775496 
H     2.7096655   -1.4072654    1.9857195 
H     1.1037155   -4.0750713    0.0548967 
H     2.6220957   -3.4321925    0.7479197 
H     1.8633348   -2.6127966   -0.6354773 
H     1.8067196    0.3157569    3.5111287 
H     0.1284216   -0.0460784    3.0224109 
H     1.0789777   -1.2737499    3.8860707 
H    -3.0514413   -3.5893299    0.9892088 
H    -1.4010498   -3.1933802    3.0646025 
H     0.0442612    1.9844972    1.8628778 
H     4.6114346   -0.3333514    1.2435290 
H    -0.1332707   -2.6787490   -2.0909998 
H    -2.6287681    0.4664110    1.0818629 
H     4.1586386    2.1020581    0.4853795 
H     2.2942866   -0.2702892   -2.4206717 
H    -4.0603195   -5.3131250   -0.4859673 
H    -2.9839384   -2.7176122    4.9149816 
H     0.3373486    4.2176270    2.9177129 
H     6.6271175   -0.9950361   -0.0443118 
H    -1.1403016   -4.4209233   -3.5557532 
H    -4.2302057    0.9280605    2.9359796 
H     4.4250581    4.3494110    1.4996362 
H     4.3294871   -0.9260840   -3.7133777 
H    -3.1156032   -5.7370639   -2.7618456 
H    -4.4035425   -0.6615037    4.8634321 
H     2.5331049    5.4072069    2.7453867 
H     6.4990744   -1.2890248   -2.5237501 
