87
Energy =
C    -2.2008528    0.9009208   -1.9109262 
C    -1.2866588    1.9926426   -1.8340105 
C     0.0243551    1.8800863   -2.3710996 
H    -1.5394377    2.8613035   -1.2117131 
Pd   -0.3362104    0.3033699   -0.8219381 
P     1.7660748   -0.0089744    0.1103493 
P    -1.0130938   -1.4370458    0.5538701 
H    -2.0817148    0.2096757   -2.7596779 
H     0.1606961    1.1765023   -3.2075477 
C    -6.1521026    0.9884071   -0.2132545 
C    -5.8872979    0.2344711   -1.3656353 
C    -4.5896551    0.1858492   -1.8910519 
C    -3.5353027    0.9046053   -1.2838226 
C    -3.8112326    1.6317266   -0.1017475 
C    -5.1055201    1.6774175    0.4226814 
H    -7.1662617    1.0298007    0.1970465 
H    -6.6950920   -0.3134434   -1.8620060 
H    -4.3911332   -0.3932333   -2.8001765 
H    -2.9993579    2.1529421    0.4176373 
H    -5.2999693    2.2437373    1.3389840 
C     3.1705452    4.7967822   -2.0237102 
C     2.2148654    4.6775337   -0.9987594 
C     1.1798324    3.7439921   -1.1061063 
C     1.0852371    2.8962210   -2.2346655 
C     2.0596884    3.0175795   -3.2502746 
C     3.0843138    3.9681858   -3.1519547 
H     3.9770602    5.5324705   -1.9401385 
H     2.2811531    5.3124920   -0.1092226 
H     0.4546180    3.6503978   -0.2919213 
H     2.0084544    2.3611479   -4.1257069 
H     3.8232044    4.0541783   -3.9553869 
C     0.3547521   -1.6748696    1.8371128 
C     1.7142546   -1.6202068    1.0927021 
C     0.1691705   -2.9299414    2.7025085 
C     2.9362876   -1.8093207    2.0035972 
C    -1.0832709   -3.0337289   -0.3427740 
C    -2.5673852   -1.2648496    1.4896905 
C     2.0998000    1.2813250    1.3708457 
C     3.2298207   -0.1079499   -0.9729711 
C    -0.4266402   -3.1256550   -1.5890201 
C    -2.5892291   -0.5592791    2.7127609 
C     3.3990803    1.5660082    1.8405784 
C     3.6173283   -1.3408346   -1.5442660 
C    -1.7031410   -4.1804446    0.1995470 
C    -3.7797870   -1.7368182    0.9420526 
C     0.9983495    1.9689583    1.9250000 
C     3.9103358    1.0715844   -1.3457518 
C    -0.3810088   -4.3456727   -2.2779434 
C    -3.7982795   -0.3671781    3.3935653 
C     3.5881798    2.5315149    2.8388450 
C     4.6846324   -1.3929372   -2.4497250 
C    -1.6612286   -5.3953860   -0.4973521 
C    -4.9835198   -1.5415717    1.6297012 
C     1.1916302    2.9262806    2.9298013 
C     4.9771105    1.0092896   -2.2523633 
C    -0.9990021   -5.4807800   -1.7324609 
C    -4.9958097   -0.8634418    2.8571856 
C     2.4881652    3.2120298    3.3839470 
C     5.3689748   -0.2191645   -2.8030895 
H     0.2839571   -0.7767148    2.4828185 
H     1.7087461   -2.4153882    0.3202840 
H    -0.8456760   -2.9614347    3.1341845 
H     0.8870759   -2.9304667    3.5400563 
H     0.3263341   -3.8483673    2.1118746 
H     3.8718623   -1.6748871    1.4343150 
H     2.9285851   -1.0844939    2.8354802 
H     2.9489838   -2.8267524    2.4294676 
H     0.0433267   -2.2313555   -2.0194686 
H    -1.6646205   -0.1603348    3.1436587 
H     4.2635746    1.0406246    1.4225612 
H     3.0909564   -2.2661511   -1.2870683 
H    -2.2248245   -4.1220150    1.1600537 
H    -3.7839825   -2.2584725   -0.0197807 
H    -0.0119336    1.7578601    1.5494707 
H     3.6086432    2.0389781   -0.9316727 
H     0.1290326   -4.4068048   -3.2447766 
H    -3.8032590    0.1695928    4.3478527 
H     4.6002597    2.7514425    3.1938011 
H     4.9839731   -2.3546704   -2.8788755 
H    -2.1476362   -6.2798276   -0.0732392 
H    -5.9171337   -1.9127891    1.1966173 
H     0.3310898    3.4565126    3.3508098 
H     5.4971602    1.9314394   -2.5304714 
H    -0.9708173   -6.4325902   -2.2728338 
H    -5.9391696   -0.7146313    3.3922811 
H     2.6424213    3.9666486    4.1621280 
H     6.2042953   -0.2636540   -3.5093663 
