87
Energy =
C    -1.9374317    0.6022133   -2.2993737 
C    -1.4439462    1.8625530   -1.8574098 
C    -0.0690389    2.1940398   -2.0111865 
H    -2.0933520    2.5052825   -1.2497687 
Pd   -0.2963383    0.3365984   -0.7843195 
P     1.5804521    0.4602704    0.5727846 
P    -0.7459210   -1.6659988    0.2892600 
H    -1.3957973    0.1200942   -3.1284116 
H     0.4588255    1.7089383   -2.8468721 
C    -6.0285229   -0.6548380   -1.8897454 
C    -5.4493766    0.1605287   -0.9025903 
C    -4.1121261    0.5516232   -1.0068954 
C    -3.3248137    0.1438346   -2.1092774 
C    -3.9097207   -0.7064184   -3.0748869 
C    -5.2516223   -1.0938039   -2.9714134 
H    -7.0778380   -0.9559537   -1.8070275 
H    -6.0432558    0.4826956   -0.0413764 
H    -3.6657979    1.1674048   -0.2182525 
H    -3.3097744   -1.0420531   -3.9285154 
H    -5.6925140   -1.7369586   -3.7401840 
C     1.9208572    5.7217035   -0.5586467 
C     2.5254656    4.9023069   -1.5228248 
C     1.8672757    3.7543052   -1.9799195 
C     0.5909791    3.4017435   -1.4844614 
C     0.0058342    4.2246322   -0.4940987 
C     0.6607859    5.3744724   -0.0442738 
H     2.4300657    6.6235576   -0.2037569 
H     3.5090674    5.1620647   -1.9277552 
H     2.3410774    3.1242711   -2.7409254 
H    -0.9676407    3.9635786   -0.0670079 
H     0.1896927    6.0007004    0.7197748 
C     0.0912363   -1.5240051    1.9760828 
C     1.5424220   -0.9990042    1.7940275 
C     0.0253909   -2.8267630    2.7905377 
C     2.2163835   -0.6906158    3.1427275 
C     0.0389267   -3.1307220   -0.4848539 
C    -2.4836473   -2.1125944    0.6179044 
C     1.6037503    1.9779775    1.5937111 
C     3.1976853    0.3329393   -0.2812989 
C    -0.3533583   -4.4495798   -0.1682922 
C    -3.2094232   -2.8199987   -0.3657250 
C     0.4505247    2.2641455    2.3591528 
C     4.4240028    0.2294379    0.4118542 
C     1.1231471   -2.9231606   -1.3631454 
C    -3.1475947   -1.6797853    1.7859011 
C     2.6877596    2.8749888    1.6142975 
C     3.2060276    0.3057908   -1.6913587 
C     0.3339103   -5.5370365   -0.7237410 
C    -4.5595338   -3.1254305   -0.1599407 
C     0.4060292    3.4032839    3.1708787 
C     5.6264200    0.1007555   -0.2959630 
C     1.8126614   -4.0145800   -1.9086515 
C    -4.4998195   -1.9886320    1.9842289 
C     2.6307079    4.0222099    2.4189524 
C     4.4103710    0.1783487   -2.3968802 
C     1.4176583   -5.3222662   -1.5902706 
C    -5.2059751   -2.7170661    1.0161024 
C     1.5004916    4.2822830    3.2058417 
C     5.6224718    0.0752634   -1.6993672 
H    -0.4915568   -0.7375843    2.4956109 
H     2.1244422   -1.7753197    1.2584010 
H    -1.0037161   -3.2215589    2.8251726 
H     0.3496396   -2.6534575    3.8304325 
H     0.6782796   -3.5985127    2.3483143 
H     3.2176778   -0.2524116    3.0096008 
H     1.6161704    0.0247289    3.7298109 
H     2.3368905   -1.6138859    3.7336119 
H    -1.1980574   -4.6259987    0.5054105 
H    -2.7161083   -3.1390976   -1.2893096 
H    -0.4191396    1.5978323    2.3097061 
H     4.4491742    0.2569147    1.5049602 
H     1.4267167   -1.9015499   -1.6189045 
H    -2.6146749   -1.1079599    2.5524499 
H     3.5697004    2.6912268    0.9942801 
H     2.2581249    0.3830646   -2.2347238 
H     0.0223735   -6.5572734   -0.4771229 
H    -5.1107738   -3.6762300   -0.9279396 
H    -0.4871199    3.6117098    3.7689338 
H     6.5707888    0.0217076    0.2522338 
H     2.6542501   -3.8410614   -2.5870839 
H    -5.0011877   -1.6603408    2.9005048 
H     3.4751246    4.7187342    2.4229736 
H     4.4006289    0.1594259   -3.4915595 
H     1.9509473   -6.1761091   -2.0207621 
H    -6.2618507   -2.9589943    1.1738806 
H     1.4643498    5.1771010    3.8355731 
H     6.5647296   -0.0246731   -2.2478102 
