87
Energy =
C    -1.8452395    0.2460069   -2.4181175 
C    -1.2258473    1.5146449   -2.2728483 
C     0.1680140    1.6795894   -2.5350237 
H    -1.7779969    2.3189544   -1.7708661 
Pd   -0.1298287    0.1268762   -0.9737979 
P     1.8747852    0.0483745    0.1638211 
P    -0.8301142   -1.4804260    0.5431029 
H    -1.3817318   -0.4559277   -3.1294310 
H     0.6176132    1.0176855   -3.2904854 
C    -5.8511552   -0.8689889   -1.3159232 
C    -5.2635305    0.2668098   -0.7325173 
C    -3.9662615    0.6494617   -1.0851848 
C    -3.2238527   -0.0989812   -2.0282327 
C    -3.8232546   -1.2446916   -2.5974227 
C    -5.1258437   -1.6221108   -2.2498942 
H    -6.8687664   -1.1639632   -1.0398985 
H    -5.8213403    0.8563238    0.0025336 
H    -3.5227893    1.5315322   -0.6123541 
H    -3.2573178   -1.8449267   -3.3178860 
H    -5.5717568   -2.5115988   -2.7059580 
C     2.5450946    5.1578698   -1.6229109 
C     1.2266162    5.0730236   -1.1462048 
C     0.4410390    3.9512145   -1.4327034 
C     0.9479498    2.8944155   -2.2255067 
C     2.2734461    3.0003393   -2.7086217 
C     3.0659176    4.1130403   -2.4030231 
H     3.1597565    6.0339377   -1.3921602 
H     0.8101806    5.8828298   -0.5381586 
H    -0.5746934    3.8988050   -1.0279341 
H     2.6871613    2.1943998   -3.3231112 
H     4.0914049    4.1673965   -2.7826158 
C     0.6836285   -2.2565187    1.4289453 
C     2.0203784   -1.7007551    0.8621553 
C     0.6589171   -3.7938240    1.4574124 
C     3.2128781   -1.8735353    1.8177886 
C    -1.8436110   -2.8332900   -0.1516233 
C    -1.7532918   -0.7381652    1.9413411 
C     1.8904658    1.2906771    1.4995785 
C     3.4167032    0.2403828   -0.8005797 
C    -1.3180481   -3.5217932   -1.2681928 
C    -2.1408186   -1.5070114    3.0614144 
C     2.2510560    2.6183097    1.1750179 
C     3.4250773   -0.2752477   -2.1139429 
C    -3.1356568   -3.1478496    0.3099386 
C    -1.9989910    0.6486825    1.9358037 
C     1.3818007    1.0087651    2.7856779 
C     4.5839922    0.8345481   -0.2798598 
C    -2.0554662   -4.5413021   -1.8808276 
C    -2.7804647   -0.8934442    4.1462540 
C     2.1295504    3.6330541    2.1323259 
C     4.5831858   -0.1963790   -2.8974433 
C    -3.8731720   -4.1647520   -0.3145040 
C    -2.6354688    1.2594125    3.0251626 
C     1.2625902    2.0303859    3.7369270 
C     5.7364014    0.9239905   -1.0737768 
C    -3.3341120   -4.8684290   -1.3998943 
C    -3.0300854    0.4888618    4.1281555 
C     1.6385518    3.3430393    3.4144882 
C     5.7382401    0.4111774   -2.3797807 
H     0.5669205   -1.8923971    2.4656616 
H     2.2345201   -2.2534391   -0.0760447 
H    -0.2913797   -4.1724200    1.8688973 
H     1.4778550   -4.1754410    2.0909639 
H     0.7792779   -4.2205776    0.4477097 
H     4.1445400   -1.5157547    1.3484835 
H     3.0622779   -1.3132804    2.7556872 
H     3.3559716   -2.9376245    2.0718130 
H    -0.3314553   -3.2501055   -1.6640633 
H    -1.9448132   -2.5848620    3.0895705 
H     2.6221308    2.8617620    0.1742227 
H     2.5138582   -0.7282119   -2.5243199 
H    -3.5796591   -2.5889330    1.1384969 
H    -1.6648667    1.2490646    1.0815919 
H     1.0642510   -0.0024907    3.0528862 
H     4.5928314    1.2323886    0.7398793 
H    -1.6362698   -5.0769088   -2.7388642 
H    -3.0829987   -1.4952011    5.0094554 
H     2.4150329    4.6557912    1.8661890 
H     4.5820580   -0.5989991   -3.9155715 
H    -4.8799932   -4.3978207    0.0464507 
H    -2.8151629    2.3392475    3.0145310 
H     0.8700905    1.7969675    4.7318089 
H     6.6380390    1.3932841   -0.6669885 
H    -3.9135062   -5.6626118   -1.8817779 
H    -3.5277943    0.9646606    4.9794810 
H     1.5455090    4.1390958    4.1603889 
H     6.6408464    0.4839104   -2.9951663 
