87
Energy =
C    -1.9468101    0.3778514   -2.1514569 
C    -1.1352576    1.5469652   -2.1403479 
C     0.2222056    1.5046424   -2.5519764 
H    -1.5037215    2.4539257   -1.6448886 
Pd   -0.1398959    0.0621984   -0.8556399 
P     1.8381476    0.0798131    0.3907733 
P    -0.7866309   -1.7295766    0.4659845 
H    -1.6809763   -0.4157469   -2.8658302 
H     0.5026070    0.7206143   -3.2727532 
C    -5.9223466    0.0340244   -0.5260920 
C    -5.2203083    1.2435626   -0.3928557 
C    -3.9345928    1.3768433   -0.9275199 
C    -3.3195732    0.3020245   -1.6137666 
C    -4.0495976   -0.8999677   -1.7612814 
C    -5.3321856   -1.0343249   -1.2172801 
H    -6.9267872   -0.0688309   -0.1031131 
H    -5.6804606    2.0896128    0.1285528 
H    -3.4078881    2.3294143   -0.8071917 
H    -3.5987421   -1.7399339   -2.2995801 
H    -5.8727836   -1.9787796   -1.3375781 
C     3.0279676    4.7585472   -2.3443866 
C     3.1286216    3.7901876   -3.3542324 
C     2.2118343    2.7322830   -3.4079969 
C     1.1608058    2.6378120   -2.4683615 
C     1.0639594    3.6280988   -1.4624952 
C     1.9924497    4.6710166   -1.3966813 
H     3.7517865    5.5783512   -2.2929222 
H     3.9298457    3.8522629   -4.0978783 
H     2.3067230    1.9683184   -4.1872689 
H     0.2788198    3.5611579   -0.7030901 
H     1.9137339    5.4160694   -0.5983443 
C     0.8266778   -2.5002701    1.0847582 
C     1.7644101   -1.3810216    1.6251690 
C     1.4821451   -3.3358032   -0.0262352 
C     1.4014112   -0.9039416    3.0446269 
C    -1.7133048   -3.0214574   -0.4489287 
C    -1.7925152   -1.3530677    1.9470215 
C     1.8547231    1.5966802    1.4270533 
C     3.4804211    0.0466726   -0.4212531 
C    -1.3241978   -3.3033620   -1.7782328 
C    -1.8497676   -2.2119996    3.0657121 
C     3.0436155    2.1383633    1.9570247 
C     4.2478023   -1.1298004   -0.5538445 
C    -2.8500479   -3.6580024    0.0864949 
C    -2.5613266   -0.1727089    1.9394342 
C     0.6199606    2.2057256    1.7342423 
C     3.9550031    1.2440816   -1.0046519 
C    -2.0447902   -4.2248571   -2.5468829 
C    -2.6572556   -1.8818719    4.1619773 
C     2.9930934    3.2819208    2.7659134 
C     5.4660713   -1.1072330   -1.2469794 
C    -3.5743507   -4.5736221   -0.6915775 
C    -3.3740447    0.1488858    3.0344988 
C     0.5733402    3.3435580    2.5499858 
C     5.1736300    1.2586675   -1.6940374 
C    -3.1741685   -4.8607311   -2.0043292 
C    -3.4186178   -0.7018528    4.1485183 
C     1.7614466    3.8866734    3.0621711 
C     5.9319966    0.0852658   -1.8193699 
H     0.5738174   -3.1722115    1.9250834 
H     2.7882275   -1.7953211    1.6599816 
H     0.8337187   -4.1674270   -0.3439016 
H     2.4269555   -3.7696112    0.3460414 
H     1.7149732   -2.7212230   -0.9160502 
H     2.1822301   -0.2402907    3.4480271 
H     0.4455515   -0.3566888    3.0750987 
H     1.3124910   -1.7790520    3.7121061 
H    -0.4642389   -2.7841099   -2.2170974 
H    -1.2684436   -3.1398599    3.0876026 
H     4.0090354    1.6728524    1.7340561 
H     3.9105552   -2.0715675   -0.1142949 
H    -3.1849794   -3.4265273    1.1018644 
H    -2.5353536    0.4833735    1.0637216 
H    -0.3061306    1.7815234    1.3261883 
H     3.3811820    2.1701396   -0.9069259 
H    -1.7334131   -4.4384195   -3.5745373 
H    -2.6946165   -2.5496456    5.0288353 
H     3.9209254    3.7004932    3.1692556 
H     6.0542172   -2.0266025   -1.3337860 
H    -4.4598960   -5.0589805   -0.2685371 
H    -3.9748375    1.0638077    3.0125084 
H    -0.3905413    3.8080129    2.7825104 
H     5.5263906    2.1967481   -2.1341181 
H    -3.7445729   -5.5733215   -2.6088455 
H    -4.0490132   -0.4493898    5.0073471 
H     1.7282755    4.7797420    3.6947694 
H     6.8851802    0.1002281   -2.3576836 
