101
Energy =
C     0.4188190   -2.9467384   -0.8509716 
C     0.6402281   -2.9579157    0.5604266 
C    -0.4188767   -2.7447145    1.4728398 
H     1.6721132   -2.9706797    0.9337452 
Pd   -0.1687097   -0.9789033    0.0416986 
P    -0.5175639    0.8886290    1.3724444 
P    -0.2277050    0.4426838   -1.7996543 
H    -0.5571715   -3.2989974   -1.2115984 
H    -1.4420841   -2.9047264    1.0987816 
C     3.5827890   -3.0819885   -3.7769012 
C     3.8312532   -2.5461717   -2.5022594 
C     2.8129568   -2.5038714   -1.5433001 
C     1.5211285   -3.0069215   -1.8322053 
C     1.2904924   -3.5512820   -3.1157780 
C     2.3081743   -3.5856344   -4.0781654 
H     4.3783016   -3.1084721   -4.5283610 
H     4.8216805   -2.1478055   -2.2584025 
H     3.0141834   -2.0462457   -0.5689847 
H     0.3034647   -3.9635961   -3.3540214 
H     2.1069531   -4.0148174   -5.0652061 
C    -0.1885844   -2.5150787    5.7672526 
C    -1.4217749   -2.4146199    5.1057140 
C    -1.4781596   -2.5138959    3.7099078 
C    -0.3049492   -2.7003633    2.9412362 
C     0.9251701   -2.8352103    3.6276678 
C     0.9812802   -2.7401730    5.0221148 
H    -0.1401287   -2.4407245    6.8583388 
H    -2.3433333   -2.2681908    5.6784939 
H    -2.4458467   -2.4562302    3.2000449 
H     1.8482578   -3.0260079    3.0712571 
H     1.9435778   -2.8481422    5.5329518 
C     0.8014867    1.3310000    2.6809792 
C    -1.9245264    0.9182084    2.6292572 
C    -1.4906056    0.1735700   -3.1780714 
C     1.2595502    0.3744221   -2.9921566 
C     0.0299210    1.4345940    4.0233304 
C    -1.4247428    1.8380451    3.7580084 
C    -0.6960451   -0.6977098   -4.1645773 
C     0.6526018   -0.0012205   -4.3707207 
C    -0.5686300    2.3591261    0.2450803 
C    -0.4949340    2.1515429   -1.1576080 
C     2.0046494    0.3586502    2.7339664 
C    -3.4016566    1.0688840    2.2013560 
C    -2.9152026   -0.2979833   -2.8201403 
C     2.2336762    1.5768377   -3.0374690 
C     2.8096398    0.3515403    1.4305784 
C     2.9225447    0.6714172    3.9309972 
C    -3.8752057   -0.1647123    1.4148840 
C    -3.7352398    2.3836584    1.4782976 
C    -3.6740918    0.8069954   -2.0699448 
C    -2.9596238   -1.6440255   -2.0815203 
C     3.3307526    1.3231382   -4.0933091 
C     2.8771152    1.8621621   -1.6746644 
C    -0.6733627    3.6766540    0.7368186 
C    -0.5887181    3.2552631   -2.0298910 
C    -0.7478924    4.7660405   -0.1392002 
C    -0.7200601    4.5547584   -1.5259613 
H     1.1632175    2.3337205    2.3813167 
H    -1.8103230   -0.1161213    3.0160627 
H    -1.5841443    1.1813008   -3.6310631 
H     1.8207771   -0.4973931   -2.6093822 
H     0.0365163    0.4426183    4.5136716 
H     0.5374845    2.1394990    4.7029209 
H    -1.5035130    2.9033603    3.4745678 
H    -2.0506581    1.7030634    4.6586798 
H    -0.5422451   -1.7095070   -3.7494363 
H    -1.2511091   -0.8114171   -5.1126642 
H     0.4958101    0.9209229   -4.9624482 
H     1.3570406   -0.6385330   -4.9299188 
H     1.5850903   -0.6523088    2.8869597 
H    -3.9606838    1.0774335    3.1589819 
H    -3.4199454   -0.4438511   -3.7966204 
H     1.6646461    2.4736071   -3.3513663 
H     2.1663884    0.0900709    0.5683182 
H     3.6265624   -0.3902800    1.4782829 
H     3.2623627    1.3394659    1.2338274 
H     3.7904000   -0.0110225    3.9312614 
H     2.4050258    0.5488181    4.8968612 
H     3.3090725    1.7059166    3.8747935 
H    -3.8176568   -1.0764912    2.0341956 
H    -4.9197957   -0.0490166    1.0796848 
H    -3.2500722   -0.3297364    0.5221032 
H    -3.2617457    2.4360233    0.4840954 
H    -4.8260442    2.4696688    1.3349751 
H    -3.4040259    3.2642101    2.0549607 
H    -3.1625197    1.0615166   -1.1267879 
H    -4.7017916    0.4926210   -1.8215333 
H    -3.7323223    1.7304064   -2.6724765 
H    -2.4899578   -2.4503787   -2.6708384 
H    -4.0017120   -1.9397441   -1.8734375 
H    -2.4260192   -1.5783412   -1.1122964 
H     3.8816262    0.3926113   -3.8638312 
H     4.0541750    2.1566286   -4.0959975 
H     2.9205417    1.2347209   -5.1128322 
H     3.4725685    0.9942411   -1.3406730 
H     3.5531321    2.7320792   -1.7379152 
H     2.1233306    2.0813004   -0.9001906 
H    -0.7087802    3.8583705    1.8146488 
H    -0.5535212    3.1022394   -3.1136424 
H    -0.8349663    5.7809744    0.2614506 
H    -0.7895518    5.4026817   -2.2146939 
