101
Energy =
C     0.2078217   -2.9371712   -0.8521658 
C     0.6102154   -2.9894552    0.5168011 
C    -0.2919929   -2.6569377    1.5538489 
H     1.6733731   -3.1211073    0.7533089 
Pd   -0.0427294   -0.9360902    0.0759769 
P    -0.3653626    0.9925933    1.3398733 
P    -0.1444318    0.4085527   -1.8103014 
H    -0.8445940   -3.1685475   -1.0709982 
H    -1.3670913   -2.7120106    1.3213538 
C     2.8786239   -3.3818522   -4.2064713 
C     1.5193724   -3.7079568   -4.3265512 
C     0.6617073   -3.5725868   -3.2265238 
C     1.1432322   -3.1050557   -1.9834980 
C     2.5169918   -2.7807597   -1.8777192 
C     3.3741778   -2.9222880   -2.9746831 
H     3.5493145   -3.4876724   -5.0650930 
H     1.1253593   -4.0757803   -5.2796502 
H    -0.3961043   -3.8407885   -3.3265531 
H     2.9128641   -2.3878705   -0.9347277 
H     4.4332405   -2.6636193   -2.8717266 
C     0.5607825   -2.4225010    5.7655161 
C    -0.7338212   -2.1826225    5.2793398 
C    -0.9979630   -2.2890166    3.9084634 
C     0.0283712   -2.6155664    2.9907840 
C     1.3204320   -2.8825679    3.5002473 
C     1.5814087   -2.7866118    4.8709750 
H     0.7704113   -2.3444161    6.8370404 
H    -1.5421670   -1.9241113    5.9712185 
H    -2.0157211   -2.1246119    3.5360315 
H     2.1325378   -3.1625298    2.8227849 
H     2.5882709   -2.9965987    5.2461646 
C     0.7599293    1.6136525    2.7377715 
C    -1.8957544    1.0137600    2.4242364 
C    -1.3952441    0.0698860   -3.1963367 
C     1.3545844    0.4670619   -2.9568108 
C    -0.2108927    2.0877189    3.8706298 
C    -1.6659117    2.1967802    3.3779859 
C    -0.5215529   -0.2221161   -4.4402539 
C     0.7576714    0.6188583   -4.3721682 
C    -0.4320327    2.4152455    0.1527021 
C    -0.4456977    2.1378081   -1.2389728 
C     1.7971102    0.5849779    3.2604288 
C    -3.2860089    0.8428655    1.7721642 
C    -2.4460207   -1.0191088   -2.8791016 
C     2.4709317    1.4658005   -2.5800866 
C     2.7379260    0.0515787    2.1721326 
C     2.6258394    1.1949441    4.4087986 
C    -3.7220984    2.0214529    0.8859630 
C    -4.3441173    0.5475413    2.8542946 
C    -3.3569009   -1.2805821   -4.0936141 
C    -3.2771553   -0.6590942   -1.6416841 
C     3.6433146    1.3625493   -3.5755593 
C     2.9620130    1.2479168   -1.1423450 
C    -0.4914128    3.7580912    0.5817132 
C    -0.5931487    3.1968358   -2.1578908 
C    -0.6248809    4.8022262   -0.3419908 
C    -0.6954240    4.5210544   -1.7138267 
H     1.3046532    2.4716123    2.3010300 
H    -1.6965745    0.0903418    3.0074285 
H    -1.9236485    1.0335050   -3.3357897 
H     1.7607918   -0.5596477   -2.8636119 
H    -0.1831338    1.3277597    4.6722640 
H     0.1431444    3.0340153    4.3128848 
H    -1.8594588    3.1535953    2.8633619 
H    -2.3652340    2.1540363    4.2313604 
H    -0.2499359   -1.2935067   -4.4450032 
H    -1.0880898   -0.0212622   -5.3651664 
H     0.5376905    1.6842332   -4.5771985 
H     1.4846230    0.2909295   -5.1345089 
H     1.2247375   -0.2669880    3.6715532 
H    -3.2166415   -0.0570709    1.1323151 
H    -1.8900178   -1.9522935   -2.6632825 
H     2.0501418    2.4884069   -2.6499163 
H     2.1761044   -0.4274585    1.3466515 
H     3.4247280   -0.7008708    2.5960238 
H     3.3506198    0.8629667    1.7406497 
H     3.3422122    0.4491569    4.7943923 
H     1.9988043    1.5199167    5.2554277 
H     3.2039177    2.0686936    4.0546463 
H    -3.0316894    2.1838457    0.0425991 
H    -4.7248865    1.8283198    0.4675481 
H    -3.7795827    2.9609129    1.4639477 
H    -4.5132496    1.4248711    3.5035200 
H    -5.3103257    0.2895104    2.3876297 
H    -4.0408891   -0.2980967    3.4977756 
H    -3.8846444   -0.3570168   -4.3951691 
H    -4.1205606   -2.0371661   -3.8432808 
H    -2.7913427   -1.6518784   -4.9644926 
H    -2.6228378   -0.5183948   -0.7604523 
H    -4.0004583   -1.4568986   -1.3995890 
H    -3.8415696    0.2779460   -1.7974159 
H     4.0555108    0.3366438   -3.5872519 
H     4.4546508    2.0518813   -3.2846198 
H     3.3389551    1.6207665   -4.6035214 
H     3.3495407    0.2218413   -1.0091176 
H     3.7715769    1.9539419   -0.8894640 
H     2.1491550    1.3962911   -0.4111516 
H    -0.4351722    4.0010321    1.6459372 
H    -0.6162418    2.9919654   -3.2327780 
H    -0.6773186    5.8367668    0.0118895 
H    -0.8096500    5.3326971   -2.4392998 
