101
Energy =
C     0.2054187   -2.9731584   -0.7388677 
C     0.4708844   -2.9743335    0.6632486 
C    -0.5563128   -2.6530973    1.5852329 
H     1.5071939   -3.0697599    1.0119725 
Pd   -0.1860782   -0.9496307    0.1385002 
P    -0.4857215    0.9331669    1.4491410 
P    -0.1047946    0.4945556   -1.6899256 
H    -0.8144871   -3.2417598   -1.0491109 
H    -1.5912873   -2.7626799    1.2252148 
C     3.2125629   -3.5451580   -3.7702859 
C     1.9081073   -4.0252847   -3.9602682 
C     0.9368507   -3.8368649   -2.9679583 
C     1.2518029   -3.1678289   -1.7632706 
C     2.5719101   -2.6912715   -1.5849562 
C     3.5404281   -2.8793730   -2.5771485 
H     3.9710233   -3.6884483   -4.5465146 
H     1.6456921   -4.5510862   -4.8840897 
H    -0.0778332   -4.2220256   -3.1197194 
H     2.8313893   -2.1449744   -0.6703725 
H     4.5557039   -2.4985188   -2.4239657 
C    -0.3104014   -2.3944379    5.8763485 
C    -1.5433889   -2.2811751    5.2162093 
C    -1.6027890   -2.3812469    3.8206169 
C    -0.4322032   -2.5856273    3.0518240 
C     0.7988689   -2.7227872    3.7353189 
C     0.8575061   -2.6253555    5.1296860 
H    -0.2598958   -2.3192616    6.9672098 
H    -2.4623447   -2.1235501    5.7901533 
H    -2.5712351   -2.3128514    3.3116913 
H     1.7197035   -2.9191136    3.1773974 
H     1.8201753   -2.7360439    5.6391888 
C     0.8155842    1.2919384    2.7752807 
C    -1.9592824    1.0352236    2.6260454 
C    -1.2272426    0.1953228   -3.1978180 
C     1.5296313    0.5644092   -2.6660733 
C     0.0365343    1.1461022    4.1038349 
C    -1.3874145    1.6795605    3.9072632 
C    -0.2495963    0.3632653   -4.3887583 
C     1.1085781   -0.1955643   -3.9469552 
C    -0.5721082    2.3976311    0.3325884 
C    -0.5351623    2.1802144   -1.0686533 
C     2.0796565    0.4070787    2.6586143 
C    -3.2613912    1.6454233    2.0624027 
C    -1.9553303   -1.1795247   -3.1564061 
C     2.1624966    1.9664684   -2.9048498 
C     2.8486793    0.6819709    1.3602832 
C     2.9949116    0.5680745    3.8855047 
C    -4.3782415    1.6112438    3.1238862 
C    -3.7077621    0.9306173    0.7780239 
C    -2.7421223   -1.4437142   -4.4556880 
C    -2.9061697   -1.2835537   -1.9546244 
C     3.2830823    1.8976142   -3.9637479 
C     2.7262806    2.5685961   -1.6076690 
C    -0.7603798    3.7036570    0.8270885 
C    -0.7688234    3.2618649   -1.9417461 
C    -0.9527599    4.7770562   -0.0527319 
C    -0.9796564    4.5515814   -1.4371585 
H     1.0994049    2.3536485    2.6315039 
H    -2.1466220   -0.0337746    2.8473509 
H    -1.9957921    0.9901368   -3.1857754 
H     2.2464380   -0.0443723   -2.0871223 
H    -0.0067438    0.0773742    4.3840486 
H     0.5584931    1.6765869    4.9180197 
H    -1.3805957    2.7823139    3.8072680 
H    -2.0223078    1.4399985    4.7775478 
H    -0.6290178   -0.1432683   -5.2905859 
H    -0.1489749    1.4331608   -4.6488940 
H     1.8763657   -0.1105027   -4.7316071 
H     1.0144798   -1.2720156   -3.7193692 
H     1.7284553   -0.6419320    2.6327515 
H    -3.0622642    2.7060381    1.8134855 
H    -1.1808529   -1.9646143   -3.0600431 
H     1.3858960    2.6515658   -3.2924544 
H     2.2058651    0.5166302    0.4760922 
H     3.7208286    0.0111257    1.2683127 
H     3.2159223    1.7231735    1.3265898 
H     3.9084321   -0.0394358    3.7619856 
H     2.4991905    0.2393871    4.8143243 
H     3.3068566    1.6210673    4.0135571 
H    -4.1192045    2.2031424    4.0175971 
H    -5.3135329    2.0245418    2.7088610 
H    -4.5817585    0.5732605    3.4469524 
H    -3.8659177   -0.1484737    0.9603923 
H    -4.6546679    1.3525334    0.4002183 
H    -2.9550881    1.0311113   -0.0227032 
H    -3.4798394   -0.6411163   -4.6396473 
H    -3.2952123   -2.3953468   -4.3746280 
H    -2.0889181   -1.5184862   -5.3403939 
H    -2.3706030   -1.1234410   -0.9971753 
H    -3.3780985   -2.2805601   -1.9112812 
H    -3.7106489   -0.5288970   -2.0197999 
H     4.0386279    1.1380327   -3.6905808 
H     3.7948148    2.8731437   -4.0296218 
H     2.9023831    1.6580517   -4.9701549 
H     1.9685455    2.6368820   -0.8111547 
H     3.5635197    1.9544443   -1.2308795 
H     3.1103181    3.5864156   -1.7918722 
H    -0.7686958    3.8860063    1.9065383 
H    -0.7818166    3.1029250   -3.0248516 
H    -1.0997202    5.7868111    0.3434531 
H    -1.1563840    5.3831513   -2.1266910 
