101
Energy =
C    -0.0751385   -2.9384350   -0.7648119 
C     0.4832139   -2.9834865    0.5449614 
C    -0.2932701   -2.6091132    1.6686707 
H     1.5593946   -3.1631813    0.6614073 
Pd   -0.1190414   -0.9034323    0.1579194 
P    -0.4450920    1.0100864    1.4480410 
P    -0.0920653    0.4842510   -1.7044131 
H    -1.1623433   -3.0911082   -0.8384382 
H    -1.3860591   -2.6479383    1.5508165 
C     2.0551977   -3.8184074   -4.4022690 
C     2.7386883   -3.2441586   -3.3170111 
C     2.0595495   -2.9574112   -2.1274102 
C     0.6788006   -3.2363849   -1.9986876 
C     0.0051497   -3.8159667   -3.0971982 
C     0.6872974   -4.1081475   -4.2855887 
H     2.5883041   -4.0409211   -5.3320654 
H     3.8065021   -3.0161356   -3.4009177 
H     2.5999842   -2.4946389   -1.2934427 
H    -1.0636438   -4.0420260   -3.0138220 
H     0.1482959   -4.5619970   -5.1235933 
C     0.9902514   -2.4273180    5.7733628 
C    -0.3493402   -2.1907584    5.4273974 
C    -0.7526464   -2.2761846    4.0895254 
C     0.1750526   -2.5799906    3.0647333 
C     1.5141739   -2.8446346    3.4342004 
C     1.9150526   -2.7679754    4.7720071 
H     1.3093042   -2.3636616    6.8184855 
H    -1.0834109   -1.9503140    6.2034169 
H    -1.8043162   -2.1133604    3.8280358 
H     2.2547632   -3.1052177    2.6721022 
H     2.9570147   -2.9744885    5.0372288 
C     0.6473184    1.6467785    2.8716602 
C    -1.9948205    0.9892935    2.5210856 
C    -1.1189389    0.1346302   -3.2554255 
C     1.5593528    0.5994807   -2.6448125 
C    -0.3452368    2.0850520    3.9989216 
C    -1.7943377    2.1642605    3.4912317 
C    -0.0664949   -0.3357818   -4.2812539 
C     1.1577101    0.5702109   -4.1353156 
C    -0.5362267    2.4461255    0.2729945 
C    -0.4896594    2.1891646   -1.1230479 
C     1.7072819    0.6472752    3.4073631 
C    -3.3969525    0.8452534    1.8891083 
C    -2.3407030   -0.7857189   -3.0240019 
C     2.5171598    1.7394599   -2.2337207 
C     2.6876246    0.1468494    2.3402876 
C     2.4958886    1.2783952    4.5730408 
C    -3.5858697   -0.5426420    1.2532093 
C    -3.7779133    1.9863900    0.9314349 
C    -2.8577942   -1.4078979   -4.3335811 
C    -3.4554560   -0.0038387   -2.3147401 
C     3.7613377    1.7618543   -3.1440630 
C     2.9323053    1.6170379   -0.7633034 
C    -0.6549709    3.7805160    0.7145292 
C    -0.6349428    3.2549052   -2.0336056 
C    -0.7936913    4.8318614   -0.2005903 
C    -0.8034241    4.5682615   -1.5775510 
H     1.1714322    2.5228620    2.4454804 
H    -1.7931329    0.0615855    3.0960635 
H    -1.4904188    1.1263032   -3.5819010 
H     2.0407287   -0.3683196   -2.4052745 
H    -0.3067673    1.3168901    4.7921599 
H    -0.0180822    3.0344752    4.4548567 
H    -2.0059178    3.1230702    2.9879908 
H    -2.5094483    2.0898323    4.3305794 
H     0.2167748   -1.3840101   -4.0829150 
H    -0.4815790   -0.2950550   -5.3024339 
H     0.9184693    1.5961182   -4.4774309 
H     1.9981682    0.2092966   -4.7520462 
H     1.1542184   -0.2222168    3.8062739 
H    -4.0936352    0.9002156    2.7502015 
H    -2.0135837   -1.6110268   -2.3626968 
H     1.9825391    2.7000714   -2.3670186 
H     2.1615838   -0.3345351    1.4938294 
H     3.3758414   -0.5957206    2.7775917 
H     3.2965800    0.9765037    1.9412849 
H     3.2308391    0.5536567    4.9636087 
H     1.8463247    1.5748620    5.4129313 
H     3.0493313    2.1738430    4.2338866 
H    -3.4791989   -1.3409943    2.0091240 
H    -4.5860750   -0.6391061    0.7985415 
H    -2.8346593   -0.7268543    0.4608284 
H    -3.1484409    1.9870881    0.0263080 
H    -4.8279535    1.8785534    0.6102682 
H    -3.6729853    2.9750521    1.4095597 
H    -3.1323485   -0.6258509   -5.0649679 
H    -3.7608913   -2.0109566   -4.1349180 
H    -2.1084962   -2.0687039   -4.8007954 
H    -3.0763865    0.4979252   -1.4095119 
H    -4.2850234   -0.6654391   -2.0130826 
H    -3.8657457    0.7776106   -2.9803344 
H     4.2958585    0.7946109   -3.1035887 
H     4.4610792    2.5477689   -2.8112142 
H     3.5045974    1.9680121   -4.1963298 
H     3.4720354    0.6691680   -0.5876079 
H     3.5956121    2.4472982   -0.4660228 
H     2.0566129    1.6311417   -0.0932543 
H    -0.6415579    4.0121133    1.7825413 
H    -0.6008426    3.0635072   -3.1112197 
H    -0.8954954    5.8588385    0.1644405 
H    -0.9181309    5.3857951   -2.2962829 
