101
Energy =
C     0.4710667   -2.9030184   -0.8161694 
C     0.6967411   -2.9588190    0.5957984 
C    -0.3809837   -2.7504823    1.4885233 
H     1.7236014   -2.9817646    0.9817801 
Pd   -0.0888339   -0.9671536    0.1009102 
P    -0.4299758    0.9358386    1.4013385 
P    -0.1944823    0.3956089   -1.7809207 
H    -0.5091023   -3.2510416   -1.1711069 
H    -1.3943777   -2.8905230    1.0807141 
C     3.5048800   -2.7332354   -3.8736252 
C     3.8200146   -2.3615105   -2.5555586 
C     2.8501404   -2.4315606   -1.5495408 
C     1.5402021   -2.8836292   -1.8358009 
C     1.2420476   -3.2665600   -3.1633384 
C     2.2118453   -3.1889630   -4.1719140 
H     4.2635926   -2.6709523   -4.6601982 
H     4.8261647   -2.0039661   -2.3131240 
H     3.1055846   -2.1039734   -0.5367068 
H     0.2379723   -3.6337834   -3.4038078 
H     1.9582495   -3.4919562   -5.1931376 
C    -0.2912468   -2.5414808    5.7849500 
C    -1.4770805   -2.2931529    5.0755455 
C    -1.4907465   -2.3883360    3.6792263 
C    -0.3181952   -2.7182327    2.9599110 
C     0.8609806   -2.9932225    3.6904252 
C     0.8727872   -2.9029036    5.0868980 
H    -0.2779968   -2.4722283    6.8773626 
H    -2.3948080   -2.0328022    5.6130604 
H    -2.4206876   -2.2046459    3.1287077 
H     1.7762437   -3.2871681    3.1666608 
H     1.7945678   -3.1217040    5.6355546 
C     0.8381526    1.2775418    2.7839692 
C    -1.9518450    1.2260884    2.5075949 
C    -1.5081243   -0.0627565   -3.0883148 
C     1.2183154    0.5888122   -3.0348974 
C    -0.0182635    1.3649038    4.0724173 
C    -1.3914311    1.9506498    3.7493311 
C    -0.7225173   -0.1427622   -4.4249583 
C     0.5022980    0.7682406   -4.3901078 
C    -0.4292959    2.3671930    0.2269168 
C    -0.5312669    2.1098563   -1.1675082 
C     1.9752505    0.2319689    2.9178919 
C    -3.1776850    1.9160214    1.8647324 
C    -2.3017412   -1.3730104   -2.8296986 
C     2.2928954    1.6654968   -2.7541659 
C     2.8575104    0.1167615    1.6730032 
C     2.8412649    0.5179330    4.1607504 
C    -4.3137061    2.0762006    2.8953372 
C    -3.6789967    1.1659940    0.6270499 
C    -3.2484415   -1.6741373   -4.0107302 
C    -3.0948780   -1.3835758   -1.5200045 
C     3.3951091    1.6104851   -3.8321343 
C     2.9064632    1.5333854   -1.3584599 
C    -0.4704964    3.6988357    0.6862237 
C    -0.7491423    3.1851454   -2.0520794 
C    -0.6536551    4.7611785   -0.2090780 
C    -0.8179952    4.5017115   -1.5770776 
H     1.2724666    2.2692340    2.5474122 
H    -2.2359806    0.1965237    2.8021967 
H    -2.2111014    0.7930598   -3.1018830 
H     1.6984807   -0.4093952   -3.0118969 
H    -0.1449448    0.3433755    4.4791707 
H     0.5021330    1.9601084    4.8412626 
H    -1.3172237    3.0359876    3.5447177 
H    -2.0782865    1.8365755    4.6055657 
H    -0.3823038   -1.1860014   -4.5615327 
H    -1.3810594    0.0995172   -5.2757429 
H     0.2116120    1.8280412   -4.5191148 
H     1.1877092    0.5272182   -5.2204011 
H     1.4809988   -0.7437049    3.0737843 
H    -2.8632159    2.9296474    1.5491375 
H    -1.5510969   -2.1857774   -2.7842676 
H     1.7989545    2.6547739   -2.8201519 
H     2.2513557   -0.1503751    0.7867441 
H     3.6193736   -0.6712491    1.8098409 
H     3.3853442    1.0624658    1.4582124 
H     3.6652285   -0.2141399    4.2223800 
H     2.2657746    0.4454627    5.0981395 
H     3.2916875    1.5264802    4.1073982 
H    -4.0228928    2.7190742    3.7425498 
H    -5.1964807    2.5350088    2.4177322 
H    -4.6214979    1.0935809    3.2985614 
H    -3.9771069    0.1342940    0.8864416 
H    -4.5554331    1.6719157    0.1870031 
H    -2.8997095    1.1105227   -0.1507235 
H    -3.9688122   -0.8476678   -4.1541641 
H    -3.8271814   -2.5916509   -3.8078525 
H    -2.7075133   -1.8256558   -4.9589405 
H    -2.4404746   -1.1757173   -0.6494227 
H    -3.5646705   -2.3698694   -1.3603014 
H    -3.8960870   -0.6252408   -1.5344442 
H     3.8715384    0.6130385   -3.8490479 
H     4.1771358    2.3580496   -3.6138599 
H     3.0058847    1.8223436   -4.8417198 
H     3.3730179    0.5416823   -1.2283667 
H     3.6826034    2.3008626   -1.1951788 
H     2.1429218    1.6600573   -0.5739944 
H    -0.3719381    3.9126209    1.7551978 
H    -0.8560025    2.9991429   -3.1251335 
H    -0.6842637    5.7895589    0.1647298 
H    -0.9848874    5.3253817   -2.2784576 
