101
Energy =
C     0.4007436   -2.9504265   -0.8407465 
C     0.6163773   -2.9599445    0.5714482 
C    -0.4441811   -2.7355051    1.4793487 
H     1.6465440   -2.9804564    0.9490220 
Pd   -0.1740801   -0.9752506    0.0441215 
P    -0.5188212    0.8997430    1.3659923 
P    -0.2150786    0.4388435   -1.8037889 
H    -0.5767233   -3.2951900   -1.2044556 
H    -1.4674888   -2.8865664    1.1018775 
C     3.5723019   -3.1125915   -3.7568688 
C     2.2935664   -3.6027231   -4.0629253 
C     1.2736142   -3.5604483   -3.1032717 
C     1.5059017   -3.0209546   -1.8179422 
C     2.8018934   -2.5316058   -1.5241759 
C     3.8225050   -2.5822903   -2.4802596 
H     4.3696697   -3.1453580   -4.5061065 
H     2.0908326   -4.0275328   -5.0515443 
H     0.2831232   -3.9622128   -3.3451695 
H     3.0050771   -2.0781014   -0.5483464 
H     4.8162327   -2.1946298   -2.2326248 
C    -0.2242038   -2.5051137    5.7742841 
C    -1.4540713   -2.3896853    5.1090152 
C    -1.5076153   -2.4892732    3.7131255 
C    -0.3345410   -2.6906559    2.9480778 
C     0.8918464   -2.8399499    3.6382191 
C     0.9449933   -2.7449553    5.0327692 
H    -0.1781289   -2.4309375    6.8654881 
H    -2.3754484   -2.2317162    5.6790259 
H    -2.4730211   -2.4200557    3.2004215 
H     1.8143458   -3.0411171    3.0844745 
H     1.9044335   -2.8640505    5.5465015 
C     0.7908944    1.3430075    2.6839266 
C    -1.9364622    0.9443557    2.6100451 
C    -1.4701535    0.1791228   -3.1920920 
C     1.2799527    0.3597214   -2.9856574 
C     0.0058074    1.4740343    4.0167143 
C    -1.4456224    1.8763919    3.7325309 
C    -0.6728755   -0.6870694   -4.1809679 
C     0.6800548    0.0050850   -4.3722410 
C    -0.5530587    2.3659703    0.2320919 
C    -0.4729681    2.1520758   -1.1692970 
C     1.9799679    0.3553031    2.7671276 
C    -3.4089442    1.0937357    2.1662263 
C    -2.8982472   -0.2908996   -2.8461560 
C     2.2713000    1.5482698   -3.0089398 
C     2.7986417    0.3100462    1.4730200 
C     2.8908905    0.6799708    3.9664968 
C    -3.8764716   -0.1452800    1.3846278 
C    -3.7320633    2.4038211    1.4299164 
C    -3.6606093    0.8140691   -2.0996252 
C    -2.9511158   -1.6380867   -2.1103108 
C     3.3751785    1.2906754   -4.0565634 
C     2.9037243    1.8088164   -1.6361521 
C    -0.6505753    3.6863939    0.7176282 
C    -0.5521897    3.2530046   -2.0465525 
C    -0.7116769    4.7727028   -0.1632532 
C    -0.6767631    4.5555882   -1.5488956 
H     1.1699771    2.3362636    2.3744254 
H    -1.8275674   -0.0860406    3.0088261 
H    -1.5587423    1.1899618   -3.6389524 
H     1.8249258   -0.5239269   -2.6063968 
H     0.0047384    0.4906802    4.5242301 
H     0.5093634    2.1888323    4.6888770 
H    -1.5207555    2.9382737    3.4359654 
H    -2.0799864    1.7529544    4.6289648 
H    -0.5259355   -1.7031824   -3.7740144 
H    -1.2226778   -0.7898579   -5.1333584 
H     0.5317316    0.9350234   -4.9540044 
H     1.3843846   -0.6292985   -4.9349904 
H     1.5449602   -0.6464183    2.9365903 
H    -3.9779514    1.1107088    3.1178624 
H    -3.3956079   -0.4339238   -3.8268334 
H     1.7181632    2.4565392   -3.3181928 
H     2.1603227    0.0443719    0.6081976 
H     3.6014610   -0.4452277    1.5436814 
H     3.2713442    1.2858893    1.2635331 
H     3.7478391   -0.0156779    3.9903517 
H     2.3624733    0.5867698    4.9297102 
H     3.2941132    1.7068788    3.8914605 
H    -3.8275936   -1.0520295    2.0120322 
H    -4.9170834   -0.0304183    1.0370586 
H    -3.2418855   -0.3190360    0.5000741 
H    -3.2455249    2.4492870    0.4417172 
H    -4.8208142    2.4897996    1.2717927 
H    -3.4075028    3.2879523    2.0049085 
H    -3.1537651    1.0675815   -1.1536773 
H    -4.6898447    0.5003721   -1.8567371 
H    -3.7149988    1.7378568   -2.7019388 
H    -2.4742597   -2.4434056   -2.6952783 
H    -3.9955910   -1.9343306   -1.9152939 
H    -2.4292796   -1.5737377   -1.1347794 
H     3.9102769    0.3496907   -3.8324602 
H     4.1105210    2.1135540   -4.0426194 
H     2.9737244    1.2198779   -5.0809490 
H     3.4810535    0.9277875   -1.3046135 
H     3.5941313    2.6684555   -1.6818416 
H     2.1442843    2.0315060   -0.8681679 
H    -0.6904731    3.8731919    1.7943806 
H    -0.5107973    3.0952628   -3.1294457 
H    -0.7931262    5.7899106    0.2327951 
H    -0.7352401    5.4011640   -2.2415245 
