101
Energy =
C    -0.0418632   -2.9388146   -0.7763081 
C     0.5605443   -2.9673960    0.5137188 
C    -0.1751326   -2.5687797    1.6574190 
H     1.6385012   -3.1544529    0.5964787 
Pd   -0.0398712   -0.8893023    0.1217946 
P    -0.3949268    1.0230770    1.4028594 
P    -0.0409023    0.4921174   -1.7439817 
H    -1.1332108   -3.0747704   -0.8110665 
H    -1.2713655   -2.6136821    1.5814917 
C     1.9385532   -3.9158670   -4.4719739 
C     0.5717503   -4.1818769   -4.2995581 
C    -0.0610326   -3.8575420   -3.0923726 
C     0.6624545   -3.2702391   -2.0301157 
C     2.0416134   -3.0162139   -2.2144586 
C     2.6709472   -3.3335774   -3.4234176 
H     2.4330353   -4.1626575   -5.4168682 
H    -0.0050337   -4.6410538   -5.1090008 
H    -1.1298379   -4.0626822   -2.9654754 
H     2.6203029   -2.5494068   -1.4090413 
H     3.7381901   -3.1240545   -3.5511665 
C     1.2458145   -2.3158324    5.7123201 
C    -0.1113653   -2.1213476    5.4116926 
C    -0.5577997   -2.2274370    4.0890681 
C     0.3426646   -2.5119446    3.0350326 
C     1.7022107   -2.7287738    3.3581718 
C     2.1462011   -2.6319162    4.6809606 
H     1.5986424   -2.2359049    6.7454003 
H    -0.8249129   -1.8970001    6.2113323 
H    -1.6221397   -2.0957414    3.8625521 
H     2.4250410   -2.9643654    2.5711870 
H     3.2031740   -2.8013452    4.9107116 
C     0.6374951    1.7065240    2.8429937 
C    -1.9889068    0.9660232    2.4026517 
C    -1.1044665    0.1561811   -3.2661603 
C     1.5915079    0.5618323   -2.7177232 
C    -0.4018119    2.0594652    3.9546605 
C    -1.8366449    2.1238456    3.4048152 
C    -0.0917257   -0.4091094   -4.2831013 
C     1.1646218    0.4632529   -4.1995903 
C    -0.5353697    2.4519875    0.2237505 
C    -0.4378726    2.1986437   -1.1696249 
C     1.7550928    0.7722922    3.3752435 
C    -3.3040667    0.8632018    1.5938743 
C    -2.3902499   -0.6557229   -2.9831865 
C     2.5602145    1.7142935   -2.3723527 
C     2.7636762    0.3450252    2.3025939 
C     2.4944426    1.4401626    4.5518363 
C    -4.5314873    1.2365525    2.4476877 
C    -3.4731562   -0.5545263    1.0208704 
C    -2.9521411   -1.3181630   -4.2537124 
C    -3.4422658    0.2587131   -2.3339619 
C     3.7958486    1.6810585   -3.2935727 
C     2.9859867    1.6637532   -0.8999978 
C    -0.7082757    3.7833416    0.6592849 
C    -0.5634595    3.2627233   -2.0854620 
C    -0.8313056    4.8329521   -0.2603454 
C    -0.7706771    4.5724867   -1.6365269 
H     1.1065907    2.6228539    2.4376055 
H    -1.8542910    0.0241008    2.9734516 
H    -1.4072883    1.1595944   -3.6259301 
H     2.0742344   -0.3950913   -2.4404757 
H    -0.3639817    1.2543317    4.7112400 
H    -0.1201673    2.9952418    4.4658161 
H    -2.0532315    3.0889075    2.9140877 
H    -2.5652380    2.0236408    4.2277054 
H     0.1581022   -1.4556121   -4.0390469 
H    -0.5216228   -0.4021760   -5.2989471 
H     0.9503231    1.4765254   -4.5924110 
H     1.9842650    0.0443904   -4.8074645 
H     1.2568520   -0.1340154    3.7624731 
H    -3.2489553    1.5847533    0.7538868 
H    -2.1298882   -1.4606744   -2.2674975 
H     2.0310569    2.6708990   -2.5495711 
H     2.2669066   -0.1745699    1.4616179 
H     3.5072461   -0.3459282    2.7344429 
H     3.3075255    1.2163607    1.8973069 
H     3.2732827    0.7611999    4.9396347 
H     1.8204226    1.6823404    5.3900914 
H     2.9892120    2.3745067    4.2272637 
H    -4.4977059    2.2853934    2.7861092 
H    -5.4558548    1.1051862    1.8593103 
H    -4.6063109    0.5881841    3.3401057 
H    -3.5435664   -1.2939686    1.8403382 
H    -4.3906982   -0.6338966    0.4157760 
H    -2.6160547   -0.8389479    0.3782765 
H    -3.1717824   -0.5646869   -5.0321111 
H    -3.8948274   -1.8441768   -4.0226280 
H    -2.2498015   -2.0557295   -4.6771862 
H    -3.0383965    0.7741058   -1.4450340 
H    -4.3340568   -0.3114634   -2.0248799 
H    -3.7672943    1.0364694   -3.0490595 
H     4.3267588    0.7151696   -3.2039275 
H     4.5019093    2.4812577   -3.0119715 
H     3.5295569    1.8287055   -4.3533593 
H     3.5172105    0.7205018   -0.6786212 
H     3.6611443    2.5007460   -0.6523745 
H     2.1162434    1.7238270   -0.2243410 
H    -0.7391569    4.0161689    1.7265214 
H    -0.4862505    3.0715621   -3.1609808 
H    -0.9713862    5.8566251    0.1012311 
H    -0.8662851    5.3893807   -2.3588043 
