101
Energy =
C     0.2433813   -2.9228949   -0.7370013 
C     0.5311259   -2.9922063    0.6596049 
C    -0.4647032   -2.6653772    1.6098670 
H     1.5650920   -3.1477832    0.9911150 
Pd   -0.0512074   -0.9198349    0.1901710 
P    -0.4697248    0.9994172    1.4421976 
P    -0.0632817    0.4199975   -1.6981415 
H    -0.7969892   -3.1194817   -1.0329415 
H    -1.5094080   -2.7100307    1.2645411 
C     3.1003579   -3.4163425   -3.9269589 
C     3.5440014   -3.0732497   -2.6391043 
C     2.6281175   -2.9155938   -1.5929850 
C     1.2440818   -3.1104443   -1.8065905 
C     0.8146583   -3.4715944   -3.1044841 
C     1.7304632   -3.6173530   -4.1542906 
H     3.8189144   -3.5332204   -4.7444382 
H     4.6118869   -2.9201968   -2.4511713 
H     2.9916802   -2.6141839   -0.6052152 
H    -0.2507054   -3.6504749   -3.2876822 
H     1.3741111   -3.8993136   -5.1505514 
C    -0.1176672   -2.5891034    5.8977397 
C    -1.3643539   -2.4334445    5.2730799 
C    -1.4584755   -2.4752335    3.8768959 
C    -0.3087673   -2.6617860    3.0730545 
C     0.9365836   -2.8427154    3.7192484 
C     1.0292255   -2.8036175    5.1143143 
H    -0.0401625   -2.5588226    6.9892119 
H    -2.2669767   -2.2877286    5.8754527 
H    -2.4371977   -2.3688222    3.3951753 
H     1.8417675   -3.0151267    3.1294398 
H     2.0019955   -2.9455251    5.5962609 
C     0.6999091    1.5823460    2.8018715 
C    -1.9758187    0.9290074    2.6132494 
C    -1.3304486    0.0872467   -3.0831995 
C     1.4191075    0.4656192   -2.8656903 
C     0.1062810    0.8953531    4.0435563 
C    -1.3953805    1.2073691    4.0267780 
C    -0.4768588   -0.0534558   -4.3706803 
C     0.8056145    0.7749113   -4.2472129 
C    -0.5886396    2.4056184    0.2531986 
C    -0.4126993    2.1514954   -1.1324943 
C     2.2200649    1.4611767    2.5751203 
C    -3.2209533    1.7782395    2.2593952 
C    -2.2849720   -1.1086558   -2.8478768 
C     2.6288248    1.3162206   -2.3977475 
C     2.6974293    0.0155558    2.3715876 
C     2.6756804    2.4043792    1.4498839 
C    -4.3017554    1.6182212    3.3487639 
C    -3.8023326    1.4203224    0.8854990 
C    -3.1900600   -1.3374507   -4.0748239 
C    -3.1354984   -0.9463404   -1.5834007 
C     3.5256397    1.7459132   -3.5745501 
C     3.4561064    0.5310633   -1.3670735 
C    -0.8278694    3.7229362    0.6942929 
C    -0.5061778    3.2269017   -2.0405460 
C    -0.9102569    4.7801799   -0.2195736 
C    -0.7530885    4.5299818   -1.5904861 
H     0.4678566    2.6634775    2.8830280 
H    -2.2645565   -0.1367675    2.5539105 
H    -1.9323093    1.0155267   -3.1313918 
H     1.7285485   -0.5997199   -2.8832832 
H     0.2760840   -0.1949953    4.0083247 
H     0.5913061    1.2721573    4.9613782 
H    -1.5450454    2.2764948    4.2704055 
H    -1.9390807    0.6176669    4.7832611 
H    -0.2003645   -1.1168757   -4.4950643 
H    -1.0649025    0.2392530   -5.2566048 
H     0.5926013    1.8543180   -4.3525892 
H     1.5186238    0.5161956   -5.0483220 
H     2.6786672    1.8272069    3.5161299 
H    -2.9159710    2.8425746    2.2433904 
H    -1.6485242   -2.0054913   -2.7262007 
H     2.2418468    2.2395748   -1.9223443 
H     2.4884755   -0.6031645    3.2588664 
H     3.7834559   -0.0148787    2.1793654 
H     2.1846239   -0.4518257    1.5065668 
H     3.7701706    2.3657169    1.3196941 
H     2.3927845    3.4489887    1.6690049 
H     2.2094068    2.1319562    0.4880018 
H    -3.9587741    1.9685433    4.3362285 
H    -5.1997971    2.2011883    3.0811925 
H    -4.6040212    0.5589066    3.4460371 
H    -4.1394357    0.3684805    0.8690877 
H    -4.6732211    2.0568111    0.6530395 
H    -3.0639947    1.5566158    0.0778039 
H    -3.7973161   -0.4382859   -4.2871403 
H    -3.8842646   -2.1744238   -3.8855479 
H    -2.6120861   -1.5822058   -4.9812986 
H    -2.4985065   -0.8073764   -0.6873983 
H    -3.7649662   -1.8375265   -1.4149572 
H    -3.8026867   -0.0705345   -1.6658055 
H     3.8990336    0.8661014   -4.1297788 
H     4.4019309    2.2996129   -3.1952858 
H     2.9980386    2.4040541   -4.2850108 
H     3.9593273   -0.3194798   -1.8577552 
H     4.2283227    1.1676682   -0.9047823 
H     2.8197873    0.1225454   -0.5634602 
H    -0.9486810    3.9297057    1.7627791 
H    -0.3842198    3.0521404   -3.1130595 
H    -1.0982537    5.7975352    0.1379177 
H    -0.8195848    5.3504661   -2.3119881 
