101
Energy =
C     0.3480537   -2.9269812   -0.8149239 
C     0.5824859   -2.9650747    0.5947922 
C    -0.4534358   -2.6768942    1.5111299 
H     1.6117639   -3.0626013    0.9619019 
Pd   -0.0875565   -0.9246271    0.0792526 
P    -0.4004361    0.9859037    1.3583098 
P    -0.1992519    0.4562191   -1.7800238 
H    -0.6504418   -3.2175145   -1.1664553 
H    -1.4855107   -2.7576982    1.1355063 
C     3.4349621   -3.1524015   -3.8135559 
C     2.1201145   -3.5437680   -4.1091681 
C     1.1291893   -3.4882566   -3.1202993 
C     1.4272164   -3.0324436   -1.8158954 
C     2.7585459   -2.6420057   -1.5333257 
C     3.7499317   -2.7075440   -2.5186193 
H     4.2102408   -3.1954567   -4.5851065 
H     1.8663555   -3.9013753   -5.1125058 
H     0.1081636   -3.8102921   -3.3543900 
H     3.0144457   -2.2552625   -0.5409160 
H     4.7726129   -2.3978097   -2.2794272 
C    -0.2379466   -2.4477132    5.8011126 
C    -1.4660991   -2.3239611    5.1342112 
C    -1.5175552   -2.4230171    3.7383880 
C    -0.3422617   -2.6313270    2.9767843 
C     0.8827915   -2.7839976    3.6672083 
C     0.9326540   -2.6903869    5.0616068 
H    -0.1933664   -2.3744598    6.8924106 
H    -2.3874359   -2.1606402    5.7027996 
H    -2.4824800   -2.3487769    3.2236438 
H     1.8042789   -2.9828234    3.1126466 
H     1.8901671   -2.8126676    5.5782990 
C     0.8846159    1.5819498    2.6093906 
C    -1.7980151    0.9298476    2.6303844 
C    -1.5404535    0.2598766   -3.0995799 
C     1.2249914    0.3204565   -3.0170030 
C     0.3115174    1.0869276    3.9523429 
C    -1.1802158    1.4574669    3.9454831 
C    -0.8039117   -0.4893338   -4.2275032 
C     0.5524162    0.2094605   -4.4046176 
C    -0.5831939    2.4174189    0.2057254 
C    -0.4270158    2.1906781   -1.1850293 
C     2.3738113    1.3254695    2.2857710 
C    -3.1567343    1.5187629    2.1969385 
C    -2.9372297   -0.2423276   -2.6630530 
C     2.3691224    1.3467404   -2.8737662 
C     3.2773120    2.0579757    3.2973932 
C     2.7463627   -0.1592365    2.1889506 
C    -4.1926471    1.3894575    3.3300375 
C    -3.6597856    0.8376927    0.9146739 
C    -2.9387916   -1.6230525   -1.9932064 
C    -3.9128929   -0.2042425   -3.8565354 
C     3.4544369    1.0961752   -3.9387832 
C     2.9713060    1.2998372   -1.4614192 
C    -0.8211833    3.7267243    0.6717702 
C    -0.4975906    3.2803710   -2.0770038 
C    -0.8971491    4.7996898   -0.2254105 
C    -0.7278581    4.5772705   -1.6005612 
H     0.7420579    2.6805082    2.5847220 
H    -1.9299263   -0.1620550    2.7524344 
H    -1.6792412    1.3027800   -3.4470638 
H     1.6387865   -0.6748103   -2.7665006 
H     0.4306020   -0.0075961    4.0532109 
H     0.8411307    1.5549911    4.7996705 
H    -1.2947888    2.5574282    4.0035714 
H    -1.7063644    1.0258317    4.8138782 
H    -0.6484949   -1.5490092   -3.9556888 
H    -1.3941447   -0.4703683   -5.1594705 
H     0.3981536    1.2188404   -4.8335140 
H     1.2049139   -0.3465446   -5.0986460 
H     2.5554599    1.7847738    1.2963277 
H    -3.0176951    2.5969201    1.9839753 
H    -3.3072704    0.4881060   -1.9194228 
H     1.9535799    2.3600008   -3.0406588 
H     3.0190049    3.1295227    3.3688884 
H     4.3350593    1.9839541    2.9911897 
H     3.1914396    1.6167346    4.3063547 
H     3.7931806   -0.2754457    1.8592235 
H     2.0981619   -0.6792730    1.4565070 
H     2.6382058   -0.6623008    3.1644104 
H    -3.8931839    1.9526126    4.2297702 
H    -5.1719008    1.7782962    3.0017089 
H    -4.3283596    0.3303085    3.6180685 
H    -3.7976353   -0.2481921    1.0723715 
H    -4.6258649    1.2602497    0.5901620 
H    -2.9416229    0.9658176    0.0859057 
H    -2.5407015   -2.4043777   -2.6657962 
H    -3.9652274   -1.9137258   -1.7116430 
H    -2.3252029   -1.6128281   -1.0721481 
H    -3.9065408    0.7824028   -4.3532329 
H    -4.9429594   -0.4055506   -3.5157238 
H    -3.6569579   -0.9689473   -4.6112552 
H     3.8533018    0.0690700   -3.8517111 
H     4.2922814    1.8021756   -3.8054248 
H     3.0662370    1.2273545   -4.9627963 
H     3.3954195    0.3020909   -1.2495997 
H     3.7742730    2.0476624   -1.3451502 
H     2.2056531    1.5071338   -0.6935483 
H    -0.9467919    3.9143839    1.7436575 
H    -0.3741818    3.1190237   -3.1533823 
H    -1.0858013    5.8107897    0.1491630 
H    -0.7774635    5.4148592   -2.3035750 
