101
Energy =
C     0.3255187   -2.9548077   -0.9435390 
C     0.5210384   -3.0128280    0.4716203 
C    -0.5338673   -2.7297503    1.3679745 
H     1.5405498   -3.1236033    0.8617100 
Pd   -0.1231912   -0.9637722   -0.0356378 
P    -0.4448960    0.9254803    1.2733374 
P    -0.1639538    0.4451596   -1.8822792 
H    -0.6637204   -3.2362305   -1.3284550 
H    -1.5586626   -2.8038102    0.9720303 
C     3.5231083   -3.1881102   -3.8246706 
C     3.7828247   -2.7139336   -2.5279368 
C     2.7534377   -2.6428606   -1.5827271 
C     1.4389777   -3.0580764   -1.9075935 
C     1.1965201   -3.5412875   -3.2132640 
C     2.2255054   -3.6021875   -4.1622800 
H     4.3275866   -3.2355307   -4.5654517 
H     4.7914716   -2.3854560   -2.2562787 
H     2.9647766   -2.2310573   -0.5896861 
H     0.1900422   -3.8833341   -3.4797076 
H     2.0149355   -3.9823998   -5.1672838 
C    -0.3956469   -2.5144856    5.6625510 
C    -1.6157051   -2.4261547    4.9760756 
C    -1.6408705   -2.5204247    3.5790493 
C    -0.4482889   -2.6930071    2.8357530 
C     0.7687453   -2.8131525    3.5462583 
C     0.7933192   -2.7207589    4.9412527 
H    -0.3706788   -2.4429144    6.7546111 
H    -2.5509066   -2.2920287    5.5294640 
H    -2.5976857   -2.4695257    3.0480591 
H     1.7045861   -2.9843567    3.0072465 
H     1.7456444   -2.8163985    5.4730139 
C     0.8814985    1.5812633    2.4684565 
C    -1.7803884    0.8708663    2.6076252 
C    -1.4387512    0.2529175   -3.2683306 
C     1.3112156    0.3201978   -3.0690043 
C     0.3200205    1.2319146    3.8612998 
C    -1.1722223    1.5921815    3.8300006 
C    -0.6654612   -0.5512323   -4.3275696 
C     0.6988350    0.1349280   -4.4781269 
C    -0.6892647    2.3529912    0.1236613 
C    -0.4493674    2.1622618   -1.2614016 
C     2.3595965    1.2508636    2.1634152 
C    -3.2210444    1.2238857    2.1635825 
C    -2.8706489   -0.2057553   -2.9216721 
C     2.4161896    1.3903764   -2.9400978 
C     3.2916220    2.0347944    3.1085570 
C     2.6830707   -0.2475701    2.1870028 
C    -4.1294847    1.5424227    3.3658802 
C    -3.8107635    0.0632453    1.3431397 
C    -3.6149408    0.8918405   -2.1417695 
C    -2.9414003   -1.5681221   -2.2172003 
C     3.5431203    1.1221600   -3.9570641 
C     2.9730639    1.4338567   -1.5105575 
C    -1.0287339    3.6382643    0.5946565 
C    -0.5230090    3.2651778   -2.1363448 
C    -1.1173156    4.7223857   -0.2877896 
C    -0.8511607    4.5381161   -1.6531899 
H     0.7708512    2.6762923    2.3436718 
H    -1.7660517   -0.2065886    2.8652733 
H    -1.5209287    1.2886763   -3.6537323 
H     1.7515518   -0.6480386   -2.7648085 
H     0.4427831    0.1540186    4.0783662 
H     0.8578592    1.7908554    4.6460019 
H    -1.2961946    2.6891648    3.7492597 
H    -1.6866464    1.2741559    4.7526598 
H    -0.5279199   -1.5980567   -4.0025680 
H    -1.2268731   -0.5714957   -5.2785128 
H     0.5653563    1.1214162   -4.9628790 
H     1.3824450   -0.4551427   -5.1111079 
H     2.5514148    1.6191353    1.1404155 
H    -3.1842701    2.1257736    1.5216089 
H    -3.3780260   -0.3162577   -3.9014695 
H     1.9751091    2.3801141   -3.1715354 
H     3.0660092    3.1159843    3.0945606 
H     4.3441817    1.9041650    2.8033028 
H     3.2012472    1.6794052    4.1504278 
H     3.7236986   -0.4246122    1.8644555 
H     2.0134163   -0.8009981    1.5008601 
H     2.5653316   -0.6680866    3.1997286 
H    -3.7913944    2.4348628    3.9185667 
H    -5.1607969    1.7324338    3.0215479 
H    -4.1619454    0.6925997    4.0722829 
H    -4.0001931   -0.8088941    1.9948118 
H    -4.7664380    0.3470077    0.8720415 
H    -3.1206195   -0.2612508    0.5454820 
H    -3.1099888    1.1133979   -1.1858862 
H    -4.6500629    0.5854441   -1.9146321 
H    -3.6536808    1.8318410   -2.7196771 
H    -2.4544908   -2.3617921   -2.8101483 
H    -3.9905504   -1.8657225   -2.0507048 
H    -2.4402343   -1.5246505   -1.2304625 
H     3.9715016    0.1147091   -3.8043516 
H     4.3531304    1.8617137   -3.8344029 
H     3.1852794    1.1875836   -4.9981525 
H     3.3945933    0.4534586   -1.2231961 
H     3.7681988    2.1926755   -1.4134736 
H     2.1805305    1.6850437   -0.7850876 
H    -1.2246281    3.7976167    1.6603683 
H    -0.3330155    3.1310706   -3.2067484 
H    -1.3882908    5.7128090    0.0913965 
H    -0.9060386    5.3855342   -2.3439275 
