101
Energy =
C     0.3409844   -2.9472940   -0.9644596 
C     0.5344133   -3.0138232    0.4504539 
C    -0.5238448   -2.7423705    1.3465251 
H     1.5536244   -3.1219628    0.8419740 
Pd   -0.1187419   -0.9647613   -0.0436358 
P    -0.4558784    0.9130722    1.2782541 
P    -0.1560754    0.4588828   -1.8792685 
H    -0.6467991   -3.2294238   -1.3525977 
H    -1.5474459   -2.8195284    0.9480805 
C     3.5398061   -3.1442754   -3.8468295 
C     2.2420360   -3.5529741   -4.1903122 
C     1.2129523   -3.5043432   -3.2407231 
C     1.4552787   -3.0387621   -1.9286123 
C     2.7698736   -2.6287720   -1.5978779 
C     3.7993863   -2.6875915   -2.5437878 
H     4.3445588   -3.1825643   -4.5878441 
H     2.0314302   -3.9193715   -5.2004290 
H     0.2062794   -3.8420493   -3.5119259 
H     2.9815932   -2.2310176   -0.5992431 
H     4.8081074   -2.3631944   -2.2675464 
C    -0.3945816   -2.5557375    5.6427759 
C    -1.6137923   -2.4684121    4.9546461 
C    -1.6359804   -2.5532768    3.5569565 
C    -0.4412686   -2.7154258    2.8147288 
C     0.7749563   -2.8350515    3.5266798 
C     0.7966042   -2.7518594    4.9223087 
H    -0.3718951   -2.4911601    6.7353219 
H    -2.5505962   -2.3423119    5.5072041 
H    -2.5920237   -2.5031808    3.0245132 
H     1.7125439   -2.9983647    2.9882516 
H     1.7483669   -2.8469539    5.4551805 
C     0.8588451    1.5668166    2.4873097 
C    -1.7996927    0.8410678    2.6030566 
C    -1.4272527    0.2782832   -3.2705940 
C     1.3221801    0.3469888   -3.0630460 
C     0.2906643    1.2020206    3.8734019 
C    -1.2031713    1.5554493    3.8352859 
C    -0.6492094   -0.5090274   -4.3389644 
C     0.7139829    0.1821567   -4.4763311 
C    -0.6982111    2.3489019    0.1387279 
C    -0.4464805    2.1705685   -1.2458067 
C     2.3411110    1.2504247    2.1881294 
C    -3.2393761    1.1892260    2.1508627 
C    -2.8576735   -0.1903777   -2.9314104 
C     2.4286729    1.4129793   -2.9145271 
C     3.2613925    2.0297178    3.1485307 
C     2.6755666   -0.2457560    2.1957159 
C    -4.1545621    1.5130493    3.3465640 
C    -3.8229722    0.0227035    1.3341297 
C    -3.6056438    0.8931050   -2.1355435 
C    -2.9238495   -1.5627249   -2.2461768 
C     3.5585432    1.1587057   -3.9317477 
C     2.9805095    1.4331292   -1.4825125 
C    -1.0454929    3.6290900    0.6178165 
C    -0.5149173    3.2809100   -2.1117814 
C    -1.1281862    4.7207701   -0.2558085 
C    -0.8490851    4.5490848   -1.6202881 
H     0.7410505    2.6620654    2.3713713 
H    -1.7808138   -0.2381776    2.8526270 
H    -1.5131913    1.3185379   -3.6427864 
H     1.7593505   -0.6263948   -2.7708496 
H     0.4177219    0.1229598    4.0819496 
H     0.8204794    1.7569532    4.6663620 
H    -1.3315305    2.6524620    3.7628003 
H    -1.7223313    1.2274382    4.7517758 
H    -0.5099109   -1.5599581   -4.0283370 
H    -1.2081868   -0.5172883   -5.2915248 
H     0.5798839    1.1755387   -4.9466635 
H     1.4002242   -0.3971462   -5.1163948 
H     2.5366901    1.6326844    1.1708912 
H    -3.2014331    2.0876034    1.5040297 
H    -3.3644072   -0.2884702   -3.9128664 
H     1.9900630    2.4069440   -3.1319850 
H     3.0275570    3.1092528    3.1464437 
H     4.3167470    1.9109090    2.8481308 
H     3.1674822    1.6607723    4.1853690 
H     3.7197262   -0.4110687    1.8783970 
H     2.0149954   -0.7959154    1.4981771 
H     2.5538888   -0.6791794    3.2024887 
H    -3.8199706    2.4083434    3.8967664 
H    -5.1839841    1.7009627    2.9954678 
H    -4.1908240    0.6667672    4.0569592 
H    -4.0152415   -0.8453593    1.9904183 
H    -4.7762960    0.3023192    0.8558485 
H    -3.1278817   -0.3060332    0.5424106 
H    -3.1024447    1.1003025   -1.1754800 
H    -4.6403843    0.5808796   -1.9147858 
H    -3.6455131    1.8421895   -2.6983380 
H    -2.4325221   -2.3461648   -2.8490420 
H    -3.9719780   -1.8670597   -2.0855255 
H    -2.4245276   -1.5304532   -1.2580713 
H     3.9847730    0.1483090   -3.7932604 
H     4.3693191    1.8949376   -3.7949272 
H     3.2042484    1.2409017   -4.9728668 
H     3.4018361    0.4484628   -1.2099880 
H     3.7744958    2.1909987   -1.3697987 
H     2.1849639    1.6710914   -0.7558137 
H    -1.2517399    3.7785117    1.6830293 
H    -0.3161211    3.1563851   -3.1817434 
H    -1.4046020    5.7072940    0.1295658 
H    -0.8992245    5.4024876   -2.3039851 
