101
Energy =
C    -0.1346928   -2.9428721   -0.8962622 
C     0.2067511   -3.0054083    0.4883062 
C    -0.7232725   -2.6222820    1.4832304 
H     1.2499250   -3.1973093    0.7697693 
Pd   -0.3057164   -0.9180329    0.0211957 
P    -0.4506733    1.0362153    1.2643343 
P    -0.1614506    0.4889708   -1.8127480 
H    -1.1892719   -3.1171912   -1.1557223 
H    -1.7867017   -2.6290488    1.1975779 
C     2.6545222   -3.6244425   -4.1136587 
C     1.3013017   -3.9669553   -4.2571340 
C     0.4033186   -3.7508212   -3.2036644 
C     0.8377860   -3.1870288   -1.9829564 
C     2.2073731   -2.8551030   -1.8505803 
C     3.1043674   -3.0726690   -2.9029034 
H     3.3558514   -3.7906302   -4.9375624 
H     0.9431307   -4.4089171   -5.1926601 
H    -0.6487414   -4.0326935   -3.3225645 
H     2.5691578   -2.4028888   -0.9199693 
H     4.1586360   -2.8027464   -2.7808299 
C    -0.1065094   -2.4590836    5.7410753 
C     0.9771070   -2.7497028    4.8945940 
C     0.7949319   -2.8202333    3.5099539 
C    -0.4784873   -2.5976800    2.9348584 
C    -1.5641380   -2.3338681    3.8032051 
C    -1.3807848   -2.2592951    5.1896327 
H     0.0407295   -2.4042474    6.8244274 
H     1.9710828   -2.9252133    5.3189244 
H     1.6537441   -3.0472963    2.8713530 
H    -2.5646760   -2.1915301    3.3798568 
H    -2.2364293   -2.0520050    5.8406087 
C     1.1008164    1.6367663    2.1498373 
C    -1.5016202    1.1210608    2.8124535 
C    -0.9779218    0.1301075   -3.4764326 
C     1.5736689    0.6096564   -2.5097967 
C     0.5168833    2.6542813    3.1537888 
C    -0.7658194    2.0805535    3.8008828 
C     0.2152357   -0.1141240   -4.4357053 
C     1.3681868    0.8164252   -4.0231287 
C    -0.9191530    2.3969716    0.1066302 
C    -0.7622540    2.1541021   -1.2832231 
C     1.8645017    0.4217646    2.7573979 
C    -3.0181957    1.3684770    2.6176673 
C    -2.0605542   -0.9701526   -3.4275961 
C     2.5797894    1.5062395   -1.7419137 
C     2.6952634   -0.2864570    1.6741275 
C     2.7628840    0.8122669    3.9442317 
C    -3.7649792    1.1308100    3.9447182 
C    -3.6082048    0.4985829    1.4954818 
C    -2.6079579   -1.2733385   -4.8340503 
C    -3.1932429   -0.5921786   -2.4599681 
C     2.5444002    2.9874800   -2.1523902 
C     4.0027279    0.9320053   -1.8790251 
C    -1.4127054    3.6463868    0.5361060 
C    -1.0815637    3.1724927   -2.2041001 
C    -1.7357184    4.6455300   -0.3912187 
C    -1.5641470    4.4108811   -1.7628793 
H     1.7522038    2.1520491    1.4206414 
H    -1.3916918    0.0851487    3.1879565 
H    -1.4723221    1.0784667   -3.7624391 
H     1.9011763   -0.4409393   -2.3778322 
H     1.2634492    2.9372810    3.9142429 
H     0.2809058    3.5826495    2.6064535 
H    -1.4356791    2.9036326    4.1057861 
H    -0.5141339    1.5225933    4.7189041 
H     0.5422440   -1.1675353   -4.3562741 
H    -0.0920405    0.0585156   -5.4809767 
H     1.1068955    1.8686313   -4.2412024 
H     2.2935215    0.5880796   -4.5809356 
H     1.1167403   -0.3010514    3.1375434 
H    -3.1607071    2.4291594    2.3339968 
H    -1.5730272   -1.8866713   -3.0488151 
H     2.3051207    1.4455851   -0.6707954 
H     3.1638580   -1.2027091    2.0722133 
H     3.5013768    0.3716168    1.3020587 
H     2.0633340   -0.5735254    0.8090104 
H     3.3274377   -0.0707977    4.2903662 
H     2.1810411    1.1854928    4.8036649 
H     3.4945010    1.5893917    3.6563469 
H    -3.3786849    1.7711994    4.7557528 
H    -4.8408075    1.3470139    3.8281127 
H    -3.6620824    0.0786412    4.2672707 
H    -3.4399570   -0.5754202    1.6950220 
H    -4.6961455    0.6594391    1.4061426 
H    -3.1550295    0.7347774    0.5163061 
H    -3.0474292   -0.3678012   -5.2916274 
H    -3.3997925   -2.0405046   -4.7808381 
H    -1.8205419   -1.6507893   -5.5081026 
H    -2.8051371   -0.4304600   -1.4362542 
H    -3.9521846   -1.3917522   -2.4072764 
H    -3.6997138    0.3366473   -2.7810647 
H     2.8782694    3.1206974   -3.1967351 
H     3.2261734    3.5728039   -1.5113383 
H     1.5366921    3.4224857   -2.0553029 
H     4.0548299   -0.1028121   -1.4970844 
H     4.3262062    0.9210848   -2.9356663 
H     4.7283104    1.5420938   -1.3133148 
H    -1.5621791    3.8431267    1.6008903 
H    -0.9540699    3.0046861   -3.2781936 
H    -2.1265495    5.6060840   -0.0408915 
H    -1.8128717    5.1891134   -2.4913044 
