101
Energy =
C     0.3578648   -2.9212425   -0.8309573 
C     0.5867958   -2.9667968    0.5794617 
C    -0.4538119   -2.6870076    1.4930890 
H     1.6148476   -3.0632854    0.9502489 
Pd   -0.0871088   -0.9254655    0.0730734 
P    -0.4086896    0.9766727    1.3626809 
P    -0.1927838    0.4669249   -1.7779618 
H    -0.6384168   -3.2126866   -1.1879924 
H    -1.4840432   -2.7682708    1.1124909 
C     3.4565691   -3.1203621   -3.8192567 
C     2.1440234   -3.5140570   -4.1219328 
C     1.1492487   -3.4669356   -3.1365077 
C     1.4410870   -3.0176801   -1.8284436 
C     2.7701876   -2.6249218   -1.5386976 
C     3.7653950   -2.6818741   -2.5206703 
H     4.2348073   -3.1566846   -4.5881726 
H     1.8950995   -3.8669539   -5.1281458 
H     0.1300486   -3.7906361   -3.3762008 
H     3.0212066   -2.2428233   -0.5432595 
H     4.7862368   -2.3703943   -2.2759395 
C    -0.2573694   -2.4849164    5.7854115 
C    -1.4826848   -2.3579091    5.1139207 
C    -1.5279361   -2.4480767    3.7172748 
C    -0.3491295   -2.6503625    2.9594927 
C     0.8729597   -2.8067344    3.6543381 
C     0.9166124   -2.7222392    5.0495358 
H    -0.2175431   -2.4180544    6.8773034 
H    -2.4066639   -2.1990895    5.6794908 
H    -2.4907306   -2.3719297    3.1988340 
H     1.7969419   -3.0018415    3.1025759 
H     1.8718077   -2.8479347    5.5696915 
C     0.8693454    1.5677261    2.6233902 
C    -1.8119160    0.9099659    2.6279564 
C    -1.5270235    0.2762655   -3.1053337 
C     1.2378516    0.3424970   -3.0086938 
C     0.2910184    1.0631040    3.9605762 
C    -1.2013831    1.4309139    3.9490457 
C    -0.7831217   -0.4636076   -4.2346372 
C     0.5723915    0.2395801   -4.4003278 
C    -0.5894745    2.4149088    0.2182586 
C    -0.4267330    2.1971197   -1.1731533 
C     2.3609233    1.3175110    2.3057550 
C    -3.1699447    1.4980743    2.1913366 
C    -2.9245595   -0.2325657   -2.6789505 
C     2.3787914    1.3704313   -2.8524020 
C     3.2568602    2.0378934    3.3328123 
C     2.7368382   -0.1651074    2.1917612 
C    -4.2106114    1.3612504    3.3191832 
C    -3.6656918    0.8218360    0.9036505 
C    -2.9257242   -1.6180370   -2.0189602 
C    -3.8946600   -0.1885897   -3.8767817 
C     3.4688635    1.1319109   -3.9153233 
C     2.9756984    1.3129396   -1.4381871 
C    -0.8318190    3.7208833    0.6913830 
C    -0.4951176    3.2922694   -2.0586146 
C    -0.9056289    4.7992994   -0.1994054 
C    -0.7296181    4.5857912   -1.5751308 
H     0.7241339    2.6660703    2.6050968 
H    -1.9417755   -0.1829435    2.7429549 
H    -1.6668666    1.3211023   -3.4465102 
H     1.6525428   -0.6535805   -2.7630068 
H     0.4117964   -0.0317941    4.0553803 
H     0.8157535    1.5270698    4.8131600 
H    -1.3182449    2.5302938    4.0132353 
H    -1.7307961    0.9930971    4.8123574 
H    -0.6264673   -1.5247321   -3.9692032 
H    -1.3688073   -0.4397673   -5.1693556 
H     0.4178021    1.2515487   -4.8229509 
H     1.2296327   -0.3100265   -5.0949886 
H     2.5480978    1.7903476    1.3236956 
H    -3.0322896    2.5774860    1.9839701 
H    -3.2999942    0.4916750   -1.9319499 
H     1.9611430    2.3839581   -3.0121275 
H     2.9911830    3.1062483    3.4229648 
H     4.3158291    1.9765066    3.0280858 
H     3.1713761    1.5779444    4.3334177 
H     3.7888562   -0.2752105    1.8768218 
H     2.1008013   -0.6745904    1.4414187 
H     2.6139929   -0.6831544    3.1575746 
H    -3.9171256    1.9222089    4.2222520 
H    -5.1896701    1.7479664    2.9877692 
H    -4.3440571    0.3006368    3.6028333 
H    -3.8058847   -0.2643830    1.0569595 
H    -4.6291493    1.2466657    0.5743478 
H    -2.9420608    0.9516074    0.0798861 
H    -2.5217781   -2.3933738   -2.6949953 
H    -3.9528105   -1.9136399   -1.7450209 
H    -2.3171313   -1.6127181   -1.0945594 
H    -3.8875902    0.8011470   -4.3672808 
H    -4.9259937   -0.3937044   -3.5421271 
H    -3.6338723   -0.9481520   -4.6350294 
H     3.8685012    0.1043988   -3.8370045 
H     4.3053843    1.8373865   -3.7712485 
H     3.0848094    1.2731249   -4.9395628 
H     3.4095221    0.3172669   -1.2366496 
H     3.7701877    2.0677672   -1.3095623 
H     2.2047603    1.5026290   -0.6709828 
H    -0.9625107    3.9016298    1.7638562 
H    -0.3665039    3.1378933   -3.1354074 
H    -1.0977786    5.8077063    0.1806088 
H    -0.7773308    5.4276922   -2.2731061 
