101
Energy =
C     0.2837225   -2.9216113   -0.8654201 
C     0.5488854   -3.0043122    0.5368534 
C    -0.4668662   -2.7128960    1.4761502 
H     1.5825659   -3.1308737    0.8818303 
Pd   -0.0875786   -0.9474462    0.0707952 
P    -0.4508483    0.9675298    1.3446608 
P    -0.1572729    0.4080826   -1.8086524 
H    -0.7338547   -3.1771307   -1.1930655 
H    -1.5062376   -2.7735710    1.1171480 
C     3.2619358   -3.0711431   -3.9784650 
C     1.9278733   -3.4122450   -4.2479065 
C     0.9724607   -3.3852301   -3.2230389 
C     1.3270213   -3.0091775   -1.9077771 
C     2.6774619   -2.6734055   -1.6506380 
C     3.6327767   -2.7088415   -2.6724301 
H     4.0093834   -3.0917051   -4.7779181 
H     1.6303482   -3.7076708   -5.2594646 
H    -0.0644408   -3.6649370   -3.4407131 
H     2.9776196   -2.3527128   -0.6472623 
H     4.6716200   -2.4415893   -2.4522941 
C    -0.1662360   -2.6035003    5.7660490 
C    -1.4058034   -2.4489842    5.1268336 
C    -1.4853190   -2.5051735    3.7303129 
C    -0.3275597   -2.7036931    2.9407709 
C     0.9100321   -2.8835095    3.6016436 
C     0.9879316   -2.8310390    4.9971240 
H    -0.1001676   -2.5627946    6.8579478 
H    -2.3141143   -2.2936540    5.7181410 
H    -2.4583791   -2.4008579    3.2367416 
H     1.8202125   -3.0673953    3.0234478 
H     1.9547902   -2.9729507    5.4908489 
C     0.7828924    1.5198264    2.6592598 
C    -1.9176539    0.9277217    2.5612648 
C    -1.4236945    0.0409807   -3.1809959 
C     1.3192253    0.5018455   -2.9818901 
C     0.1996590    0.8808779    3.9331291 
C    -1.2924032    1.2368419    3.9472745 
C    -0.5725827   -0.1231800   -4.4670784 
C     0.6960629    0.7297507   -4.3739835 
C    -0.5928159    2.3835750    0.1692566 
C    -0.5123846    2.1292892   -1.2252389 
C     2.2876827    1.3321021    2.3662141 
C    -3.1737790    1.7654429    2.2214953 
C    -2.3653664   -1.1597153   -2.9158265 
C     2.4533253    1.4668025   -2.5765290 
C     3.1371332    2.0469435    3.4360490 
C     2.7131408   -0.1356540    2.2191225 
C    -4.2233511    1.6326287    3.3441932 
C    -3.7896298    1.3705451    0.8727044 
C    -3.2864880   -1.4101572   -4.1264159 
C    -3.1973215   -0.9885155   -1.6398357 
C     3.5755778    1.4683881   -3.6327097 
C     3.0132861    1.1054194   -1.1952828 
C    -0.8005081    3.7021764    0.6230153 
C    -0.6761407    3.1994851   -2.1287994 
C    -0.9518138    4.7562729   -0.2864183 
C    -0.8975020    4.5026065   -1.6647801 
H     0.6013495    2.6116436    2.7248572 
H    -2.2050424   -0.1399183    2.5381192 
H    -2.0354598    0.9617409   -3.2490629 
H     1.7118990   -0.5342048   -2.9463320 
H     0.3358895   -0.2150696    3.9175458 
H     0.7106714    1.2610754    4.8340806 
H    -1.4063929    2.3170412    4.1606557 
H    -1.8297413    0.6865616    4.7375164 
H    -0.2798894   -1.1850962   -4.5615818 
H    -1.1682839    0.1335394   -5.3590987 
H     0.4650119    1.8024101   -4.5172492 
H     1.4121327    0.4518979   -5.1660541 
H     2.4820238    1.8454391    1.4070442 
H    -2.8717625    2.8295194    2.1685781 
H    -1.7195550   -2.0507190   -2.7924444 
H     2.0280321    2.4888233   -2.5244452 
H     4.2062895    2.0088701    3.1647741 
H     3.0279359    1.5671976    4.4249194 
H     2.8503453    3.1088263    3.5365754 
H     3.7625255   -0.2029310    1.8845588 
H     2.0837554   -0.6603070    1.4730440 
H     2.6252011   -0.6727339    3.1784597 
H    -3.8527823    2.0092730    4.3118774 
H    -5.1297121    2.2074229    3.0871769 
H    -4.5207458    0.5759077    3.4780728 
H    -4.1128673    0.3141263    0.8870068 
H    -4.6750148    1.9907844    0.6513113 
H    -3.0758780    1.4991731    0.0419756 
H    -3.9058492   -0.5191627   -4.3383209 
H    -3.9692749   -2.2520482   -3.9185262 
H    -2.7196350   -1.6580738   -5.0390123 
H    -2.5463092   -0.8463981   -0.7544343 
H    -3.8256138   -1.8776247   -1.4570185 
H    -3.8640223   -0.1115988   -1.7161092 
H     3.9737768    0.4472014   -3.7784091 
H     4.4079738    2.1144300   -3.3040614 
H     3.2274802    1.8444668   -4.6091631 
H     3.4871682    0.1085277   -1.2125654 
H     3.7667972    1.8402276   -0.8639754 
H     2.2101357    1.0754799   -0.4392931 
H    -0.8503054    3.9113621    1.6968823 
H    -0.6292617    3.0199862   -3.2071320 
H    -1.1173557    5.7740758    0.0807898 
H    -1.0221529    5.3209936   -2.3809796 
