101
Energy =
C     0.1337796   -2.9679612   -0.8478672 
C     0.4651277   -3.0099909    0.5402306 
C    -0.4869657   -2.6343743    1.5184398 
H     1.5067804   -3.1819792    0.8386171 
Pd   -0.0886874   -0.9359718    0.0504075 
P    -0.4030622    0.9979724    1.3021394 
P    -0.1239843    0.4151188   -1.8340811 
H    -0.9177468   -3.1523581   -1.1099414 
H    -1.5455017   -2.6698396    1.2165254 
C     2.9191781   -3.5983581   -4.0786893 
C     3.3861507   -3.1704096   -2.8248684 
C     2.4913667   -2.9695439   -1.7679930 
C     1.1062608   -3.2003098   -1.9356710 
C     0.6543033   -3.6470041   -3.1984233 
C     1.5488777   -3.8391156   -4.2593133 
H     3.6203046   -3.7503668   -4.9054870 
H     4.4549038   -2.9862388   -2.6725359 
H     2.8692294   -2.6061432   -0.8067725 
H    -0.4103109   -3.8603289   -3.3448187 
H     1.1752629   -4.1886340   -5.2274312 
C     0.0332837   -2.3730081    5.7821933 
C    -1.2386437   -2.2505904    5.2029713 
C    -1.3890373   -2.3592131    3.8151082 
C    -0.2718366   -2.5774162    2.9733135 
C     0.9986736   -2.7272142    3.5763540 
C     1.1475913   -2.6233303    4.9629674 
H     0.1555599   -2.2910212    6.8669073 
H    -2.1171540   -2.0807661    5.8339626 
H    -2.3883067   -2.2861652    3.3704455 
H     1.8802436   -2.9252779    2.9599554 
H     2.1397373   -2.7417964    5.4106232 
C     0.9062204    1.6496829    2.4933172 
C    -1.7680032    0.9571616    2.6193755 
C    -1.2905660    0.0546956   -3.2960105 
C     1.4184751    0.4963858   -2.9198769 
C     0.3943175    1.1636117    3.8631277 
C    -1.1034037    1.4964987    3.9092229 
C    -0.3693826   -0.0148829   -4.5432401 
C     0.8769643    0.8506141   -4.3177100 
C    -0.6915921    2.3781347    0.1144201 
C    -0.6187830    2.1126575   -1.2769871 
C     2.3826893    1.3898033    2.1219369 
C    -3.1411811    1.5672468    2.2590045 
C    -2.2161338   -1.1733412   -3.1264076 
C     2.6852280    1.2561598   -2.4541610 
C     3.3175891    2.2730822    2.9706930 
C     2.7824995   -0.0886063    2.2190901 
C    -4.1245536    1.4003559    3.4346513 
C    -3.7177230    0.9480356    0.9780230 
C    -3.0647570   -1.3957268   -4.3936178 
C    -3.1159000   -1.0608159   -1.8893174 
C     3.4044556    0.4828011   -1.3376832 
C     2.4724429    2.7305791   -2.0738716 
C    -1.0005679    3.6795899    0.5603274 
C    -0.9079082    3.1498882   -2.1875448 
C    -1.2653688    4.7042235   -0.3564931 
C    -1.2300851    4.4343178   -1.7326394 
H     0.7469206    2.7454949    2.4493425 
H    -1.9086158   -0.1319480    2.7508856 
H    -1.9295061    0.9563146   -3.3563960 
H     1.6813094   -0.5823980   -2.9454988 
H     0.5413818    0.0731202    3.9707096 
H     0.9455252    1.6521348    4.6850740 
H    -1.2425781    2.5935062    3.9692296 
H    -1.5850263    1.0549694    4.7980230 
H    -0.0506404   -1.0638704   -4.6901135 
H    -0.9227199    0.2908979   -5.4469833 
H     0.6358122    1.9274750   -4.3851229 
H     1.6489555    0.6505020   -5.0823694 
H     2.4998229    1.7097215    1.0693091 
H    -3.0042183    2.6523235    2.0858398 
H    -1.5599870   -2.0538877   -3.0000411 
H     3.3487186    1.2440100   -3.3420804 
H     3.0562677    3.3421551    2.8781158 
H     4.3648075    2.1501379    2.6442418 
H     3.2680825    1.9998327    4.0398283 
H     3.8009855   -0.2428142    1.8238325 
H     2.0899745   -0.7253003    1.6352015 
H     2.7669445   -0.4388220    3.2650073 
H    -3.7804261    1.9237125    4.3422607 
H    -5.1136286    1.8100972    3.1668910 
H    -4.2581848    0.3313823    3.6850042 
H    -3.8334195   -0.1461158    1.0872375 
H    -4.7103936    1.3709914    0.7473840 
H    -3.0653761    1.1363082    0.1088284 
H    -3.6937615   -0.5114131   -4.6053911 
H    -3.7367994   -2.2605266   -4.2565514 
H    -2.4426871   -1.5941270   -5.2822665 
H    -2.5124935   -0.9545971   -0.9670052 
H    -3.7465891   -1.9599173   -1.7773572 
H    -3.7846695   -0.1840349   -1.9592398 
H     2.7083538    0.2562750   -0.5112025 
H     4.2482406    1.0632344   -0.9266755 
H     3.7967135   -0.4759723   -1.7123812 
H     1.9283739    2.8312295   -1.1188743 
H     3.4500650    3.2286185   -1.9550798 
H     1.9065364    3.2839299   -2.8424202 
H    -1.0423046    3.8961196    1.6331805 
H    -0.8732804    2.9640901   -3.2650569 
H    -1.5092406    5.7090255    0.0026602 
H    -1.4475958    5.2276181   -2.4548771 
