101
Energy =
C     0.4141067   -2.9502071   -0.7430994 
C     0.5985734   -2.9427615    0.6750606 
C    -0.4843376   -2.6758717    1.5456155 
H     1.6184420   -2.9743528    1.0790815 
Pd   -0.1436114   -0.9558141    0.1037587 
P    -0.4034130    0.9449167    1.4010856 
P    -0.1702387    0.4393944   -1.7555769 
H    -0.5584042   -3.2915676   -1.1238929 
H    -1.4963563   -2.8238764    1.1373558 
C     3.6419536   -3.1278346   -3.5953425 
C     3.8653400   -2.5870396   -2.3179516 
C     2.8265306   -2.5344540   -1.3821117 
C     1.5382424   -3.0309687   -1.6973631 
C     1.3321849   -3.5787900   -2.9836273 
C     2.3711338   -3.6244810   -3.9226641 
H     4.4536347   -3.1624940   -4.3289452 
H     4.8523380   -2.1926177   -2.0545078 
H     3.0072683   -2.0709431   -0.4066877 
H     0.3473455   -3.9830891   -3.2432834 
H     2.1890545   -4.0563815   -4.9122575 
C    -0.4518293   -2.3192514    5.8355934 
C     0.7455121   -2.6033486    5.1572357 
C     0.7557811   -2.7371013    3.7645116 
C    -0.4339675   -2.5825575    3.0150011 
C    -1.6364683   -2.3260240    3.7159614 
C    -1.6458110   -2.1898463    5.1095470 
H    -0.4553904   -2.2169482    6.9254181 
H     1.6766213   -2.7291731    5.7192429 
H     1.6966020   -2.9793021    3.2606174 
H    -2.5739456   -2.2410763    3.1541760 
H    -2.5878420   -1.9908069    5.6308719 
C     0.9332556    1.2739832    2.7094723 
C    -1.8461583    1.1435392    2.6071581 
C    -1.5192068    0.1717371   -3.0435591 
C     1.2475896    0.2694354   -3.0157413 
C     0.1676919    1.2088052    4.0513550 
C    -1.2293384    1.8056766    3.8559370 
C    -0.8186388   -0.7954193   -4.0143782 
C     0.5487474   -0.1776077   -4.3296401 
C    -0.4071668    2.3968717    0.2562547 
C    -0.3641693    2.1687680   -1.1445363 
C     2.1571392    0.3326766    2.6200090 
C    -3.1358452    1.7774317    2.0465637 
C    -2.9425728   -0.1892468   -2.5614783 
C     2.2385593    1.4451624   -3.2019203 
C     2.9174674    0.5135475    1.3019147 
C     3.0941530    0.5144249    3.8279559 
C    -4.2194069    1.8788548    3.1370750 
C    -3.6475165    0.9845432    0.8371674 
C    -3.0256687   -1.5045585   -1.7738505 
C    -3.9242497   -0.1958763   -3.7508767 
C     3.2695312    1.0884493   -4.2943406 
C     2.9652666    1.8210170   -1.9039191 
C    -0.4943799    3.7192603    0.7364930 
C    -0.4507244    3.2630170   -2.0288848 
C    -0.5598889    4.7998394   -0.1530264 
C    -0.5486751    4.5707832   -1.5371122 
H     1.2646437    2.3159155    2.5281269 
H    -2.0639603    0.0886825    2.8681174 
H    -1.5870452    1.1574144   -3.5475968 
H     1.8161907   -0.5870461   -2.6101989 
H     0.0754941    0.1525313    4.3662850 
H     0.7276665    1.7380635    4.8406378 
H    -1.1706574    2.9027045    3.7181110 
H    -1.8637638    1.6271033    4.7410839 
H    -0.6928970   -1.7866930   -3.5425804 
H    -1.4152010   -0.9401486   -4.9311319 
H     0.3991037    0.7072072   -4.9774012 
H     1.1950665   -0.8835917   -4.8760994 
H     1.7639184   -0.7009870    2.6496249 
H    -2.8948733    2.8046173    1.7091870 
H    -3.2594055    0.6289926   -1.8895987 
H     1.6680561    2.3273369   -3.5526554 
H     2.2589554    0.3027002    0.4389768 
H     3.7781265   -0.1756899    1.2426708 
H     3.3020719    1.5438690    1.1965030 
H     3.9818250   -0.1333514    3.7217409 
H     2.5996905    0.2485031    4.7772943 
H     3.4483436    1.5591573    3.9030598 
H    -3.9112103    2.5353942    3.9677937 
H    -5.1509784    2.2915350    2.7129786 
H    -4.4511260    0.8816700    3.5552379 
H    -3.8909559   -0.0565112    1.1189354 
H    -4.5550864    1.4441167    0.4101627 
H    -2.8830314    0.9436335    0.0428217 
H    -2.7377138   -2.3709230   -2.3959657 
H    -4.0543511   -1.6754584   -1.4138234 
H    -2.3578762   -1.4803827   -0.8884674 
H    -3.8696752    0.7463515   -4.3245631 
H    -4.9607453   -0.3141909   -3.3910715 
H    -3.7156493   -1.0306790   -4.4432091 
H     3.8177801    0.1678681   -4.0226335 
H     4.0043083    1.9047671   -4.4033168 
H     2.8007046    0.9286085   -5.2792831 
H     3.5590640    0.9672486   -1.5321405 
H     3.6570053    2.6631609   -2.0777154 
H     2.2634680    2.1249930   -1.1101778 
H    -0.5153027    3.9109216    1.8141155 
H    -0.4365982    3.0970368   -3.1111361 
H    -0.6273034    5.8211228    0.2351520 
H    -0.6109205    5.4119800   -2.2347658 
