101
Energy =
C     0.3294715   -2.9166990   -0.7481385 
C     0.7537345   -2.9128131    0.6124793 
C    -0.1570098   -2.6536190    1.6611673 
H     1.8262748   -2.9522865    0.8380582 
Pd   -0.0684067   -0.9115085    0.1751863 
P    -0.4296558    0.9878549    1.4738345 
P    -0.2443964    0.4786310   -1.6832051 
H    -0.7055180   -3.2269990   -0.9447395 
H    -1.2283708   -2.7810091    1.4416313 
C     2.9336332   -3.2127101   -4.1667604 
C     1.5667301   -3.5108566   -4.2773308 
C     0.7352475   -3.4295554   -3.1530962 
C     1.2482564   -3.0392193   -1.8949808 
C     2.6291310   -2.7440998   -1.7992034 
C     3.4613735   -2.8364260   -2.9203755 
H     3.5854494   -3.2777022   -5.0437447 
H     1.1475667   -3.8155580   -5.2418897 
H    -0.3286256   -3.6760788   -3.2426887 
H     3.0549698   -2.4199671   -0.8439182 
H     4.5272101   -2.6051137   -2.8238915 
C     0.7607370   -2.4170569    5.8590064 
C    -0.5440850   -2.1877397    5.3949289 
C    -0.8307710   -2.2955095    4.0289347 
C     0.1829568   -2.6096530    3.0934956 
C     1.4853563   -2.8689055    3.5810609 
C     1.7688031   -2.7730687    4.9474347 
H     0.9876273   -2.3381561    6.9269266 
H    -1.3423064   -1.9365614    6.1010749 
H    -1.8556364   -2.1388501    3.6740152 
H     2.2872476   -3.1449424    2.8899147 
H     2.7829555   -2.9774561    5.3055630 
C     0.6513947    1.5752431    2.9252317 
C    -2.0052300    0.9983997    2.5005091 
C    -1.6090787    0.3822711   -2.9942555 
C     1.1627409    0.3700991   -2.9415994 
C    -0.3473127    1.9178372    4.0737656 
C    -1.7742853    2.1139937    3.5331710 
C    -0.8967844   -0.2385769   -4.2127904 
C     0.4778357    0.4351815   -4.3268414 
C    -0.4143778    2.4486765    0.3321016 
C    -0.3574841    2.2139065   -1.0641512 
C     1.7662957    0.5981298    3.3691153 
C    -3.3853519    0.9348984    1.8082909 
C    -2.9770649   -0.2047936   -2.5730030 
C     2.3629782    1.3174536   -2.7184128 
C     2.7223026    0.2196114    2.2294305 
C     2.5582964    1.1869524    4.5528580 
C    -3.6109963   -0.4433230    1.1633783 
C    -3.6577893    2.0790004    0.8180737 
C    -2.9445637   -1.7133527   -2.2935804 
C    -4.0531928    0.1411521   -3.6207038 
C     3.4450592    1.0723218   -3.7883430 
C     2.9473573    1.1604620   -1.3060938 
C    -0.4448098    3.7795191    0.7999642 
C    -0.3695409    3.3059583   -1.9560274 
C    -0.4521014    4.8561487   -0.0953982 
C    -0.4215485    4.6204948   -1.4772994 
H     1.1327558    2.4960078    2.5460938 
H    -1.8666924    0.0396930    3.0416464 
H    -1.7797036    1.4520906   -3.2225223 
H     1.5210100   -0.6661731   -2.7932166 
H    -0.3595760    1.0645642    4.7769391 
H     0.0020766    2.7985056    4.6383156 
H    -1.9078279    3.1087723    3.0727299 
H    -2.5191739    2.0424239    4.3464217 
H    -0.7623528   -1.3251370   -4.0686800 
H    -1.4976392   -0.0989184   -5.1280061 
H     0.3584469    1.4899187   -4.6424272 
H     1.1054812   -0.0620636   -5.0854556 
H     1.2673793   -0.3204383    3.7234571 
H    -4.1179357    1.0346181    2.6344705 
H    -3.2614511    0.3065534   -1.6345718 
H     2.0062685    2.3601446   -2.8287670 
H     3.4833978   -0.4953085    2.5866968 
H     3.2497518    1.1075232    1.8355977 
H     2.1808174   -0.2541917    1.3879678 
H     3.3407258    0.4776662    4.8735801 
H     1.9161750    1.3875674    5.4265975 
H     3.0547478    2.1326008    4.2656427 
H    -3.5766455   -1.2491566    1.9180238 
H    -4.5904587   -0.4939611    0.6579722 
H    -2.8286343   -0.6584225    0.4108728 
H    -3.0295215    1.9904079   -0.0847297 
H    -4.7130002    2.0585863    0.4958793 
H    -3.4607373    3.0689217    1.2638265 
H    -2.7241948   -2.2915067   -3.2084001 
H    -3.9196116   -2.0560844   -1.9078930 
H    -2.1784439   -1.9574215   -1.5382333 
H    -4.1045070    1.2295038   -3.8016957 
H    -5.0471677   -0.1930323   -3.2764665 
H    -3.8510931   -0.3571412   -4.5855865 
H     3.7926209    0.0237330   -3.7570891 
H     4.3151922    1.7273935   -3.6098944 
H     3.0741355    1.2792918   -4.8062351 
H     3.2775895    0.1208648   -1.1317036 
H     3.8174899    1.8239376   -1.1633943 
H     2.2051585    1.4124446   -0.5291259 
H    -0.4617262    3.9889399    1.8728291 
H    -0.3295113    3.1328040   -3.0365397 
H    -0.4806329    5.8809427    0.2883536 
H    -0.4256801    5.4585051   -2.1814198 
