101
Energy =
C     0.1617921   -2.9738928   -0.7473698 
C     0.4499789   -2.9804787    0.6502336 
C    -0.5583615   -2.6498409    1.5894958 
H     1.4907222   -3.0877647    0.9818417 
Pd   -0.1934821   -0.9476823    0.1393820 
P    -0.4520621    0.9353200    1.4583699 
P    -0.1271920    0.4994662   -1.6873955 
H    -0.8658345   -3.2308337   -1.0415062 
H    -1.6002560   -2.7473402    1.2464110 
C     3.1135606   -3.5739920   -3.8273097 
C     3.4676533   -2.9133059   -2.6388337 
C     2.5172207   -2.7160306   -1.6310734 
C     1.1893589   -3.1780524   -1.7888112 
C     0.8478123   -3.8416740   -2.9892250 
C     1.8009760   -4.0392746   -3.9971630 
H     3.8580319   -3.7248683   -4.6155554 
H     4.4893236   -2.5436748   -2.5014994 
H     2.7971857   -2.1737774   -0.7201224 
H    -0.1733352   -4.2154625   -3.1251855 
H     1.5180425   -4.5606711   -4.9174153 
C    -0.2382683   -2.4027979    5.8764170 
C    -1.4808470   -2.2752794    5.2372289 
C    -1.5645504   -2.3714420    3.8425989 
C    -0.4091855   -2.5863543    3.0539234 
C     0.8316212   -2.7379349    3.7164849 
C     0.9145193   -2.6442976    5.1098711 
H    -0.1687251   -2.3302127    6.9664115 
H    -2.3884691   -2.1098799    5.8268017 
H    -2.5406390   -2.2920171    3.3501251 
H     1.7408914   -2.9427729    3.1428825 
H     1.8842940   -2.7664830    5.6030030 
C     0.8767136    1.2787897    2.7613239 
C    -1.9026791    1.0491208    2.6622691 
C    -1.2738327    0.2143445   -3.1798857 
C     1.4934687    0.5569887   -2.6871030 
C     0.1201664    1.1400368    4.1036194 
C    -1.3016794    1.6876680    3.9329557 
C    -0.3112322    0.3721875   -4.3844694 
C     1.0475338   -0.1995434   -3.9614882 
C    -0.5454521    2.4025006    0.3459880 
C    -0.5332457    2.1874372   -1.0560514 
C     2.1284530    0.3797995    2.6211941 
C    -3.2099632    1.6702105    2.1232107 
C    -2.0174844   -1.1517805   -3.1293103 
C     2.1323615    1.9547502   -2.9349867 
C     2.8782945    0.6485105    1.3104160 
C     3.0666020    0.5274525    3.8324060 
C    -4.3073462    1.6433312    3.2050185 
C    -3.6850581    0.9605922    0.8462698 
C    -2.8272162   -1.4041547   -4.4168002 
C    -2.9510070   -1.2463024   -1.9132403 
C     3.2337561    1.8799176   -4.0133927 
C     2.7224892    2.5508297   -1.6467455 
C    -0.7158860    3.7089638    0.8457841 
C    -0.7731119    3.2724456   -1.9232734 
C    -0.9156731    4.7852662   -0.0288193 
C    -0.9668710    4.5626105   -1.4130045 
H     1.1695202    2.3374663    2.6133316 
H    -2.0946447   -0.0184293    2.8866529 
H    -2.0329377    1.0179278   -3.1565873 
H     2.2143183   -0.0571534   -2.1189114 
H     0.0711869    0.0716074    4.3841572 
H     0.6620154    1.6647709    4.9084899 
H    -1.2858452    2.7903300    3.8330993 
H    -1.9230948    1.4540987    4.8145255 
H    -0.7081651   -0.1310998   -5.2805358 
H    -0.2039096    1.4409351   -4.6466424 
H     1.8051960   -0.1223646   -4.7567347 
H     0.9461318   -1.2749239   -3.7319257 
H     1.7646568   -0.6650252    2.5993055 
H    -3.0072293    2.7295711    1.8718785 
H    -1.2511027   -1.9462492   -3.0460464 
H     1.3540701    2.6459817   -3.3080141 
H     2.2184744    0.4933488    0.4369612 
H     3.7403702   -0.0328087    1.2019695 
H     3.2577580    1.6851774    1.2728721 
H     3.9704308   -0.0907764    3.6920079 
H     2.5831715    0.2029025    4.7691399 
H     3.3934153    1.5763656    3.9568760 
H    -4.0275018    2.2326251    4.0941717 
H    -5.2471213    2.0637376    2.8076356 
H    -4.5123957    0.6066200    3.5311650 
H    -3.8475114   -0.1176600    1.0299537 
H    -4.6357104    1.3897859    0.4865302 
H    -2.9464727    1.0570315    0.0319882 
H    -3.5582982   -0.5926692   -4.5878309 
H    -3.3900245   -2.3494784   -4.3291060 
H    -2.1886225   -1.4845712   -5.3116240 
H    -2.3988358   -1.0948790   -0.9639371 
H    -3.4347670   -2.2373677   -1.8644854 
H    -3.7467967   -0.4814383   -1.9646188 
H     3.9886638    1.1145901   -3.7548702 
H     3.7510633    2.8519697   -4.0866295 
H     2.8337133    1.6448193   -5.0133413 
H     3.5621925    1.9306189   -1.2856794 
H     3.1097405    3.5665428   -1.8357619 
H     1.9791460    2.6224101   -0.8370310 
H    -0.7045551    3.8894283    1.9255195 
H    -0.8049296    3.1157036   -3.0063133 
H    -1.0494906    5.7951925    0.3715692 
H    -1.1491500    5.3966648   -2.0980745 
