101
Energy =
C     0.3333526   -2.9341422   -0.8265236 
C     0.7189204   -2.9876000    0.5477545 
C    -0.2079954   -2.7018278    1.5759898 
H     1.7829013   -3.0771198    0.7993653 
Pd   -0.0076774   -0.9540494    0.1203254 
P    -0.3571351    0.9716580    1.3819148 
P    -0.1751208    0.3899600   -1.7587987 
H    -0.7043197   -3.2073835   -1.0648248 
H    -1.2776890   -2.7841884    1.3272442 
C     3.0601497   -3.1433685   -4.1599590 
C     1.7103646   -3.4923971   -4.3169170 
C     0.8369919   -3.4417926   -3.2221782 
C     1.2906860   -3.0337384   -1.9477384 
C     2.6561411   -2.6898125   -1.8045885 
C     3.5298815   -2.7488851   -2.8958505 
H     3.7435539   -3.1827328   -5.0141338 
H     1.3364896   -3.8132993   -5.2948043 
H    -0.2120412   -3.7303785   -3.3521521 
H     3.0334041   -2.3467447   -0.8353740 
H     4.5817809   -2.4754980   -2.7627339 
C     0.5947241   -2.4872612    5.7976883 
C    -0.6843510   -2.2035315    5.2933833 
C    -0.9345577   -2.3055336    3.9199184 
C     0.0916295   -2.6720672    3.0179465 
C     1.3672462   -2.9819846    3.5444491 
C     1.6137826   -2.8897318    4.9184335 
H     0.7928142   -2.4119384    6.8715864 
H    -1.4909649   -1.9118115    5.9739651 
H    -1.9384814   -2.0966819    3.5325785 
H     2.1771849   -3.2942874    2.8782426 
H     2.6076313   -3.1332769    5.3076642 
C     0.6392013    1.5004717    2.9056068 
C    -2.0230345    1.0863365    2.2376969 
C    -1.4734017    0.0266379   -3.0959457 
C     1.2804283    0.4800617   -2.9563890 
C    -0.4327964    1.7473334    4.0101545 
C    -1.7927155    2.0894114    3.3824945 
C    -0.6513955   -0.1320522   -4.4034411 
C     0.6270678    0.7096463   -4.3350689 
C    -0.3317363    2.3999820    0.2071098 
C    -0.4500637    2.1237642   -1.1798769 
C     1.7410520    0.5105320    3.3582432 
C    -3.2467550    1.2799280    1.2942370 
C    -2.4046111   -1.1813726   -2.8184883 
C     2.4207879    1.4535842   -2.5826979 
C     2.7530903    0.1773401    2.2542277 
C     2.4666186    1.0466304    4.6073588 
C    -3.7360666    2.7342624    1.1914006 
C    -4.3909567    0.3406164    1.7153786 
C    -3.3656607   -1.4083687   -4.0023938 
C    -3.1942624   -1.0480980   -1.5107818 
C     3.5596347    1.3675967   -3.6182464 
C     2.9566156    1.1917426   -1.1683054 
C    -0.3095948    3.7412717    0.6420703 
C    -0.6339850    3.1898700   -2.0843571 
C    -0.4571176    4.7927177   -0.2716596 
C    -0.6464808    4.5159499   -1.6334615 
H     1.1206033    2.4544734    2.6167184 
H    -2.0918216    0.0793690    2.6932102 
H    -2.0910890    0.9447659   -3.1454422 
H     1.6778598   -0.5536286   -2.9267211 
H    -0.5326193    0.8172147    4.6004278 
H    -0.0973289    2.5381365    4.7018398 
H    -1.7960133    3.1234428    2.9953408 
H    -2.6047789    2.0293363    4.1294621 
H    -0.3701189   -1.1957054   -4.5120405 
H    -1.2645209    0.1362597   -5.2800896 
H     0.4026260    1.7844381   -4.4720990 
H     1.3224586    0.4264081   -5.1434956 
H     1.2292239   -0.4243415    3.6448873 
H    -2.9270822    0.9764671    0.2807489 
H    -1.7527619   -2.0726681   -2.7359986 
H     2.0086613    2.4817777   -2.6099064 
H     2.2550107   -0.2819328    1.3788320 
H     3.5049838   -0.5395952    2.6267936 
H     3.2878387    1.0803962    1.9078125 
H     3.2387959    0.3285112    4.9331725 
H     1.7784378    1.1983459    5.4555885 
H     2.9674382    2.0090779    4.3926118 
H    -2.9368634    3.4171770    0.8596896 
H    -4.5573775    2.7994759    0.4568564 
H    -4.1255466    3.1001559    2.1578783 
H    -4.7335287    0.5691401    2.7412846 
H    -5.2581932    0.4451471    1.0403400 
H    -4.0683849   -0.7161927    1.6903158 
H    -3.9975003   -0.5166898   -4.1701296 
H    -4.0355136   -2.2601685   -3.7928827 
H    -2.8292105   -1.6288712   -4.9399542 
H    -2.5131891   -0.9562593   -0.6416788 
H    -3.8308068   -1.9342395   -1.3443453 
H    -3.8507797   -0.1595776   -1.5290979 
H     3.9596638    0.3383555   -3.6717369 
H     4.3869004    2.0405585   -3.3339558 
H     3.2257959    1.6583385   -4.6282542 
H     3.3352543    0.1584389   -1.0748121 
H     3.7830529    1.8816788   -0.9258900 
H     2.1714431    1.3323109   -0.4067278 
H    -0.1887342    3.9752291    1.7039168 
H    -0.7520098    2.9898146   -3.1536939 
H    -0.4393087    5.8281044    0.0830566 
H    -0.7841254    5.3331760   -2.3485707 
