101
Energy =
C     0.2584067   -2.9062480   -0.7831329 
C     0.5391564   -2.9993094    0.6135400 
C    -0.4613095   -2.6896047    1.5647520 
H     1.5718330   -3.1597257    0.9469349 
Pd   -0.0445104   -0.9194922    0.1761787 
P    -0.4863219    0.9755164    1.4548550 
P    -0.0504627    0.4489596   -1.6907541 
H    -0.7801041   -3.0996228   -1.0876919 
H    -1.5045244   -2.7308514    1.2145288 
C     3.1345733   -3.3512957   -3.9628227 
C     1.7678542   -3.5643965   -4.1980155 
C     0.8454948   -3.4338322   -3.1518863 
C     1.2653515   -3.0768742   -1.8497825 
C     2.6463441   -2.8694581   -1.6282622 
C     3.5688174   -3.0119034   -2.6707632 
H     3.8581517   -3.4565925   -4.7774561 
H     1.4190536   -3.8430235   -5.1978840 
H    -0.2171380   -3.6222807   -3.3413480 
H     3.0016124   -2.5700076   -0.6368760 
H     4.6342379   -2.8493549   -2.4768371 
C    -0.1304035   -2.6863349    5.8546068 
C    -1.3762241   -2.5308173    5.2281977 
C    -1.4650138   -2.5482183    3.8311092 
C    -0.3108619   -2.7105336    3.0283884 
C     0.9338479   -2.8912932    3.6758702 
C     1.0212562   -2.8760090    5.0717146 
H    -0.0571068   -2.6751535    6.9467381 
H    -2.2823021   -2.4043701    5.8297489 
H    -2.4428714   -2.4412352    3.3477423 
H     1.8426098   -3.0450682    3.0864042 
H     1.9938392   -3.0160247    5.5546116 
C     0.6667131    1.5458544    2.8338018 
C    -2.0016338    0.8732065    2.6115054 
C    -1.3021403    0.1302591   -3.0930026 
C     1.4424105    0.5220780   -2.8431964 
C     0.0687977    0.8330250    4.0587708 
C    -1.4354034    1.1320199    4.0345258 
C    -0.4352528    0.0142548   -4.3740615 
C     0.8402147    0.8492968   -4.2254720 
C    -0.6070189    2.3994284    0.2871710 
C    -0.4173690    2.1687238   -1.1008364 
C     2.1896418    1.4409541    2.6177233 
C    -3.2505883    1.7185497    2.2617411 
C    -2.2523043   -1.0743417   -2.8863047 
C     2.6427217    1.3721459   -2.3506720 
C     2.6808495    0.0023193    2.3978441 
C     2.6458531    2.4038331    1.5094755 
C    -4.3394822    1.5302315    3.3384720 
C    -3.8170069    1.3806239    0.8765698 
C    -3.1460151   -1.2861891   -4.1246124 
C    -3.1141408   -0.9383073   -1.6263744 
C     3.5480220    1.8254266   -3.5120422 
C     3.4649520    0.5754604   -1.3247674 
C    -0.8616182    3.7074528    0.7468961 
C    -0.5116476    3.2576370   -1.9925668 
C    -0.9466209    4.7780673   -0.1510384 
C    -0.7739937    4.5512359   -1.5241715 
H     0.4248710    2.6235302    2.9311107 
H    -2.2814685   -0.1936182    2.5315980 
H    -1.9088959    1.0557728   -3.1326310 
H     1.7584034   -0.5410565   -2.8743892 
H     0.2485477   -0.2550463    4.0066798 
H     0.5427606    1.1985481    4.9868720 
H    -1.5967051    2.1953915    4.2953506 
H    -1.9801151    0.5245027    4.7760454 
H    -0.1504268   -1.0454597   -4.5112106 
H    -1.0165497    0.3161810   -5.2613367 
H     0.6206302    1.9287981   -4.3155086 
H     1.5625699    0.6082474   -5.0237378 
H     2.6376380    1.7976350    3.5673956 
H    -2.9542451    2.7854267    2.2674159 
H    -1.6121468   -1.9698544   -2.7751700 
H     2.2459376    2.2856930   -1.8644861 
H     2.4740903   -0.6293583    3.2764557 
H     3.7678166   -0.0159623    2.2094866 
H     2.1755270   -0.4587761    1.5250183 
H     3.7417393    2.3772682    1.3882103 
H     2.3511474    3.4426396    1.7403762 
H     2.1903729    2.1402401    0.5399717 
H    -4.0082362    1.8660555    4.3349374 
H    -5.2401673    2.1101408    3.0731235 
H    -4.6333770    0.4668344    3.4144663 
H    -4.1448834    0.3264316    0.8383311 
H    -4.6913478    2.0137954    0.6480290 
H    -3.0729435    1.5377985    0.0779941 
H    -3.7551693   -0.3860040   -4.3269240 
H    -3.8382926   -2.1290246   -3.9553524 
H    -2.5593568   -1.5133103   -5.0301074 
H    -2.4854994   -0.8104719   -0.7228816 
H    -3.7396127   -1.8358853   -1.4781496 
H    -3.7859525   -0.0652216   -1.6997915 
H     3.9318023    0.9566131   -4.0774559 
H     4.4174467    2.3780400   -3.1157717 
H     3.0233003    2.4916483   -4.2170845 
H     3.9769969   -0.2648451   -1.8239751 
H     4.2297863    1.2087272   -0.8459167 
H     2.8236499    0.1516203   -0.5331508 
H    -0.9932939    3.8962442    1.8174436 
H    -0.3791516    3.1008815   -3.0666475 
H    -1.1491567    5.7875616    0.2205325 
H    -0.8392652    5.3828371   -2.2329520 
