101
Energy =
C     0.0024594   -2.9603794   -0.8450583 
C     0.2980963   -3.0382915    0.5504933 
C    -0.6696376   -2.6787013    1.5181330 
H     1.3336882   -3.2181535    0.8655916 
Pd   -0.2452804   -0.9561287    0.0898758 
P    -0.4968636    0.9620433    1.3692340 
P    -0.1913183    0.4482597   -1.7466178 
H    -1.0375326   -3.1528015   -1.1457489 
H    -1.7239981   -2.7063391    1.2007440 
C     2.9246620   -3.5257305   -3.9665084 
C     1.5709249   -3.8146941   -4.1944312 
C     0.6303792   -3.6383241   -3.1708514 
C     1.0189822   -3.1577978   -1.8999256 
C     2.3870931   -2.8614345   -1.6884556 
C     3.3283647   -3.0549442   -2.7060666 
H     3.6616588   -3.6694358   -4.7629996 
H     1.2465687   -4.1918016   -5.1699097 
H    -0.4199686   -3.8920948   -3.3521608 
H     2.7143076   -2.4538476   -0.7251792 
H     4.3833430   -2.8301235   -2.5179555 
C    -0.1901076   -2.4353109    5.7874178 
C    -1.4584802   -2.3277560    5.1983990 
C    -1.5964293   -2.4324141    3.8083965 
C    -0.4697273   -2.6330933    2.9753664 
C     0.7986040   -2.7635559    3.5878003 
C     0.9347624   -2.6647086    4.9759340 
H    -0.0778052   -2.3567314    6.8734813 
H    -2.3443181   -2.1708252    5.8224860 
H    -2.5925462   -2.3682505    3.3552336 
H     1.6878650   -2.9421142    2.9766133 
H     1.9249804   -2.7696955    5.4312360 
C     0.9076929    1.5924209    2.4593689 
C    -1.7521791    0.9147274    2.7768135 
C    -1.2044956    0.1515023   -3.3208726 
C     1.4508722    0.5093924   -2.6487816 
C     0.4769132    1.1490773    3.8721330 
C    -1.0140468    1.5031761    4.0020670 
C    -0.1534001    0.0769949   -4.4620637 
C     1.0803526    0.9155308   -4.0875930 
C    -0.8233816    2.3623451    0.2176662 
C    -0.7014790    2.1331563   -1.1760086 
C     2.3454619    1.2933311    1.9781244 
C    -3.1739771    1.4402196    2.4827492 
C    -2.1790815   -1.0474359   -3.2518224 
C     2.6615350    1.1745451   -1.9520971 
C     3.3690621    2.1048006    2.7953177 
C     2.7009144   -0.1998611    1.9731069 
C    -4.0832312    1.2381546    3.7106514 
C    -3.7719716    0.7598832    1.2404079 
C    -2.9068398   -1.2385594   -4.5961082 
C    -3.1864996   -0.9003837   -2.1019563 
C     2.5603558    2.6993298   -1.7775229 
C     3.9596548    0.8014820   -2.6958381 
C    -1.1550769    3.6498161    0.6873136 
C    -0.9474931    3.1956468   -2.0707737 
C    -1.3910339    4.6962240   -0.2126370 
C    -1.2925369    4.4658524   -1.5935531 
H     0.7737838    2.6912787    2.4068783 
H    -1.8312835   -0.1757918    2.9478674 
H    -1.8085396    1.0714839   -3.4363231 
H     1.6722864   -0.5781193   -2.6768859 
H     0.6159903    0.0597777    4.0015959 
H     1.0834985    1.6533361    4.6439541 
H    -1.1405583    2.6030757    4.0304987 
H    -1.4418817    1.0990508    4.9351607 
H     0.1588761   -0.9764030   -4.5904861 
H    -0.5985640    0.4075013   -5.4155765 
H     0.8614006    1.9974575   -4.1504972 
H     1.9179125    0.7171691   -4.7787555 
H     2.3988531    1.6574461    0.9342444 
H    -3.1121495    2.5274751    2.2827544 
H    -1.5674824   -1.9499048   -3.0654805 
H     2.7175382    0.7158889   -0.9449196 
H     3.1312335    3.1832554    2.7827395 
H     4.3834094    1.9759071    2.3796489 
H     3.3958901    1.7723993    3.8483744 
H     3.6963574   -0.3597913    1.5237595 
H     1.9629669   -0.7773984    1.3811261 
H     2.7196375   -0.6123926    2.9961619 
H    -3.7188813    1.7942150    4.5906900 
H    -5.1067580    1.5886075    3.4929242 
H    -4.1421440    0.1678211    3.9826004 
H    -3.7985724   -0.3386906    1.3669413 
H    -4.8043402    1.1044518    1.0591831 
H    -3.1830446    0.9820596    0.3336240 
H    -3.4884790   -0.3360776   -4.8601621 
H    -3.6115055   -2.0858029   -4.5338412 
H    -2.2051053   -1.4471881   -5.4210667 
H    -2.6695209   -0.8358609   -1.1251058 
H    -3.8705062   -1.7658277   -2.0629264 
H    -3.7996544    0.0116972   -2.2212849 
H     2.4446758    3.2092230   -2.7506306 
H     3.4835454    3.0852664   -1.3111926 
H     1.7140154    2.9952389   -1.1375598 
H     4.0040958    1.2841543   -3.6883614 
H     4.8413685    1.1385814   -2.1237371 
H     4.0397469   -0.2891259   -2.8428741 
H    -1.2322637    3.8380045    1.7634423 
H    -0.8600953    3.0407484   -3.1503795 
H    -1.6554028    5.6899092    0.1626274 
H    -1.4791672    5.2797016   -2.3014090 
