101
Energy =
C     0.3616171   -2.9138249   -0.8551324 
C     0.5856229   -2.9719223    0.5556427 
C    -0.4577574   -2.6999276    1.4684735 
H     1.6124727   -3.0718755    0.9288678 
Pd   -0.0865421   -0.9257483    0.0649183 
P    -0.4115561    0.9651392    1.3693335 
P    -0.1889496    0.4814412   -1.7744815 
H    -0.6332846   -3.2022097   -1.2185250 
H    -1.4868567   -2.7777934    1.0841209 
C     3.4721616   -3.0871474   -3.8328500 
C     2.1610537   -3.4791907   -4.1438453 
C     1.1624522   -3.4409866   -3.1618832 
C     1.4487955   -3.0018144   -1.8491789 
C     2.7765429   -2.6106594   -1.5510316 
C     3.7755970   -2.6588462   -2.5295842 
H     4.2534379   -3.1168134   -4.5989890 
H     1.9162373   -3.8238258   -5.1539399 
H     0.1445925   -3.7641252   -3.4079899 
H     3.0235387   -2.2371303   -0.5513200 
H     4.7951699   -2.3482619   -2.2784483 
C    -0.2734339   -2.5298778    5.7627057 
C    -1.4971266   -2.3998918    5.0888042 
C    -1.5384371   -2.4800669    3.6914035 
C    -0.3572403   -2.6751037    2.9354090 
C     0.8631474   -2.8350492    3.6324566 
C     0.9028915   -2.7603355    5.0283370 
H    -0.2366497   -2.4705980    6.8551576 
H    -2.4228617   -2.2462336    5.6529542 
H    -2.4999277   -2.4016027    3.1708563 
H     1.7889064   -3.0248899    3.0818480 
H     1.8569894   -2.8876484    5.5501497 
C     0.8650120    1.5460290    2.6362009 
C    -1.8162447    0.8880790    2.6324462 
C    -1.5213071    0.2997047   -3.1049243 
C     1.2433930    0.3667781   -3.0044449 
C     0.2850180    1.0309663    3.9686757 
C    -1.2073517    1.3987623    3.9583009 
C    -0.7759174   -0.4345108   -4.2368698 
C     0.5796517    0.2697285   -4.3973737 
C    -0.5912193    2.4127018    0.2365043 
C    -0.4256067    2.2065171   -1.1563502 
C     2.3565639    1.2967332    2.3179394 
C    -3.1741796    1.4790070    2.1993194 
C    -2.9197948   -0.2105718   -2.6835833 
C     2.3826635    1.3956309   -2.8419451 
C     3.2526351    2.0156558    3.3458191 
C     2.7321215   -0.1857806    2.2015430 
C    -4.2161433    1.3309456    3.3245566 
C    -3.6677505    0.8140849    0.9049562 
C    -2.9229271   -1.6003340   -2.0326906 
C    -3.8882947   -0.1580669   -3.8823773 
C     3.4754252    1.1616045   -3.9031288 
C     2.9764403    1.3343026   -1.4265810 
C    -0.8352405    3.7145758    0.7199465 
C    -0.4934056    3.3087781   -2.0329903 
C    -0.9080416    4.8002547   -0.1621126 
C    -0.7296908    4.5981385   -1.5392725 
H     0.7203992    2.6445748    2.6261309 
H    -1.9457682   -0.2057913    2.7386189 
H    -1.6596943    1.3466062   -3.4404360 
H     1.6596423   -0.6297951   -2.7635251 
H     0.4056877   -0.0646653    4.0547734 
H     0.8088501    1.4879935    4.8255837 
H    -1.3244960    2.4976104    4.0308671 
H    -1.7377080    0.9541757    4.8175841 
H    -0.6195585   -1.4969318   -3.9764041 
H    -1.3604737   -0.4062642   -5.1721979 
H     0.4253998    1.2835087   -4.8157720 
H     1.2380471   -0.2766437   -5.0935322 
H     2.5435177    1.7708784    1.3364928 
H    -3.0371682    2.5603949    2.0019883 
H    -3.2955647    0.5091786   -1.9324043 
H     1.9642804    2.4092304   -2.9994669 
H     2.9913668    3.0853858    3.4325115 
H     4.3122614    1.9488757    3.0444289 
H     3.1622581    1.5586320    4.3473588 
H     3.7815908   -0.2956125    1.8780730 
H     2.0901654   -0.6955264    1.4564817 
H     2.6172798   -0.7038764    3.1683676 
H    -3.9239776    1.8831909    4.2334234 
H    -5.1949621    1.7205393    2.9957575 
H    -4.3495846    0.2675709    3.5977507 
H    -3.8042737   -0.2741116    1.0472721 
H    -4.6326782    1.2389525    0.5799682 
H    -2.9446926    0.9545403    0.0824524 
H    -2.5197233   -2.3718069   -2.7136110 
H    -3.9504675   -1.8964622   -1.7609771 
H    -2.3145245   -1.6019293   -1.1080940 
H    -3.8803890    0.8350469   -4.3660163 
H    -4.9201494   -0.3652952   -3.5505763 
H    -3.6266786   -0.9124005   -4.6455764 
H     3.8775635    0.1349890   -3.8256332 
H     4.3098482    1.8690387   -3.7564181 
H     3.0930188    1.3033399   -4.9279304 
H     3.4032385    0.3357612   -1.2239409 
H     3.7757010    2.0838522   -1.2965113 
H     2.2053679    1.5295076   -0.6609176 
H    -0.9682967    3.8863551    1.7936205 
H    -0.3629854    3.1633105   -3.1108245 
H    -1.1011023    5.8054674    0.2258631 
H    -0.7769791    5.4457106   -2.2304063 
