101
Energy =
C     0.0987821   -2.9589663   -0.8792315 
C     0.4273338   -3.0210385    0.5087345 
C    -0.5206897   -2.6426659    1.4899748 
H     1.4661622   -3.2108744    0.8063227 
Pd   -0.0974196   -0.9335113    0.0408433 
P    -0.3983034    0.9888576    1.3112852 
P    -0.1099319    0.4369780   -1.8292260 
H    -0.9548055   -3.1259123   -1.1448299 
H    -1.5792551   -2.6605758    1.1865592 
C     2.8821694   -3.5933161   -4.1109342 
C     1.5103660   -3.8234364   -4.2940548 
C     0.6160540   -3.6304557   -3.2330239 
C     1.0701311   -3.1936172   -1.9676464 
C     2.4567341   -2.9739623   -1.7973090 
C     3.3511365   -3.1755897   -2.8543683 
H     3.5828872   -3.7455546   -4.9380539 
H     1.1352448   -4.1652659   -5.2643447 
H    -0.4499734   -3.8351883   -3.3815790 
H     2.8358234   -2.6184131   -0.8336142 
H     4.4210466   -2.9998321   -2.7001218 
C    -0.0025138   -2.4375074    5.7571640 
C    -1.2725048   -2.2953151    5.1781752 
C    -1.4224997   -2.3860669    3.7889713 
C    -0.3066321   -2.6053854    2.9456893 
C     0.9616585   -2.7750796    3.5481578 
C     1.1100996   -2.6893112    4.9360750 
H     0.1193892   -2.3696035    6.8429051 
H    -2.1499147   -2.1238153    5.8102629 
H    -2.4205894   -2.2979817    3.3443583 
H     1.8419569   -2.9743895    2.9303221 
H     2.1005522   -2.8230485    5.3832097 
C     0.9111921    1.6143640    2.5159170 
C    -1.7701770    0.9460384    2.6213070 
C    -1.2725732    0.1045607   -3.3010079 
C     1.4389348    0.5136353   -2.9064097 
C     0.3886405    1.1163658    3.8773868 
C    -1.1062024    1.4623476    3.9209811 
C    -0.3454834    0.0372798   -4.5439264 
C     0.9084127    0.8876260   -4.3032827 
C    -0.6669681    2.3847997    0.1374505 
C    -0.5894256    2.1337231   -1.2563613 
C     2.3869115    1.3452631    2.1480346 
C    -3.1350028    1.5754535    2.2622705 
C    -2.2127113   -1.1146770   -3.1490410 
C     2.7112986    1.2552253   -2.4267471 
C     3.3259736    2.2101993    3.0109659 
C     2.7725911   -0.1378088    2.2302901 
C    -4.1253153    1.4051413    3.4315992 
C    -3.7127826    0.9780744    0.9715130 
C    -3.0568005   -1.3145663   -4.4230174 
C    -3.1179485   -1.0045406   -1.9157339 
C     3.4174936    0.4623085   -1.3156401 
C     2.5120443    2.7275503   -2.0313056 
C    -0.9644313    3.6845428    0.5960142 
C    -0.8625471    3.1838548   -2.1570434 
C    -1.2131940    4.7219082   -0.3109270 
C    -1.1734508    4.4666324   -1.6897728 
H     0.7621157    2.7120353    2.4844612 
H    -1.9233169   -0.1430045    2.7384316 
H    -1.9009939    1.0139418   -3.3556070 
H     1.6906844   -0.5675001   -2.9419248 
H     0.5253729    0.0233363    3.9722545 
H     0.9404363    1.5897630    4.7077591 
H    -1.2355778    2.5597218    3.9944577 
H    -1.5958801    1.0138180    4.8018519 
H    -0.0369056   -1.0135497   -4.6992816 
H    -0.8907557    0.3575595   -5.4475673 
H     0.6784933    1.9675123   -4.3609824 
H     1.6824008    0.6873968   -5.0658984 
H     2.5117643    1.6759617    1.0996057 
H    -2.9853906    2.6609891    2.1029002 
H    -1.5670563   -2.0037020   -3.0283721 
H     3.3786610    1.2458992   -3.3118109 
H     4.3735682    2.0808933    2.6881663 
H     3.2686733    1.9256132    4.0767720 
H     3.0752227    3.2826775    2.9290109 
H     3.7912224   -0.2971696    1.8374573 
H     2.0765224   -0.7614939    1.6365984 
H     2.7493630   -0.4994671    3.2721545 
H    -3.7793333    1.9132578    4.3471323 
H    -5.1085347    1.8293334    3.1647165 
H    -4.2720842    0.3347036    3.6680113 
H    -3.8411917   -0.1159187    1.0671696 
H    -4.6996905    1.4148671    0.7418380 
H    -3.0546530    1.1694338    0.1073757 
H    -3.6747367   -0.4211562   -4.6291212 
H    -3.7391946   -2.1731500   -4.2984521 
H    -2.4320664   -1.5109358   -5.3102741 
H    -2.5184612   -0.9141475   -0.9891725 
H    -3.7591808   -1.8976371   -1.8161354 
H    -3.7766398   -0.1197402   -1.9804741 
H     2.7152416    0.2337413   -0.4949679 
H     4.2651388    1.0295626   -0.8943086 
H     3.8020518   -0.4961124   -1.6992577 
H     1.9644240    2.8234584   -1.0778438 
H     3.4942237    3.2140170   -1.9024837 
H     1.9556634    3.2950867   -2.7964678 
H    -1.0097685    3.8897855    1.6709483 
H    -0.8240856    3.0094674   -3.2363477 
H    -1.4479222    5.7253925    0.0579066 
H    -1.3787975    5.2700016   -2.4044151 
