101
Energy =
C     0.5514584   -2.9672719   -0.8833739 
C     0.7332555   -2.9704316    0.5348341 
C    -0.3625499   -2.7590183    1.4033238 
H     1.7518890   -2.9710350    0.9431409 
Pd   -0.0722229   -1.0010556   -0.0235042 
P    -0.4651163    0.8795380    1.2677323 
P    -0.1529298    0.3930049   -1.8756583 
H    -0.4104329   -3.3339874   -1.2670717 
H    -1.3655848   -2.9389310    0.9861680 
C     3.7682372   -3.0129876   -3.7518540 
C     2.5041116   -3.5214004   -4.0868201 
C     1.4704793   -3.5202582   -3.1409327 
C     1.6744239   -3.0047233   -1.8408929 
C     2.9552701   -2.4937710   -1.5187912 
C     3.9894241   -2.5038205   -2.4610401 
H     4.5763840   -3.0132178   -4.4901405 
H     2.3235901   -3.9280332   -5.0873271 
H     0.4907995   -3.9333374   -3.4063017 
H     3.1343723   -2.0538491   -0.5320002 
H     4.9709104   -2.0995404   -2.1922701 
C    -0.3774022   -2.4436768    5.6952769 
C    -1.5733528   -2.3907281    4.9634214 
C    -1.5464776   -2.5178233    3.5690310 
C    -0.3257212   -2.6873084    2.8732448 
C     0.8669834   -2.7714030    3.6294348 
C     0.8396934   -2.6475936    5.0225601 
H    -0.3932592   -2.3466840    6.7855134 
H    -2.5298588   -2.2574832    5.4792719 
H    -2.4842697   -2.4943482    3.0021208 
H     1.8246430   -2.9462742    3.1291292 
H     1.7736699   -2.7158121    5.5897507 
C     0.7666818    1.3334076    2.6449887 
C    -1.9422108    0.8630442    2.4284210 
C    -1.5178984    0.1190791   -3.1497222 
C     1.2454555    0.2522104   -3.1573553 
C    -0.0771886    1.3508742    3.9466197 
C    -1.5231651    1.7480989    3.6167933 
C    -0.8088832   -0.7680021   -4.1875831 
C     0.5336967   -0.0911200   -4.4916506 
C    -0.4698394    2.3424977    0.1327681 
C    -0.3653193    2.1201012   -1.2648146 
C     2.0161973    0.4237005    2.7061987 
C    -3.3749718    0.9887101    1.8606666 
C    -2.9136119   -0.3283593   -2.6648346 
C     2.2875962    1.3921073   -3.2459637 
C     2.8464721    0.4977376    1.4193175 
C     2.8817199    0.7492443    3.9373951 
C    -3.7599620    2.4064879    1.4082432 
C    -4.3940925    0.4527439    2.8871502 
C    -3.5919772    0.7969451   -1.8694191 
C    -2.9205025   -1.6500590   -1.8831518 
C     3.3269537    1.0690727   -4.3395349 
C     2.9884747    1.6381736   -1.9028380 
C    -0.5744095    3.6653370    0.6108085 
C    -0.4198502    3.2153440   -2.1506655 
C    -0.6064793    4.7470605   -0.2777435 
C    -0.5406953    4.5216484   -1.6612770 
H     1.0899711    2.3644551    2.4026329 
H    -1.8376317   -0.1832225    2.7836889 
H    -1.6383166    1.1228089   -3.6054308 
H     1.7754782   -0.6527847   -2.8081157 
H    -0.0772635    0.3361332    4.3877943 
H     0.3767478    2.0306949    4.6871201 
H    -1.5939048    2.8212186    3.3607830 
H    -2.1886715    1.5811127    4.4819002 
H    -0.6394464   -1.7812312   -3.7796686 
H    -1.4315685   -0.8771688   -5.0931531 
H     0.3515868    0.8395672   -5.0626888 
H     1.1821773   -0.7361433   -5.1072244 
H     1.6467067   -0.6124904    2.8173354 
H    -3.4206511    0.3200441    0.9795088 
H    -3.5001247   -0.4889847   -3.5918841 
H     1.7650341    2.3221511   -3.5427774 
H     2.2416135    0.1951272    0.5432625 
H     3.7187068   -0.1774160    1.4734781 
H     3.2220897    1.5210877    1.2388444 
H     3.7831614    0.1119261    3.9487689 
H     2.3398029    0.5753274    4.8820294 
H     3.2157294    1.8032146    3.9200989 
H    -3.0846938    2.7948504    0.6295306 
H    -4.7829413    2.4065278    0.9942208 
H    -3.7458797    3.1137325    2.2567051 
H    -4.4240127    1.0850775    3.7923452 
H    -5.4092904    0.4457762    2.4543873 
H    -4.1505880   -0.5778044    3.2007598 
H    -3.0052663    1.0362109   -0.9662801 
H    -4.6060737    0.5058187   -1.5465494 
H    -3.6729438    1.7226897   -2.4652676 
H    -2.4566035   -2.4731825   -2.4536356 
H    -3.9538445   -1.9494139   -1.6384340 
H    -2.3644451   -1.5392815   -0.9284683 
H     3.8317527    0.1101047   -4.1228585 
H     4.0953976    1.8603328   -4.3788582 
H     2.8708095    0.9972087   -5.3409715 
H     3.5095311    0.7249106   -1.5641563 
H     3.7381650    2.4426549   -1.9950319 
H     2.2743354    1.9375389   -1.1177318 
H    -0.6448834    3.8566142    1.6857709 
H    -0.3641818    3.0499891   -3.2317141 
H    -0.6911858    5.7671117    0.1101701 
H    -0.5769928    5.3642814   -2.3590274 
