101
Energy =
C     0.2152588   -2.9368121   -0.8550973 
C     0.6283243   -2.9874301    0.5107285 
C    -0.2676745   -2.6601590    1.5547805 
H     1.6939482   -3.1130967    0.7392330 
Pd   -0.0391999   -0.9375384    0.0757260 
P    -0.3569027    0.9895311    1.3434032 
P    -0.1643225    0.4072151   -1.8088221 
H    -0.8374001   -3.1740007   -1.0663871 
H    -1.3442588   -2.7206404    1.3306387 
C     2.8616372   -3.3556109   -4.2321170 
C     3.3655750   -2.9025403   -3.0013161 
C     2.5166243   -2.7700618   -1.8968409 
C     1.1428825   -3.0971830   -1.9939040 
C     0.6531451   -3.5590518   -3.2358529 
C     1.5024471   -3.6850636   -4.3434478 
H     3.5258368   -3.4540656   -5.0966397 
H     4.4247241   -2.6417161   -2.9049656 
H     2.9190814   -2.3818546   -0.9547340 
H    -0.4045526   -3.8301283   -3.3291413 
H     1.1019562   -4.0482106   -5.2956455 
C     0.6177986   -2.4201772    5.7593960 
C    -0.6812506   -2.1840370    5.2833152 
C    -0.9561602   -2.2929882    3.9147557 
C     0.0636910   -2.6176944    2.9892302 
C     1.3603274   -2.8813907    3.4886904 
C     1.6319483   -2.7835652    4.8572321 
H     0.8359274   -2.3396977    6.8290437 
H    -1.4846097   -1.9264555    5.9813290 
H    -1.9773481   -2.1318772    3.5503449 
H     2.1676721   -3.1602415    2.8050947 
H     2.6420636   -2.9915790    5.2247008 
C     0.7796812    1.6130598    2.7310218 
C    -1.8774009    1.0068359    2.4415728 
C    -1.4293890    0.0659145   -3.1812497 
C     1.3218170    0.4706142   -2.9714196 
C    -0.1818474    2.0834706    3.8732253 
C    -1.6414584    2.1898739    3.3938388 
C    -0.5689949   -0.2188038   -4.4362109 
C     0.7092216    0.6245791   -4.3798143 
C    -0.4380599    2.4125147    0.1576037 
C    -0.4642703    2.1356192   -1.2339733 
C     1.8249719    0.5874033    3.2432205 
C    -3.2732402    0.8333039    1.8021970 
C    -2.4709404   -1.0293530   -2.8549704 
C     2.4403597    1.4706907   -2.6047057 
C     2.7575865    0.0582383    2.1458200 
C     2.6620425    1.1987863    4.3847540 
C    -3.7194270    2.0106354    0.9193569 
C    -4.3209528    0.5366241    2.8940394 
C    -3.3947280   -1.2916131   -4.0595451 
C    -3.2893410   -0.6775570   -1.6067521 
C     3.6027201    1.3707352   -3.6122025 
C     2.9464475    1.2517016   -1.1723298 
C    -0.4968032    3.7550289    0.5877877 
C    -0.6236136    3.1946455   -2.1509283 
C    -0.6419158    4.7992101   -0.3341029 
C    -0.7249638    4.5184143   -1.7053122 
H     1.3175513    2.4729743    2.2897083 
H    -1.6709356    0.0835825    3.0224971 
H    -1.9642834    1.0271831   -3.3117758 
H     1.7309711   -0.5554800   -2.8848190 
H    -0.1451527    1.3224752    4.6735411 
H     0.1740626    3.0299824    4.3135113 
H    -1.8415909    3.1465568    2.8814627 
H    -2.3329363    2.1452622    4.2534816 
H    -0.2949528   -1.2894994   -4.4480533 
H    -1.1464934   -0.0158926   -5.3538703 
H     0.4851647    1.6900212   -4.5799596 
H     1.4284085    0.2998695   -5.1508515 
H     1.2591513   -0.2668092    3.6586211 
H    -3.2081919   -0.0667849    1.1621368 
H    -1.9077946   -1.9604197   -2.6485600 
H     2.0171125    2.4926593   -2.6688789 
H     2.1898311   -0.4214649    1.3248182 
H     3.4505440   -0.6925710    2.5625434 
H     3.3638032    0.8720584    1.7097512 
H     3.3843608    0.4549189    4.7628850 
H     2.0416601    1.5206194    5.2374680 
H     3.2339775    2.0748977    4.0264686 
H    -3.0375765    2.1729368    0.0690476 
H    -4.7261238    1.8160720    0.5110911 
H    -3.7721624    2.9506309    1.4969344 
H    -4.4860554    1.4140981    3.5440954 
H    -5.2907808    0.2762306    2.4362776 
H    -4.0101770   -0.3078989    3.5353881 
H    -3.9305848   -0.3697423   -4.3518542 
H    -4.1515970   -2.0528029   -3.8026559 
H    -2.8376744   -1.6573046   -4.9382326 
H    -2.6255232   -0.5371751   -0.7325701 
H    -4.0062308   -1.4795068   -1.3593528 
H    -3.8596967    0.2574885   -1.7525323 
H     4.0167166    0.3456320   -3.6291212 
H     4.4156148    2.0613997   -3.3288818 
H     3.2873557    1.6293550   -4.6367460 
H     3.3364737    0.2259425   -1.0443841 
H     3.7576733    1.9584810   -0.9269985 
H     2.1409820    1.3982265   -0.4326153 
H    -0.4309556    3.9976388    1.6515349 
H    -0.6569402    2.9901707   -3.2256152 
H    -0.6936924    5.8334582    0.0207338 
H    -0.8480036    5.3300793   -2.4293209 
