101
Energy =
C     0.2559627   -2.9038349   -0.7839712 
C     0.4754264   -3.0220619    0.6236820 
C    -0.5574753   -2.7160028    1.5391016 
H     1.4933609   -3.1928335    0.9955061 
Pd   -0.0766319   -0.9344192    0.1828508 
P    -0.4287049    0.9503958    1.4912791 
P    -0.0807280    0.4678338   -1.6618859 
H    -0.7610353   -3.1125084   -1.1447884 
H    -1.5869414   -2.7338562    1.1483722 
C     3.3309643   -3.2746096   -3.7826927 
C     1.9887089   -3.5300233   -4.0999069 
C     0.9985675   -3.4187163   -3.1144629 
C     1.3262353   -3.0377722   -1.7933274 
C     2.6828771   -2.7681974   -1.4927845 
C     3.6728030   -2.8981434   -2.4726233 
H     4.1068232   -3.3672689   -4.5492514 
H     1.7119187   -3.8299750   -5.1159852 
H    -0.0438347   -3.6436158   -3.3663909 
H     2.9642218   -2.4346048   -0.4878542 
H     4.7174655   -2.6930776   -2.2170036 
C    -0.3884770   -2.6907814    5.8382136 
C    -1.6013053   -2.4837164    5.1638696 
C    -1.6387753   -2.5165559    3.7646378 
C    -0.4639702   -2.7401658    3.0072521 
C     0.7442422   -2.9773752    3.7034189 
C     0.7800027   -2.9499372    5.1013399 
H    -0.3549832   -2.6687007    6.9321209 
H    -2.5222003   -2.3066974    5.7290608 
H    -2.5929289   -2.3767129    3.2436079 
H     1.6641291   -3.1890086    3.1506095 
H     1.7247347   -3.1366502    5.6222647 
C     0.8234959    1.4667684    2.8070474 
C    -1.8806921    0.8968024    2.7197207 
C    -1.2947983    0.1557680   -3.0979739 
C     1.4304908    0.5040132   -2.7849326 
C     0.2159346    0.8757646    4.0923436 
C    -1.2664412    1.2704706    4.0916380 
C    -0.4106611    0.1118351   -4.3750285 
C     0.8767920    0.9179810   -4.1612111 
C    -0.6008956    2.3873741    0.3468562 
C    -0.5099411    2.1653895   -1.0521672 
C     2.3183375    1.2016176    2.5323058 
C    -3.1782075    1.6486977    2.3442578 
C    -2.2113544   -1.0830409   -2.9443800 
C     2.7451547    1.1600263   -2.2995950 
C     2.6766286   -0.2857825    2.4105369 
C     2.7808661    1.9877775    1.2992776 
C    -4.2297333    1.4897700    3.4610616 
C    -3.7472945    1.1721947    1.0007047 
C    -3.0893878   -1.2710431   -4.1976536 
C    -3.0871108   -1.0172936   -1.6873001 
C     2.6905834    2.6898884   -2.1533576 
C     3.9042002    0.7556104   -3.2340007 
C    -0.8577074    3.6865672    0.8299037 
C    -0.7367419    3.2438906   -1.9326274 
C    -1.0581599    4.7516419   -0.0568764 
C    -1.0111477    4.5257211   -1.4407385 
H     0.6929265    2.5665423    2.8560529 
H    -2.1117290   -0.1844390    2.7380145 
H    -1.9346369    1.0588646   -3.1143030 
H     1.6269074   -0.5875557   -2.8350287 
H     0.3151741   -0.2249720    4.1039602 
H     0.7459022    1.2618865    4.9810416 
H    -1.3614542    2.3616151    4.2535267 
H    -1.8172473    0.7672491    4.9039675 
H    -0.1352585   -0.9406357   -4.5742095 
H    -0.9796107    0.4725315   -5.2483129 
H     0.6813155    2.0049723   -4.1980629 
H     1.6122300    0.7012401   -4.9552688 
H     2.8511038    1.6035702    3.4177155 
H    -2.9407283    2.7266154    2.2573894 
H    -1.5469841   -1.9645404   -2.8616263 
H     2.9599411    0.7206719   -1.3068425 
H     2.4116842   -0.8459680    3.3208890 
H     3.7589349   -0.4104186    2.2342120 
H     2.1371746   -0.7423647    1.5550673 
H     3.8642036    1.8688702    1.1275534 
H     2.5614551    3.0657687    1.3912343 
H     2.2562564    1.6161346    0.4021536 
H    -3.8908403    1.9206412    4.4177857 
H    -5.1665500    1.9998262    3.1779467 
H    -4.4642855    0.4221242    3.6291874 
H    -3.9852251    0.0935004    1.0371376 
H    -4.6760132    1.7143155    0.7533502 
H    -3.0351354    1.3367676    0.1747604 
H    -3.7280814   -0.3841697   -4.3646054 
H    -3.7529946   -2.1438801   -4.0712011 
H    -2.4897806   -1.4371488   -5.1079399 
H    -2.4686301   -0.9139959   -0.7736592 
H    -3.6946350   -1.9330478   -1.5820366 
H    -3.7766384   -0.1555159   -1.7283802 
H     2.4676665    3.1761941   -3.1198534 
H     3.6691123    3.0687125   -1.8115433 
H     1.9332952    3.0191135   -1.4253337 
H     3.8027949    1.2289352   -4.2268246 
H     4.8686462    1.0837210   -2.8091569 
H     3.9439304   -0.3373762   -3.3767966 
H    -0.9093772    3.8700678    1.9084918 
H    -0.6861590    3.0909689   -3.0145785 
H    -1.2610622    5.7546769    0.3315670 
H    -1.1802593    5.3511142   -2.1395112 
