101
Energy =
C     0.3231354   -2.9155237   -0.7507569 
C     0.7317860   -2.9180308    0.6149391 
C    -0.1887891   -2.6570060    1.6542848 
H     1.8015361   -2.9638815    0.8523139 
Pd   -0.0747096   -0.9113393    0.1718821 
P    -0.4334186    0.9882742    1.4703528 
P    -0.2321520    0.4813512   -1.6855009 
H    -0.7101915   -3.2222347   -0.9610228 
H    -1.2584713   -2.7764391    1.4224790 
C     2.9706544   -3.2131238   -4.1358882 
C     1.6056593   -3.5131893   -4.2634993 
C     0.7596854   -3.4313093   -3.1501256 
C     1.2561245   -3.0386211   -1.8861470 
C     2.6352205   -2.7412269   -1.7732304 
C     3.4818953   -2.8340941   -2.8834700 
H     3.6336669   -3.2783794   -5.0044177 
H     1.1993255   -3.8198905   -5.2329017 
H    -0.3026211   -3.6795657   -3.2529225 
H     3.0479702   -2.4142281   -0.8131679 
H     4.5460080   -2.6007189   -2.7738014 
C     0.6840220   -2.4346362    5.8624634 
C    -0.6139282   -2.1954308    5.3844017 
C    -0.8861944   -2.2987787    4.0151089 
C     0.1356157   -2.6181910    3.0903375 
C     1.4307386   -2.8873595    3.5918375 
C     1.6996471   -2.7959964    4.9614343 
H     0.8995932   -2.3592690    6.9329854 
H    -1.4182447   -1.9402269    6.0821318 
H    -1.9059974   -2.1346280    3.6492023 
H     2.2382965   -3.1678430    2.9091151 
H     2.7083212   -3.0080681    5.3303983 
C     0.6471890    1.5641747    2.9265639 
C    -2.0125446    1.0091218    2.4913011 
C    -1.5891358    0.3879720   -3.0042832 
C     1.1821952    0.3688672   -2.9358000 
C    -0.3525716    1.9096285    4.0732238 
C    -1.7759274    2.1194970    3.5283676 
C    -0.8718600   -0.2401523   -4.2160868 
C     0.5048835    0.4301182   -4.3249798 
C    -0.4040308    2.4501751    0.3304928 
C    -0.3436071    2.2163867   -1.0658067 
C     1.7534846    0.5771129    3.3701190 
C    -3.3907935    0.9592222    1.7942080 
C    -2.9628388   -0.1905097   -2.5899344 
C     2.3814553    1.3166350   -2.7091049 
C     2.7117288    0.1976138    2.2325858 
C     2.5446891    1.1540087    4.5602460 
C    -3.6252978   -0.4148122    1.1436653 
C    -3.6510319    2.1085656    0.8067626 
C    -2.9396218   -1.6975565   -2.3015710 
C    -4.0294208    0.1541532   -3.6478176 
C     3.4681225    1.0696831   -3.7739883 
C     2.9600345    1.1620461   -1.2941475 
C    -0.4292986    3.7806612    0.7995402 
C    -0.3487866    3.3091963   -1.9567808 
C    -0.4290866    4.8580907   -0.0949076 
C    -0.3966250    4.6235127   -1.4769545 
H     1.1360587    2.4829126    2.5520312 
H    -1.8840300    0.0476994    3.0300723 
H    -1.7528341    1.4578937   -3.2372809 
H     1.5394291   -0.6669800   -2.7823893 
H    -0.3741598    1.0533361    4.7725146 
H     0.0018318    2.7849896    4.6428601 
H    -1.8995129    3.1169199    3.0708670 
H    -2.5242513    2.0514214    4.3387577 
H    -0.7409730   -1.3264451   -4.0665301 
H    -1.4670896   -0.1029408   -5.1353304 
H     0.3891899    1.4839507   -4.6449996 
H     1.1357397   -0.0711536   -5.0782458 
H     1.2465097   -0.3398470    3.7173431 
H    -4.1252217    1.0620895    2.6183568 
H    -3.2519189    0.3277163   -1.6566312 
H     2.0252897    2.3591368   -2.8228648 
H     2.1702166   -0.2660986    1.3854002 
H     3.4648217   -0.5262397    2.5888603 
H     3.2488178    1.0833198    1.8469152 
H     3.3212843    0.4379029    4.8799918 
H     1.9005380    1.3539615    5.4326346 
H     3.0483950    2.0979606    4.2801845 
H    -3.6000182   -1.2237281    1.8953617 
H    -4.6034252   -0.4557882    0.6347976 
H    -2.8421696   -0.6332429    0.3930870 
H    -3.0219651    2.0168040   -0.0951814 
H    -4.7057941    2.0984253    0.4826175 
H    -3.4460921    3.0954436    1.2556715 
H    -2.7114115   -2.2819065   -3.2105297 
H    -3.9202751   -2.0340902   -1.9247565 
H    -2.1829370   -1.9403842   -1.5362976 
H    -4.0731744    1.2414400   -3.8370202 
H    -5.0277332   -0.1718345   -3.3083315 
H    -3.8233143   -0.3522728   -4.6075978 
H     3.8155927    0.0211682   -3.7394539 
H     4.3374578    1.7250872   -3.5928882 
H     3.1015969    1.2749160   -4.7938153 
H     3.2914517    0.1232244   -1.1174949 
H     3.8283779    1.8272118   -1.1484574 
H     2.2141573    1.4133785   -0.5205029 
H    -0.4484518    3.9891145    1.8725631 
H    -0.3064091    3.1368698   -3.0373548 
H    -0.4534511    5.8826859    0.2896582 
H    -0.3956306    5.4621646   -2.1803200 
