111
Energy =
C     2.0945790    1.8689359   -1.2897467 
C     1.7945279    0.8576550   -2.2687104 
C     0.4751370    0.8222518   -2.7714713 
H     2.5243422    0.0866659   -2.5307447 
Pd    0.6349356    0.5515177   -0.4397742 
P    -1.4157932    2.0157263    0.2152079 
P     1.6041137   -1.0228701    1.1374861 
H     1.4502886    2.7581982   -1.3155112 
H    -0.1037609    1.7474312   -2.7460681 
C     5.8736702    2.6976046    0.5894037 
C     4.6971754    3.3257994    1.0302284 
C     3.4786998    3.0433672    0.4060987 
C     3.4059345    2.1200067   -0.6647640 
C     4.6010976    1.5130922   -1.1114302 
C     5.8214662    1.7978221   -0.4869343 
H     6.8299044    2.9180724    1.0746066 
H     4.7326315    4.0380983    1.8608068 
H     2.5615879    3.5294402    0.7552431 
H     4.5842250    0.8337827   -1.9682797 
H     6.7391634    1.3237732   -0.8498341 
C    -1.3575979   -2.2629832   -5.1251824 
C    -0.0165309   -2.4023752   -4.7285716 
C     0.5935235   -1.4177718   -3.9458332 
C    -0.1232969   -0.2604156   -3.5531384 
C    -1.4780702   -0.1419301   -3.9517126 
C    -2.0882685   -1.1321798   -4.7269590 
H    -1.8302029   -3.0354325   -5.7404518 
H     0.5565182   -3.2829578   -5.0365400 
H     1.6416293   -1.5391111   -3.6563577 
H    -2.0508470    0.7382998   -3.6416514 
H    -3.1358334   -1.0204331   -5.0243841 
O    -1.0854602   -0.9054488   -0.2104105 
C    -2.9467079   -2.9351504   -0.6365460 
C    -2.1843221    1.9572669    1.9992334 
C    -1.6188247    3.8049066   -0.4903196 
C     2.6732526   -2.4056364    0.2856771 
C     2.4474645   -0.3935730    2.7486159 
C    -3.3280620   -1.4701813   -0.8764350 
C    -2.0028025   -2.9748884    0.5765021 
C    -2.6296991    0.9025926   -0.6457062 
C     0.1089409   -2.0675542    1.5362959 
C    -2.3713306   -0.4845383   -0.5958617 
C    -0.9959647   -1.9985844    0.6600121 
C    -2.1407737   -3.4449139   -1.8688763 
C    -4.1861466   -3.8253407   -0.4363139 
C    -3.7059258    2.1984174    2.0780245 
C    -1.4301774    2.9716197    2.8856715 
C    -1.9216430    0.5275086    2.5134649 
C    -2.8913392    4.5748389   -0.0753099 
C    -1.5465607    3.7521542   -2.0341785 
C    -0.3910045    4.6041495    0.0152267 
C     1.7366236   -3.0973958   -0.7334196 
C     3.2429495   -3.4578523    1.2548963 
C     3.8211962   -1.7470594   -0.5036084 
C     2.3911879   -1.3295706    3.9715739 
C     1.7381591    0.9290857    3.1108487 
C     3.9188567   -0.0749414    2.4014835 
C    -4.5684034   -1.0354532   -1.3744241 
C    -1.9835296   -3.9947249    1.5418867 
C    -3.8824889    1.2872347   -1.1665379 
C     0.0867083   -3.1228165    2.4748106 
C    -4.8264936    0.3292954   -1.5590364 
C    -0.9654742   -4.0466039    2.5035816 
H    -1.2669515   -2.8034792   -2.0669152 
H    -2.7800174   -3.4334027   -2.7670674 
H    -1.7890430   -4.4759020   -1.6921269 
H    -4.8236963   -3.8093416   -1.3351227 
H    -4.7882542   -3.4989769    0.4284534 
H    -3.8864868   -4.8749727   -0.2836268 
H    -4.0015682    3.2208153    1.8068749 
H    -4.2639095    1.4900407    1.4433712 
H    -4.0284070    2.0292241    3.1225752 
H    -1.7097708    4.0121719    2.6521287 
H    -1.6918109    2.7930108    3.9447633 
H    -0.3361908    2.8728177    2.7866633 
H    -2.5632016   -0.2124733    2.0050675 
H    -0.8733865    0.2249229    2.3746181 
H    -2.1565423    0.4786692    3.5924214 
H    -3.8233395    4.0757854   -0.3834555 
H    -2.9343289    4.7472140    1.0108636 
H    -2.8717629    5.5674410   -0.5623067 
H    -1.7303732    4.7655759   -2.4345203 
H    -0.5456061    3.4525602   -2.3844397 
H    -2.2916142    3.0739453   -2.4810240 
H    -0.3953414    5.6075051   -0.4485096 
H     0.5558240    4.1112505   -0.2585801 
H    -0.3977254    4.7410482    1.1073502 
H     0.9979631   -3.7538977   -0.2460911 
H     1.1922747   -2.3584536   -1.3497073 
H     2.3462927   -3.7202465   -1.4131281 
H     2.4519792   -3.9737140    1.8220795 
H     3.9692599   -3.0266424    1.9628104 
H     3.7761391   -4.2275747    0.6661008 
H     3.4220748   -1.0232830   -1.2276745 
H     4.5486660   -1.2252613    0.1333664 
H     4.3642746   -2.5289983   -1.0659101 
H     1.3577771   -1.4773518    4.3250306 
H     2.8519354   -2.3118375    3.7812068 
H     2.9551305   -0.8565114    4.7968799 
H     0.7041007    0.7540409    3.4452653 
H     1.7163343    1.6221777    2.2532944 
H     2.2816092    1.4141493    3.9425520 
H     4.5239180   -0.9863421    2.2712319 
H     4.0049202    0.5440600    1.4939219 
H     4.3604768    0.4990666    3.2360635 
H    -5.3400257   -1.7674980   -1.6262157 
H    -2.7564288   -4.7674477    1.5355493 
H    -4.1400251    2.3463341   -1.2349019 
H     0.9031846   -3.2365180    3.1874139 
H    -5.7888896    0.6514160   -1.9685633 
H    -0.9665916   -4.8410395    3.2561177 
