111
Energy =
C     1.2475385    1.4820931   -2.5972496 
C     2.2937887    0.6479447   -2.0414680 
C     2.0682310   -0.7265652   -1.8841224 
H     3.2606063    1.0890509   -1.7662886 
Pd    0.5857501    0.8334874   -0.6165134 
P     1.1560450    0.1655710    1.7425976 
P    -1.8372159    0.9896073   -0.9987727 
H     0.6221492    1.0093829   -3.3630198 
H     1.0945921   -1.1110075   -2.2148270 
C     1.7356592    5.7344555   -3.1078413 
C     2.2804754    5.0954107   -1.9822615 
C     2.1377672    3.7138541   -1.8216768 
C     1.4355810    2.9358149   -2.7730623 
C     0.9133393    3.5937975   -3.9122661 
C     1.0607682    4.9754885   -4.0770695 
H     1.8462573    6.8162595   -3.2344208 
H     2.8194937    5.6773412   -1.2274680 
H     2.5604893    3.2291469   -0.9367603 
H     0.4047457    3.0109497   -4.6870703 
H     0.6532479    5.4623404   -4.9690764 
C     4.7736380   -3.7929041   -0.6274329 
C     3.3858771   -4.0071106   -0.5974741 
C     2.5173779   -3.0041879   -1.0346856 
C     3.0170967   -1.7532893   -1.4742702 
C     4.4210836   -1.5624133   -1.5238932 
C     5.2878445   -2.5750400   -1.1070152 
H     5.4573932   -4.5805815   -0.2943413 
H     2.9816434   -4.9579901   -0.2367955 
H     1.4365830   -3.1719667   -1.0186312 
H     4.8307237   -0.6225812   -1.9073834 
H     6.3703281   -2.4207112   -1.1589248 
O    -0.6597486   -1.5270115    0.1582625 
C    -1.7741882   -4.0001416    0.7133062 
C     2.9461797    0.7527852    2.1591459 
C     0.0351105    0.5422398    3.2815341 
C    -2.6092478    2.6981829   -0.5586368 
C    -2.3987738    0.4648743   -2.7911568 
C    -0.4560970   -3.5789159    1.3822892 
C    -2.6608471   -2.7406198    0.6426951 
C     1.0970189   -1.6837501    1.7848119 
C    -2.7351866   -0.3575834   -0.0814362 
C     0.0108042   -2.2830882    1.1101542 
C    -2.0416754   -1.5473215    0.2266036 
C    -2.4592853   -5.1501341    1.4712786 
C    -1.4700954   -4.4564071   -0.7458771 
C     3.0096282    2.2480774    1.7656251 
C     3.8986686   -0.0196372    1.2298473 
C     3.4277383    0.6082526    3.6168627 
C    -1.3935533    0.1232699    2.8947948 
C     0.0834214    2.0627862    3.5454707 
C     0.3996210   -0.2374471    4.5627254 
C    -4.0020046    3.0129097   -1.1440404 
C    -1.5918592    3.7491568   -1.0671503 
C    -2.6764463    2.8035109    0.9776458 
C    -2.1063577    1.5999703   -3.7915072 
C    -3.8915801    0.0771960   -2.8936996 
C    -1.5787778   -0.7906873   -3.1607786 
C     0.3153500   -4.3715820    2.2486671 
C    -4.0408845   -2.6909095    0.8937558 
C     1.8562667   -2.5233044    2.6253906 
C    -4.1199799   -0.3582246    0.1904520 
C     1.4905285   -3.8616614    2.8225037 
C    -4.7553098   -1.4973657    0.7012739 
H    -2.6815238   -4.8727109    2.5155716 
H    -1.8193540   -6.0477801    1.4756102 
H    -3.4011076   -5.4340908    0.9732787 
H    -0.8021670   -5.3349400   -0.7361898 
H    -0.9773882   -3.6520872   -1.3177956 
H    -2.4056338   -4.7261023   -1.2649763 
H     2.6347187    2.3964106    0.7383046 
H     2.4200598    2.8915524    2.4359475 
H     4.0597558    2.5913202    1.8044120 
H     3.8746288   -1.1096283    1.3870431 
H     3.6438576    0.1772237    0.1810270 
H     4.9348610    0.3279495    1.3957862 
H     2.8534917    1.2371392    4.3141452 
H     3.4028297   -0.4306279    3.9813090 
H     4.4790644    0.9479127    3.6632990 
H    -1.7064004    0.5578978    1.9383932 
H    -1.4893862   -0.9736036    2.8222389 
H    -2.0983132    0.4657077    3.6743590 
H     1.0339222    2.3703937    4.0109894 
H    -0.0528807    2.6480987    2.6197030 
H    -0.7286958    2.3379925    4.2427118 
H     1.3809816    0.0262357    4.9781454 
H     0.3663267   -1.3269196    4.3983194 
H    -0.3578971    0.0023874    5.3322149 
H    -4.0134752    3.0075804   -2.2443180 
H    -4.7843301    2.3266343   -0.7822621 
H    -4.2890006    4.0299425   -0.8194607 
H    -1.4729164    3.7370061   -2.1619057 
H    -0.5946719    3.5899891   -0.6208730 
H    -1.9429483    4.7566879   -0.7783976 
H    -3.3890217    2.0886559    1.4212000 
H    -1.6860436    2.6371008    1.4278741 
H    -3.0028063    3.8235426    1.2507466 
H    -2.8337642    2.4225065   -3.7071620 
H    -1.1044730    2.0256970   -3.6552257 
H    -2.1737885    1.2039843   -4.8213755 
H    -4.5710253    0.8687684   -2.5465568 
H    -4.1181734   -0.8478638   -2.3412414 
H    -4.1189437   -0.1082380   -3.9600229 
H    -0.5029610   -0.5778387   -3.2478288 
H    -1.7153856   -1.5995942   -2.4228287 
H    -1.9240057   -1.1698069   -4.1398564 
H     0.0025947   -5.3931588    2.4818145 
H    -4.5705074   -3.5831443    1.2383183 
H     2.7194938   -2.1231287    3.1622305 
H    -4.7145429    0.5357950   -0.0087453 
H     2.0973103   -4.4981062    3.4740393 
H    -5.8277001   -1.4658090    0.9166610 
