111
Energy =
C     2.6269471    2.9022412   -0.3341956 
C     2.3123457    1.7015630   -0.8978253 
C     0.9962458    1.3626894   -1.4675660 
H     3.0921708    0.9415603   -1.0087158 
Pd   -0.1740592    0.0631367   -0.2844617 
P    -2.1860477    1.2673344   -0.5948537 
P     1.3946150   -1.2983569    0.9557822 
H     1.8303672    3.6504480   -0.2300719 
H     0.3904966    2.2780297   -1.5241881 
C     6.4106687    4.1144492    1.3019540 
C     5.2396624    4.8305145    1.5937700 
C     4.0185797    4.4346202    1.0361046 
C     3.9350257    3.3063073    0.1845563 
C     5.1317484    2.6072969   -0.1144392 
C     6.3509725    3.0050777    0.4406472 
H     7.3682930    4.4255858    1.7319472 
H     5.2797626    5.7024906    2.2549408 
H     3.1063171    4.9967597    1.2678323 
H     5.1077763    1.7578565   -0.8056511 
H     7.2654740    2.4561102    0.1922904 
C     1.3601470   -0.2374992   -5.5051225 
C     1.6215890    1.1127564   -5.2235010 
C     1.4967518    1.5983973   -3.9153890 
C     1.1021161    0.7483983   -2.8576979 
C     0.8460451   -0.6028532   -3.1589743 
C     0.9725171   -1.0948605   -4.4669771 
H     1.4583157   -0.6166634   -6.5275221 
H     1.9273580    1.7919161   -6.0264427 
H     1.7135190    2.6516766   -3.7028178 
H     0.5216628   -1.2713549   -2.3527103 
H     0.7622492   -2.1500829   -4.6712485 
O    -1.6382650   -1.4987382    0.5324285 
C    -3.4297497   -3.6002214    1.1503379 
C    -2.2729340    2.8404911    0.5129145 
C    -2.8599672    1.5255161   -2.3750620 
C     2.5978025   -2.5117540    0.0597555 
C     2.2328770   -0.3443630    2.4136524 
C    -3.9276333   -2.1654743    0.9912727 
C    -2.0480501   -3.5253159    1.7994784 
C    -3.4029678    0.1046009    0.1678506 
C     0.1960107   -2.4745308    1.7610827 
C    -3.0092936   -1.1861409    0.5685078 
C    -1.1628115   -2.5105996    1.3857833 
C    -3.2510265   -4.2019154   -0.2797083 
C    -4.4101178   -4.4807929    1.9442721 
C    -3.4643253    3.7775315    0.2346750 
C    -0.9593522    3.6274481    0.3239452 
C    -2.3278664    2.3292414    1.9712219 
C    -4.3612662    1.8653695   -2.4845939 
C    -2.6199958    0.1701143   -3.0783411 
C    -2.0314595    2.6359805   -3.0567971 
C     1.6902942   -3.4974354   -0.7145048 
C     3.5483604   -3.3049460    0.9803602 
C     3.4445882   -1.7037573   -0.9488355 
C     1.2802780    0.8383038    2.6994230 
C     3.6086558    0.1921138    1.9725620 
C     2.4143337   -1.1501411    3.7154893 
C    -5.2679544   -1.7790732    1.1466588 
C    -1.5715219   -4.4785584    2.7121254 
C    -4.7625130    0.4457927    0.3410178 
C     0.6283263   -3.4749352    2.6611252 
C    -5.6813245   -0.4746273    0.8505853 
C    -0.2446392   -4.4476149    3.1529459 
H    -2.5516849   -3.5964941   -0.8815869 
H    -4.2230475   -4.2315865   -0.8012573 
H    -2.8509792   -5.2279480   -0.2096573 
H    -5.3845103   -4.5311658    1.4318725 
H    -4.5673536   -4.0990048    2.9672387 
H    -4.0373193   -5.5158991    2.0066946 
H    -3.4279646    4.2085699   -0.7787791 
H    -4.4390009    3.2851539    0.3768991 
H    -3.4186183    4.6175571    0.9521478 
H    -0.8181135    3.9745805   -0.7137056 
H    -0.9791186    4.5212819    0.9738413 
H    -0.0917139    3.0136513    0.6133136 
H    -3.2996074    1.8715304    2.2161900 
H    -1.5344857    1.5856979    2.1630446 
H    -2.1670640    3.1820623    2.6555458 
H    -4.9976366    1.0346283   -2.1415080 
H    -4.6430950    2.7824249   -1.9459963 
H    -4.5893624    2.0294524   -3.5538829 
H    -1.5515015   -0.0910718   -3.1098728 
H    -3.1724605   -0.6454251   -2.5777066 
H    -2.9849731    0.2363540   -4.1194232 
H    -0.9534962    2.4164151   -3.0461519 
H    -2.2043624    3.6238589   -2.5975068 
H    -2.3378059    2.7054100   -4.1162454 
H     2.3121287   -4.0857119   -1.4132373 
H     1.1759840   -4.1997097   -0.0381767 
H     0.9236722   -2.9698589   -1.3088086 
H     3.0128779   -3.9923212    1.6524299 
H     4.1975740   -2.6486138    1.5814217 
H     4.2064125   -3.9255987    0.3445616 
H     2.8169370   -1.1421907   -1.6571403 
H     4.1332769   -1.0051024   -0.4476724 
H     4.0601526   -2.4092469   -1.5360833 
H     1.1790951    1.4933749    1.8174968 
H     0.2776863    0.4812091    2.9953350 
H     1.6856089    1.4397184    3.5338512 
H     3.5533179    0.7505393    1.0310348 
H     4.3558244   -0.6114179    1.8702431 
H     3.9791493    0.8930313    2.7418662 
H     1.4545431   -1.4802279    4.1437609 
H     3.0741638   -2.0239065    3.5868579 
H     2.8969815   -0.4856024    4.4556831 
H    -6.0030264   -2.5085975    1.4948721 
H    -2.2385649   -5.2671993    3.0678871 
H    -5.1039155    1.4486630    0.0819211 
H     1.6674035   -3.4970927    2.9844179 
H    -6.7264725   -0.1835147    0.9910956 
H     0.1183402   -5.1977698    3.8617932 
