111
Energy =
C     0.7430351    0.0798094   -2.7896224 
C     1.7057261    1.0312957   -2.4226469 
C     2.7792660    0.6404608   -1.5318139 
H     1.6624453    2.0538478   -2.8198885 
Pd    0.9237298    0.6465208   -0.3717711 
P     1.5971334   -0.9777612    1.3508229 
P    -1.3684718    1.5961670    0.0277396 
H     0.8698344   -0.9332014   -2.3858879 
H     3.1331014   -0.3904988   -1.6454065 
C    -2.4568902    0.3901253   -5.6118615 
C    -2.4616104   -0.6173502   -4.6331469 
C    -1.3974819   -0.7187286   -3.7338115 
C    -0.3268002    0.2085297   -3.7703208 
C    -0.3239991    1.2037859   -4.7798667 
C    -1.3781408    1.2887805   -5.6922053 
H    -3.2845134    0.4658615   -6.3247484 
H    -3.2930670   -1.3265845   -4.5747296 
H    -1.3955994   -1.5071582   -2.9756252 
H     0.5176268    1.8994295   -4.8575509 
H    -1.3606487    2.0542974   -6.4744543 
C     5.8309821    3.4015578   -0.2509465 
C     6.1640073    2.0796705   -0.5863441 
C     5.1708710    1.1892343   -1.0095312 
C     3.8196522    1.5988185   -1.1085950 
C     3.5083113    2.9426899   -0.7925027 
C     4.4985528    3.8310749   -0.3623396 
H     6.6072596    4.0963235    0.0855797 
H     7.2040537    1.7432337   -0.5237596 
H     5.4473497    0.1671976   -1.2887329 
H     2.4719473    3.2855006   -0.8653839 
H     4.2315254    4.8631998   -0.1128421 
O    -1.0185220   -1.3275122   -0.0969065 
C    -2.8777459   -3.3798434   -0.0804984 
C     2.7064241   -2.4325129    0.6746083 
C     2.4305272   -0.2066208    2.9074246 
C    -2.1604506    1.7810176    1.7892120 
C    -1.5335984    3.2938744   -0.8754908 
C    -1.9203583   -3.1825300    1.1115170 
C    -3.2791890   -1.9774689   -0.5642185 
C     0.1504143   -2.0251693    1.8727296 
C    -2.5693376    0.3974933   -0.7112569 
C    -0.9203800   -2.2024158    0.9709928 
C    -2.3048365   -0.9700282   -0.4782227 
C    -4.1039289   -4.2297016    0.2942089 
C    -2.0875925   -4.0933111   -1.2192089 
C     2.7183875   -3.6867156    1.5781525 
C     4.1550031   -1.9453223    0.4747858 
C     2.0978953   -2.8577207   -0.6798754 
C     3.2478907   -1.1554129    3.8094335 
C     1.3293733    0.4610483    3.7548183 
C     3.3584120    0.9073431    2.3635575 
C    -3.6750408    2.0775295    1.8015044 
C    -1.3891218    2.8867312    2.5417649 
C    -1.9638071    0.4294383    2.4968826 
C    -0.2876040    4.1182560   -0.4735979 
C    -2.7928287    4.1365039   -0.5883712 
C    -1.4415530    3.0125230   -2.3853712 
C    -1.9163967   -3.9349428    2.2963321 
C    -4.5367171   -1.6145397   -1.0749268 
C     0.1073362   -2.8038344    3.0488633 
C    -3.8358840    0.7116336   -1.2454357 
C    -0.9284552   -3.7202896    3.2707643 
C    -4.7928821   -0.2893180   -1.4598821 
H    -4.7005874   -3.7533269    1.0905545 
H    -3.7906642   -5.2293542    0.6380056 
H    -4.7516883   -4.3847936   -0.5841769 
H    -1.7491516   -5.0885004   -0.8838934 
H    -1.2003072   -3.5074365   -1.5132312 
H    -2.7317227   -4.2164043   -2.1068043 
H     3.0334952   -3.4761514    2.6101814 
H     1.7379978   -4.1871834    1.6052216 
H     3.4454676   -4.4023576    1.1511752 
H     4.6983073   -1.8632031    1.4292332 
H     4.7003481   -2.6735268   -0.1532581 
H     4.2010132   -0.9672129   -0.0196755 
H     1.0386072   -3.1491552   -0.5779833 
H     2.1679350   -2.0640230   -1.4380697 
H     2.6508034   -3.7348723   -1.0624227 
H     2.6330098   -1.9457201    4.2690189 
H     4.0880886   -1.6290022    3.2801139 
H     3.6769347   -0.5586846    4.6352741 
H     0.7607007    1.1912603    3.1595990 
H     0.6233137   -0.2684109    4.1848877 
H     1.8053850    1.0068082    4.5898986 
H     2.7927803    1.6413694    1.7634675 
H     4.1732807    0.5182896    1.7329971 
H     3.8179622    1.4394141    3.2164845 
H    -4.0153541    2.0575835    2.8537452 
H    -3.9370876    3.0621834    1.3930409 
H    -4.2446438    1.3055918    1.2584092 
H    -1.6579042    3.8936829    2.1830979 
H    -0.2959882    2.7666067    2.4454655 
H    -1.6416419    2.8416739    3.6167342 
H    -2.6056273   -0.3545856    2.0599841 
H    -0.9238099    0.0865325    2.4480653 
H    -2.2420940    0.5301594    3.5617134 
H    -0.2988127    4.4236613    0.5837511 
H     0.6344086    3.5381935   -0.6497251 
H    -0.2423631    5.0347569   -1.0901053 
H    -2.8427268    4.4742894    0.4579957 
H    -3.7305899    3.6131369   -0.8319750 
H    -2.7480099    5.0427000   -1.2206424 
H    -0.4856754    2.5281390   -2.6201403 
H    -2.2508148    2.3671392   -2.7622040 
H    -1.4791994    3.9685023   -2.9391560 
H    -2.6815902   -4.6969263    2.4673089 
H    -5.3253761   -2.3654419   -1.1747982 
H     0.8965747   -2.7043501    3.7968407 
H    -4.0947706    1.7504474   -1.4628965 
H    -0.9451915   -4.3010309    4.1980469 
H    -5.7676424   -0.0247791   -1.8812492 
