111
Energy =
C     2.6146172    2.9191463   -0.3399300 
C     2.3120485    1.7064821   -0.8842921 
C     1.0059246    1.3516492   -1.4671038 
H     3.0963263    0.9481098   -0.9704302 
Pd   -0.1709320    0.0582512   -0.2843782 
P    -2.1837821    1.2512388   -0.6264265 
P     1.3901957   -1.2876308    0.9828132 
H     1.8145179    3.6668157   -0.2631050 
H     0.3952147    2.2621714   -1.5440254 
C     6.3720791    4.1870983    1.3150749 
C     5.1969270    4.9130740    1.5621169 
C     3.9847431    4.4971526    0.9996908 
C     3.9142163    3.3395242    0.1871399 
C     5.1153974    2.6303915   -0.0671939 
C     6.3255991    3.0475103    0.4932884 
H     7.3227800    4.5132917    1.7492386 
H     5.2268137    5.8082243    2.1921116 
H     3.0692238    5.0672936    1.1963770 
H     5.1026611    1.7567265   -0.7278261 
H     7.2435638    2.4896614    0.2799629 
C     1.4336586   -0.2970207   -5.4790797 
C     1.6914699    1.0563604   -5.2093528 
C     1.5461068    1.5575931   -3.9092692 
C     1.1343305    0.7203534   -2.8479476 
C     0.8819805   -0.6342083   -3.1372833 
C     1.0288192   -1.1417668   -4.4371933 
H     1.5479412   -0.6883716   -6.4951917 
H     2.0104904    1.7257766   -6.0153073 
H     1.7599460    2.6132446   -3.7057367 
H     0.5451484   -1.2931637   -2.3281464 
H     0.8211340   -2.1992513   -4.6322316 
O    -1.6376862   -1.5036185    0.5282991 
C    -3.4295301   -3.6064402    1.1423276 
C    -2.2889534    2.8382256    0.4600393 
C    -2.8409940    1.4834366   -2.4165706 
C     2.6204234   -2.4937408    0.1138518 
C     2.1946192   -0.3192590    2.4499517 
C    -3.9291546   -2.1735667    0.9719080 
C    -2.0526021   -3.5257684    1.8008683 
C    -3.4033757    0.0922038    0.1375689 
C     0.1888167   -2.4689317    1.7765051 
C    -3.0097228   -1.1945981    0.5507120 
C    -1.1666625   -2.5105211    1.3898619 
C    -3.2396637   -4.2151520   -0.2833230 
C    -4.4139099   -4.4847002    1.9338674 
C    -0.9750386    3.6260116    0.2770306 
C    -2.3610073    2.3462889    1.9242057 
C    -3.4788715    3.7688001    0.1547546 
C    -2.0097541    2.5876120   -3.1051856 
C    -4.3424898    1.8158880   -2.5441877 
C    -2.5893666    0.1199630   -3.0998372 
C     1.7368611   -3.4973169   -0.6649827 
C     3.5694119   -3.2664316    1.0533820 
C     3.4706590   -1.6830301   -0.8896335 
C     2.3700591   -1.1212699    3.7549391 
C     1.2210477    0.8497034    2.7206788 
C     3.5675079    0.2379074    2.0261161 
C    -5.2715991   -1.7893625    1.1138496 
C    -1.5806172   -4.4744769    2.7205521 
C    -4.7651153    0.4311913    0.2970316 
C     0.6166949   -3.4648889    2.6835551 
C    -5.6857038   -0.4878944    0.8058065 
C    -0.2572782   -4.4385206    3.1715555 
H    -2.5373469   -3.6113897   -0.8834014 
H    -4.2079471   -4.2494569   -0.8115001 
H    -2.8380894   -5.2399982   -0.2051951 
H    -5.3846355   -4.5393105    1.4149947 
H    -4.5788496   -4.0980588    2.9537867 
H    -4.0398833   -5.5188588    2.0040513 
H    -0.1092185    3.0181140    0.5838574 
H    -0.8225831    3.9607093   -0.7631393 
H    -1.0046445    4.5277230    0.9155561 
H    -1.5688664    1.6070404    2.1359561 
H    -2.2103395    3.2085558    2.5989192 
H    -3.3348442    1.8899705    2.1632860 
H    -3.4309896    4.1864719   -0.8637952 
H    -4.4542575    3.2762586    0.2914865 
H    -3.4437141    4.6183474    0.8615373 
H    -2.1880779    3.5805806   -2.6591436 
H    -0.9313983    2.3704074   -3.0838545 
H    -2.3082598    2.6437256   -4.1676524 
H    -4.9786845    0.9878824   -2.1941817 
H    -4.6324329    2.7397193   -2.0217727 
H    -4.5619109    1.9631384   -3.6177291 
H    -3.1429008   -0.6913946   -2.5936111 
H    -1.5195295   -0.1370042   -3.1185829 
H    -2.9452818    0.1712504   -4.1448778 
H     1.2218113   -4.2006563    0.0095973 
H     0.9724198   -2.9844147   -1.2746545 
H     2.3762141   -4.0830602   -1.3499059 
H     4.2029881   -2.5963541    1.6558942 
H     4.2428784   -3.8844317    0.4313135 
H     3.0349860   -3.9544454    1.7255887 
H     2.8458601   -1.1370524   -1.6125014 
H     4.1417245   -0.9700877   -0.3845549 
H     4.1050376   -2.3849283   -1.4609393 
H     1.4091613   -1.4631330    4.1713061 
H     3.0423090   -1.9867965    3.6357238 
H     2.8346882   -0.4499820    4.5005564 
H     0.2189004    0.4786374    3.0006779 
H     1.1246110    1.5032863    1.8369548 
H     1.6045255    1.4567127    3.5613346 
H     4.3274570   -0.5542438    1.9295457 
H     3.5139277    0.7986757    1.0858069 
H     3.9193150    0.9413678    2.8018475 
H    -6.0078196   -2.5184727    1.4604967 
H    -2.2483098   -5.2636425    3.0739233 
H    -5.1067833    1.4313064    0.0276725 
H     1.6531368   -3.4825436    3.0155902 
H    -6.7326367   -0.1984188    0.9360140 
H     0.1021179   -5.1852168    3.8858557 
