111
Energy =
C     2.9193099    2.5718673   -0.5152371 
C     2.4805608    1.4738692   -1.1950939 
C     1.0963767    1.2785889   -1.6493792 
H     3.1949950    0.6930367   -1.4805676 
Pd   -0.0885749    0.0847545   -0.3646720 
P    -2.0973667    1.2999191   -0.6353886 
P     1.3757098   -1.1945187    1.0963640 
H     2.1757013    3.3282110   -0.2295011 
H     0.5732990    2.2437243   -1.6716210 
C     6.8794896    3.3637591    0.9443943 
C     5.7751900    4.0718939    1.4429850 
C     4.4945283    3.8165355    0.9406728 
C     4.2835579    2.8372887   -0.0616158 
C     5.4137499    2.1449913   -0.5656834 
C     6.6926494    2.4042895   -0.0658891 
H     7.8836870    3.5664715    1.3306477 
H     5.9144205    4.8286860    2.2220455 
H     3.6343672    4.3714709    1.3329739 
H     5.2892914    1.4143116   -1.3717354 
H     7.5542194    1.8650346   -0.4735462 
C     0.8851573   -0.5268405   -5.6047658 
C     1.0702780    0.8546675   -5.4406050 
C     1.1262434    1.4107828   -4.1559921 
C     0.9984225    0.6013940   -3.0047083 
C     0.8218346   -0.7857884   -3.1882215 
C     0.7612724   -1.3448925   -4.4734278 
H     0.8387395   -0.9615144   -6.6085416 
H     1.1735500    1.5035159   -6.3168075 
H     1.2812990    2.4895256   -4.0383955 
H     0.6983226   -1.4322718   -2.3119127 
H     0.6120190   -2.4238190   -4.5870778 
O    -1.5586110   -1.5228548    0.3869993 
C    -3.4036876   -3.5902793    0.8850157 
C    -2.1363595    2.9955154    0.2810878 
C    -2.9112926    1.3750624   -2.3754432 
C     3.0978901   -1.9280473    0.6267579 
C     1.4282146   -0.2417125    2.7732438 
C    -3.8404044   -2.1257625    0.9350797 
C    -1.9943017   -3.6420638    1.4747199 
C    -3.2592747    0.1873885    0.2816886 
C     0.2655196   -2.6217839    1.5313047 
C    -2.9040506   -1.1501654    0.5455749 
C    -1.0882917   -2.6207333    1.1331422 
C    -3.3224923   -4.0117794   -0.6158261 
C    -4.3850833   -4.5233938    1.6138691 
C    -0.8505422    3.7627273   -0.0991999 
C    -2.0802885    2.6889980    1.7931554 
C    -3.3548321    3.8893245   -0.0299580 
C    -2.1713502    2.4444973   -3.2058084 
C    -4.4278294    1.6552983   -2.3901727 
C    -2.6735492   -0.0287803   -2.9773752 
C     2.9658159   -2.3161561   -0.8624056 
C     3.5899682   -3.1716486    1.3977216 
C     4.1534752   -0.8131848    0.7936719 
C    -0.0281176   -0.2177293    3.2957061 
C     1.8830129    1.2055776    2.4844412 
C     2.3277749   -0.8900216    3.8418182 
C    -5.1400374   -1.6944076    1.2434611 
C    -1.5344378   -4.6751358    2.3063572 
C    -4.5806771    0.5717839    0.5986657 
C     0.6689781   -3.6735716    2.3833562 
C    -5.5000684   -0.3470687    1.1121889 
C    -0.2151840   -4.6849374    2.7693911 
H    -2.6250097   -3.3650992   -1.1751653 
H    -4.3188825   -3.9353837   -1.0838114 
H    -2.9693952   -5.0541127   -0.6954323 
H    -5.3839938   -4.4672167    1.1513070 
H    -4.4762167   -4.2686881    2.6833640 
H    -4.0576869   -5.5722352    1.5276176 
H     0.0448612    3.2034308    0.2158754 
H    -0.7792209    3.9661876   -1.1807464 
H    -0.8472951    4.7361981    0.4238468 
H    -1.2152662    2.0502569    2.0356925 
H    -1.9637816    3.6392977    2.3453787 
H    -2.9930401    2.1909301    2.1577694 
H    -3.3998842    4.1814396   -1.0910125 
H    -4.3135826    3.4250596    0.2488177 
H    -3.2608543    4.8175326    0.5631833 
H    -2.3915891    3.4667810   -2.8557895 
H    -1.0823873    2.2884097   -3.1990022 
H    -2.5038897    2.3747717   -4.2573472 
H    -4.9993640    0.8504045   -1.9009327 
H    -4.6993052    2.6169961   -1.9303594 
H    -4.7528962    1.6926588   -3.4464119 
H    -3.1687498   -0.8127269   -2.3762756 
H    -1.6020322   -0.2671508   -3.0567788 
H    -3.1066774   -0.0608514   -3.9936407 
H     2.1501125   -3.0450494   -1.0195548 
H     2.7758355   -1.4410630   -1.5013451 
H     3.9070604   -2.7869087   -1.2006080 
H     3.6306706   -3.0164715    2.4877486 
H     4.6220777   -3.3806033    1.0606231 
H     2.9883519   -4.0667272    1.1761885 
H     3.8125268    0.1550648    0.4062059 
H     4.4436716   -0.6749054    1.8473156 
H     5.0639874   -1.0968009    0.2357941 
H    -0.7385856    0.1019592    2.5126829 
H    -0.3491212   -1.2038475    3.6688471 
H    -0.0974510    0.5036309    4.1298061 
H     1.2381332    1.6712424    1.7186569 
H     2.9237521    1.2639879    2.1309993 
H     1.8088603    1.8001634    3.4135340 
H     2.0155678   -1.9215389    4.0742255 
H     3.3909039   -0.8933213    3.5550625 
H     2.2408434   -0.3050803    4.7763769 
H    -5.8860594   -2.4195978    1.5775339 
H    -2.2144341   -5.4787317    2.5983441 
H    -4.8948829    1.6038385    0.4346639 
H     1.6849070   -3.6951824    2.7716995 
H    -6.5119478   -0.0209716    1.3702330 
H     0.1291731   -5.4838762    3.4328937 
