111
Energy =
C     0.7296308    0.0041300   -2.7923130 
C     1.7543464    0.8938390   -2.4407600 
C     2.8079430    0.4499242   -1.5509191 
H     1.7736171    1.9120151   -2.8507636 
Pd    0.9677108    0.5834657   -0.3750261 
P     1.5434877   -1.0702496    1.3489312 
P    -1.2596495    1.6765332    0.0352304 
H     0.7900782   -1.0109218   -2.3783243 
H     3.0993314   -0.6017090   -1.6507697 
C    -2.4713457    0.5126280   -5.5845572 
C    -2.5260703   -0.4967448   -4.6094195 
C    -1.4612619   -0.6642134   -3.7209193 
C    -0.3377767    0.1981806   -3.7645191 
C    -0.2856694    1.1948449   -4.7715214 
C    -1.3418462    1.3458299   -5.6727906 
H    -3.3001033    0.6403236   -6.2886625 
H    -3.3973490   -1.1558692   -4.5451594 
H    -1.4986994   -1.4547711   -2.9659258 
H     0.5946311    1.8399592   -4.8559331 
H    -1.2867380    2.1121751   -6.4524780 
C     6.0156529    3.0529520   -0.3201164 
C     4.7145991    3.5616797   -0.4635201 
C     3.6748512    2.7236428   -0.8775490 
C     3.9034777    1.3527669   -1.1458194 
C     5.2252763    0.8631316   -1.0170932 
C     6.2678228    1.7024149   -0.6088397 
H     6.8306280    3.7081245    0.0040255 
H     4.5109233    4.6165693   -0.2523001 
H     2.6642042    3.1302436   -0.9780996 
H     5.4403745   -0.1822876   -1.2611728 
H     7.2836906    1.3033127   -0.5219968 
O    -1.0908054   -1.2618689   -0.0924854 
C    -3.0765009   -3.1907677   -0.0614595 
C     2.5535415   -2.5998958    0.6829789 
C     2.4301506   -0.3400237    2.8950619 
C    -2.0506129    1.9111161    1.7917685 
C    -1.3096107    3.3822595   -0.8659417 
C    -2.1081497   -3.0461275    1.1296129 
C    -3.3880172   -1.7691768   -0.5557903 
C     0.0329201   -2.0172262    1.8821714 
C    -2.5302804    0.5559961   -0.7101945 
C    -1.0474648   -2.1331253    0.9819257 
C    -2.3523182   -0.8247881   -0.4736921 
C    -4.3545939   -3.9573532    0.3193569 
C    -2.3337417   -3.9622968   -1.1941372 
C     2.4859172   -3.8441456    1.5976086 
C     4.0299608   -2.2099144    0.4758841 
C     1.9157271   -2.9954920   -0.6668904 
C     3.1828177   -1.3311667    3.8075600 
C     1.3767082    0.4101717    3.7337233 
C     3.4301404    0.7026194    2.3375561 
C    -1.9361878    0.5543231    2.5074631 
C    -3.5461497    2.2924415    1.7893297 
C    -1.2255798    2.9751939    2.5474855 
C    -2.5171762    4.3019122   -0.5942850 
C    -1.2195795    3.0940304   -2.3746631 
C    -0.0194277    4.1269636   -0.4474303 
C    -2.1521975   -3.7872920    2.3207137 
C    -4.6189780   -1.3301633   -1.0714362 
C    -0.0599763   -2.7813301    3.0649851 
C    -3.7730875    0.9469727   -1.2492573 
C    -1.1525745   -3.6275566    3.2939791 
C    -4.7898813    0.0067655   -1.4635189 
H    -4.9193261   -3.4373810    1.1116782 
H    -4.1060362   -4.9723302    0.6710540 
H    -5.0111376   -4.0773307   -0.5580207 
H    -2.0608457   -4.9748954   -0.8512640 
H    -1.4100506   -3.4375523   -1.4913214 
H    -2.9840424   -4.0499216   -2.0814456 
H     2.8171501   -3.6454652    2.6269584 
H     1.4748903   -4.2787939    1.6314786 
H     3.1632786   -4.6097450    1.1754987 
H     4.1368617   -1.2434132   -0.0318948 
H     4.5791735   -2.1499865    1.4286404 
H     4.5262893   -2.9796654   -0.1431575 
H     2.0343076   -2.2134790   -1.4313921 
H     2.4106733   -3.9088900   -1.0438438 
H     0.8403378   -3.2180373   -0.5605613 
H     3.6520511   -0.7555956    4.6265433 
H     2.5165338   -2.0730976    4.2762743 
H     3.9885952   -1.8662691    3.2831678 
H     0.8533241    1.1644000    3.1266114 
H     0.6274737   -0.2660776    4.1776237 
H     1.8888168    0.9388524    4.5583278 
H     4.2166897    0.2519196    1.7121515 
H     3.9248310    1.2127510    3.1841740 
H     2.9146400    1.4656495    1.7282836 
H    -2.6136607   -0.1962250    2.0655450 
H    -0.9157389    0.1553606    2.4746826 
H    -2.2232500    0.6751974    3.5679331 
H    -3.7507113    3.2811136    1.3582656 
H    -3.8919058    2.3141022    2.8397778 
H    -4.1554655    1.5422880    1.2591642 
H    -0.1399487    2.7955614    2.4609235 
H    -1.4361164    3.9943128    2.1846135 
H    -1.4888998    2.9466063    3.6203955 
H    -3.4820504    3.8400888   -0.8560757 
H    -2.5631136    4.6378964    0.4528313 
H    -2.4046463    5.2059877   -1.2210848 
H    -2.0664407    2.5032602   -2.7583915 
H    -0.2954593    2.5468520   -2.5993122 
H    -1.1886886    4.0496658   -2.9295541 
H    -0.0362806    4.4529634    0.6036212 
H     0.8651733    3.4819486   -0.5872032 
H     0.1039204    5.0261566   -1.0784348 
H    -2.9646026   -4.4971963    2.4979274 
H    -5.4533381   -2.0301912   -1.1695792 
H     0.7338965   -2.7259466    3.8126721 
H    -3.9663167    1.9992654   -1.4701760 
H    -1.2068119   -4.1976891    4.2264020 
H    -5.7447825    0.3300001   -1.8894088 
