111
Energy =
C     2.1217862    1.8635012   -1.2454412 
C     1.8267487    0.8625012   -2.2369879 
C     0.5151815    0.8427817   -2.7595671 
H     2.5533788    0.0869965   -2.4945065 
Pd    0.6425976    0.5533124   -0.4236645 
P    -1.4005959    2.0277791    0.2188190 
P     1.5824857   -1.0492199    1.1460046 
H     1.4869062    2.7594187   -1.2743974 
H    -0.0574171    1.7718443   -2.7315256 
C     5.8837223    2.6437928    0.6884766 
C     4.7063413    3.2750902    1.1225325 
C     3.4935230    3.0084289    0.4807074 
C     3.4272660    2.0979339   -0.6015491 
C     4.6234383    1.4876801   -1.0408321 
C     5.8382195    1.7567688   -0.3986749 
H     6.8356153    2.8521874    1.1873745 
H     4.7367364    3.9774156    1.9617710 
H     2.5755773    3.4966767    0.8245879 
H     4.6120832    0.8183570   -1.9056182 
H     6.7569527    1.2806179   -0.7561793 
C    -1.3129579   -2.2057117   -5.1639224 
C     0.0232628   -2.3577215   -4.7556897 
C     0.6316843   -1.3852682   -3.9566716 
C    -0.0818561   -0.2276490   -3.5587140 
C    -1.4318020   -0.0962452   -3.9696177 
C    -2.0404311   -1.0744277   -4.7612179 
H    -1.7843302   -2.9688128   -5.7916847 
H     0.5938253   -3.2386224   -5.0673613 
H     1.6761941   -1.5160506   -3.6584196 
H    -2.0021170    0.7843097   -3.6558935 
H    -3.0842781   -0.9529701   -5.0677771 
O    -1.0917377   -0.8922138   -0.2299517 
C    -2.9653205   -2.9011565   -0.6993512 
C    -2.1892597    1.9594568    1.9935429 
C    -1.5789686    3.8250855   -0.4722585 
C     2.6486583   -2.4320702    0.2907220 
C     2.4124364   -0.4462363    2.7740493 
C    -3.3310207   -1.4305020   -0.9284372 
C    -2.0360454   -2.9618593    0.5239939 
C    -2.6143838    0.9335924   -0.6663809 
C     0.0732254   -2.0842113    1.5163445 
C    -2.3690982   -0.4562738   -0.6265893 
C    -1.0215632   -1.9955875    0.6291520 
C    -2.1494681   -3.4053907   -1.9274635 
C    -4.2147559   -3.7823799   -0.5229891 
C    -1.9468909    0.5219834    2.4961175 
C    -3.7090835    2.2156729    2.0580191 
C    -1.4344071    2.9570644    2.8981511 
C    -2.8492358    4.6028907   -0.0651226 
C    -1.4887769    3.7852795   -2.0155635 
C    -0.3501177    4.6084181    0.0551128 
C     1.7175251   -3.1017750   -0.7479396 
C     3.1963967   -3.5016464    1.2535596 
C     3.8128773   -1.7754929   -0.4762226 
C     2.3374215   -1.3968304    3.9847455 
C     1.7081929    0.8765584    3.1454216 
C     3.8895446   -0.1337507    2.4460978 
C    -4.5612152   -0.9798241   -1.4373573 
C    -2.0367162   -3.9920024    1.4785753 
C    -3.8574053    1.3345033   -1.1982087 
C     0.0309339   -3.1491285    2.4431981 
C    -4.8051319    0.3889196   -1.6112633 
C    -1.0299686   -4.0632869    2.4508182 
H    -1.2676994   -2.7698585   -2.1086836 
H    -2.7779973   -3.3789234   -2.8328720 
H    -1.8090052   -4.4412725   -1.7573642 
H    -4.8416226   -3.7514029   -1.4289228 
H    -4.8241282   -3.4597838    0.3381018 
H    -3.9260688   -4.8361584   -0.3779024 
H    -2.5906106   -0.2061652    1.9735385 
H    -0.9003105    0.2100030    2.3653877 
H    -2.1937410    0.4648900    3.5719914 
H    -4.2671600    1.5206962    1.4087726 
H    -4.0451956    2.0376724    3.0967960 
H    -3.9909166    3.2442895    1.7957613 
H    -1.7009031    4.0027163    2.6722073 
H    -1.7090088    2.7705274    3.9525875 
H    -0.3404802    2.8479544    2.8096258 
H    -2.8153174    5.5992891   -0.5435190 
H    -3.7821346    4.1148855   -0.3878812 
H    -2.9029138    4.7665915    1.0219305 
H    -0.4867991    3.4783226   -2.3563778 
H    -2.2353181    3.1188061   -2.4773072 
H    -1.6572910    4.8040632   -2.4089528 
H    -0.3690068    4.7357828    1.1482636 
H    -0.3396624    5.6158272   -0.3996825 
H     0.5954917    4.1093432   -0.2115373 
H     0.9666658   -3.7567854   -0.2775578 
H     1.1878560   -2.3498708   -1.3613417 
H     2.3289722   -3.7222264   -1.4282565 
H     3.9185496   -3.0861518    1.9750008 
H     3.7289054   -4.2694510    0.6616362 
H     2.3938459   -4.0164817    1.8052334 
H     3.4306571   -1.0368556   -1.1942724 
H     4.5389115   -1.2712294    0.1764009 
H     4.3535402   -2.5555998   -1.0433994 
H     1.2996931   -1.5404694    4.3270385 
H     2.7920356   -2.3803720    3.7865300 
H     2.8975113   -0.9384868    4.8209279 
H     0.6692770    0.7045389    3.4662318 
H     1.7006389    1.5806103    2.2965779 
H     2.2457529    1.3472211    3.9891393 
H     4.4897302   -1.0479710    2.3127402 
H     3.9896157    0.4940064    1.5460261 
H     4.3261192    0.4284148    3.2913300 
H    -5.3358980   -1.7025015   -1.7062366 
H    -2.8163264   -4.7576222    1.4553385 
H    -4.1047163    2.3964862   -1.2593720 
H     0.8384426   -3.2780556    3.1634202 
H    -5.7596822    0.7236829   -2.0289405 
H    -1.0466801   -4.8654274    3.1949614 
