111
Energy =
C     2.6931563    0.3561770   -1.1776736 
C     1.9925734    1.1936152   -2.1310271 
C     1.8344532    2.5562378   -1.8573563 
H     1.6446910    0.7699894   -3.0813267 
Pd    0.7562128    0.7824981   -0.3109883 
P    -1.7321305    0.9145487   -0.6758612 
P     1.3417403   -0.0622290    1.9183829 
H     3.4863289    0.8738078   -0.6224228 
H     2.2470965    2.9164752   -0.9042281 
C     3.7748817   -3.7061934   -2.1669622 
C     2.4253007   -3.3759178   -1.9745243 
C     2.0589265   -2.0620742   -1.6559678 
C     3.0362829   -1.0550087   -1.5147761 
C     4.3945508   -1.4038909   -1.6994045 
C     4.7589469   -2.7142936   -2.0297881 
H     4.0608897   -4.7331535   -2.4165948 
H     1.6531099   -4.1467024   -2.0635948 
H     1.0098263   -1.8163381   -1.4710802 
H     5.1682137   -0.6361801   -1.5849051 
H     5.8149510   -2.9636234   -2.1768860 
C     0.5136772    5.7191760   -4.4204327 
C     0.6868908    5.9394617   -3.0440560 
C     1.1178928    4.8963116   -2.2207416 
C     1.3660299    3.6049630   -2.7519546 
C     1.2049566    3.4060506   -4.1479120 
C     0.7827489    4.4529420   -4.9695418 
H     0.1838515    6.5372537   -5.0689926 
H     0.4924319    6.9284575   -2.6173106 
H     1.2569463    5.0674652   -1.1477085 
H     1.4311197    2.4312478   -4.5906729 
H     0.6714983    4.2884902   -6.0460150 
O    -0.5914397   -1.6463137    0.3321138 
C    -1.6834948   -4.1785361    0.6883860 
C    -2.6338230    2.5497488   -0.1902094 
C    -2.0495654    0.5266606   -2.5563404 
C     3.1561170    0.3671802    2.4401157 
C     0.1549625    0.4568640    3.3627337 
C    -2.5917987   -2.9387481    0.6113154 
C    -0.4235060   -3.7594179    1.4602910 
C    -2.6768053   -0.5231346    0.0219668 
C     1.1382000   -1.8980584    1.9722082 
C    -1.9734742   -1.7106331    0.3150949 
C     0.0593918   -2.4566163    1.2504429 
C    -1.2719743   -4.5596998   -0.7663894 
C    -2.3907792   -5.3772789    1.3432486 
C    -2.9498684    2.5299101    1.3208583 
C    -3.9286826    2.8818155   -0.9620453 
C    -1.5946714    3.6654652   -0.4529888 
C    -1.5783359    1.7272486   -3.3919835 
C    -3.5045126    0.1607971   -2.9133755 
C    -1.1659736   -0.6953932   -2.8847233 
C     3.4827101    0.3132662    3.9495547 
C     3.4156773    1.8232582    1.9783995 
C     4.1098572   -0.6139376    1.7160704 
C    -1.2545956    0.0055003    2.9477368 
C     0.2106798    1.9948086    3.4730063 
C     0.4440523   -0.2036259    4.7284690 
C    -3.9906049   -2.9406829    0.7309839 
C     0.2811482   -4.5737342    2.3617579 
C    -4.0809470   -0.5782077    0.1453173 
C     1.8231006   -2.7583511    2.8555498 
C    -4.7253194   -1.7627292    0.5244388 
C     1.4149439   -4.0868408    3.0274905 
H    -0.7621599   -3.7191410   -1.2652998 
H    -2.1652974   -4.8248529   -1.3572925 
H    -0.5844814   -5.4228613   -0.7507469 
H    -3.2868592   -5.6589797    0.7659734 
H    -2.6946489   -5.1538579    2.3798869 
H    -1.7303295   -6.2598274    1.3531154 
H    -3.6365920    1.7150361    1.6023554 
H    -2.0360911    2.4391217    1.9245273 
H    -3.4316037    3.4879592    1.5897322 
H    -4.7305981    2.1466203   -0.7884878 
H    -4.3020943    3.8595516   -0.6056674 
H    -3.7653070    2.9708350   -2.0467295 
H    -0.6592180    3.4752852    0.1034770 
H    -1.3401236    3.7596530   -1.5202400 
H    -2.0067346    4.6354147   -0.1186637 
H    -2.2606929    2.5892828   -3.3212685 
H    -0.5799298    2.0570462   -3.0761796 
H    -1.5213543    1.4383622   -4.4575321 
H    -3.8254392   -0.7733606   -2.4258685 
H    -4.2272832    0.9513022   -2.6671407 
H    -3.5540118   -0.0018752   -4.0064378 
H    -1.4580731   -1.5835812   -2.2992568 
H    -0.1005281   -0.4913969   -2.6952079 
H    -1.2802806   -0.9483629   -3.9549356 
H     2.9682450    1.1008790    4.5215686 
H     3.2560983   -0.6613029    4.4086779 
H     4.5690255    0.4865176    4.0614073 
H     2.7702833    2.5424711    2.5076979 
H     3.2480973    1.9578798    0.8997906 
H     4.4658354    2.0878053    2.1990711 
H     4.2443376   -1.5435274    2.2907626 
H     3.7586377   -0.9050363    0.7187475 
H     5.1046810   -0.1444132    1.6087682 
H    -1.5085916    0.3441756    1.9366233 
H    -1.3569910   -1.0924088    2.9816219 
H    -1.9953046    0.4317280    3.6479151 
H     0.0876163    2.4750032    2.4855789 
H     1.1612880    2.3423900    3.9101941 
H    -0.6031855    2.3479783    4.1322421 
H     0.5471280   -1.2982514    4.6398788 
H     1.3295270    0.1992592    5.2351726 
H    -0.4238290   -0.0097670    5.3857198 
H    -4.5189827   -3.8656998    0.9768128 
H    -0.0537806   -5.5970205    2.5511222 
H    -4.6813375    0.3093931   -0.0656172 
H     2.6631933   -2.3824237    3.4431103 
H    -5.8146023   -1.7762793    0.6279745 
H     1.9636285   -4.7368698    3.7158755 
