111
Energy =
C     2.5738596   -0.4033600   -1.2982999 
C     2.0862015    0.7044687   -2.0240241 
C     2.0297312    1.9611031   -1.3267401 
H     1.7025315    0.6036086   -3.0440314 
Pd    0.6116902    0.6087289   -0.3949852 
P    -1.7033590    0.9429913   -1.1054435 
P     1.2299501    0.3807726    2.0938733 
H     3.1874620   -0.1917860   -0.4204631 
H     2.6784483    2.0381652   -0.4442428 
C     2.6300067   -4.5491732   -2.4024167 
C     3.0197017   -4.1401958   -1.1169457 
C     2.9870201   -2.7860368   -0.7741265 
C     2.5563335   -1.8074720   -1.7055516 
C     2.1608143   -2.2383404   -2.9961709 
C     2.2015857   -3.5931180   -3.3389640 
H     2.6623989   -5.6086240   -2.6765950 
H     3.3524897   -4.8786753   -0.3805773 
H     3.2897774   -2.4709830    0.2295645 
H     1.8481185   -1.5071914   -3.7472381 
H     1.9068382   -3.9068145   -4.3455656 
C     1.0976793    5.8283132   -2.9540032 
C     1.2945339    5.6575952   -1.5736118 
C     1.5989597    4.3932269   -1.0627418 
C     1.6991305    3.2679417   -1.9155658 
C     1.5311073    3.4627000   -3.3059198 
C     1.2289916    4.7295957   -3.8181393 
H     0.8612546    6.8182983   -3.3572178 
H     1.2120534    6.5143856   -0.8971984 
H     1.7427538    4.2609970    0.0149627 
H     1.6700876    2.6261671   -3.9969590 
H     1.1088725    4.8636164   -4.8980715 
O    -0.3530008   -1.3705846    0.2697332 
C    -1.1821289   -4.0207009    0.5077184 
C    -2.6930185    2.5335652   -0.6756408 
C    -1.9491039    0.4478541   -2.9647106 
C     2.9412620    1.0032934    2.7470140 
C    -0.1128214    0.6669259    3.4662064 
C    -2.2117197   -2.8887500    0.3653527 
C    -0.0387712   -3.4842192    1.3774503 
C    -2.5312948   -0.5243825   -0.3274098 
C     1.2424080   -1.4776417    2.0872714 
C    -1.7252534   -1.5978427    0.1012304 
C     0.3047969   -2.1293228    1.2549357 
C    -0.6233178   -4.3281903   -0.9145247 
C    -1.8035673   -5.2993875    1.0958424 
C    -1.6900983    3.6883909   -0.8986589 
C    -3.0560301    2.4947437    0.8225716 
C    -3.9669288    2.7923101   -1.5036204 
C    -1.3392189    1.5729763   -3.8200634 
C    -3.3923956    0.1537111   -3.4200817 
C    -1.1349803   -0.8532292   -3.1431656 
C     3.2080923    0.8407897    4.2591624 
C     2.9978892    2.5160033    2.4167938 
C     4.0717150    0.3009082    1.9597721 
C    -1.4200307    0.1004664    2.8775994 
C    -0.2523623    2.1906580    3.6695682 
C     0.1246356   -0.0459668    4.8132438 
C    -3.6066013   -3.0556611    0.3635844 
C     0.7012694   -4.2550485    2.2902950 
C    -3.9253970   -0.7427608   -0.3178793 
C     1.9670462   -2.2977449    2.9771377 
C    -4.4571462   -1.9808974    0.0637538 
C     1.7236147   -3.6753499    3.0529086 
H    -0.1262454   -3.4456853   -1.3493346 
H    -1.4435573   -4.6381718   -1.5845814 
H     0.1191830   -5.1411424   -0.8582784 
H    -2.6159449   -5.6656890    0.4468444 
H    -2.2084680   -5.1292709    2.1078510 
H    -1.0545865   -6.1062480    1.1475544 
H    -0.8063522    3.5632670   -0.2524541 
H    -1.3363173    3.7538396   -1.9409497 
H    -2.1738844    4.6495200   -0.6449091 
H    -2.1560260    2.3926219    1.4474301 
H    -3.5436930    3.4493936    1.0927073 
H    -3.7496260    1.6752318    1.0725396 
H    -3.7493958    2.9223414   -2.5753486 
H    -4.7205964    1.9960244   -1.3915344 
H    -4.4271054    3.7323623   -1.1469578 
H    -1.9503238    2.4906612   -3.7980849 
H    -0.3289997    1.8339242   -3.4714487 
H    -1.2701949    1.2449148   -4.8737595 
H    -3.8523564   -0.6572257   -2.8326430 
H    -4.0484259    1.0340697   -3.3884679 
H    -3.3529378   -0.1882142   -4.4714106 
H    -1.6335873   -1.7115648   -2.6623554 
H    -0.1241639   -0.7675245   -2.7135669 
H    -1.0391936   -1.0802502   -4.2208202 
H     2.5220724    1.4525615    4.8645187 
H     3.1402085   -0.2015083    4.6075342 
H     4.2337453    1.1953311    4.4717124 
H     2.2531380    3.0972820    2.9822534 
H     2.8310001    2.7048356    1.3443749 
H     3.9979810    2.9079645    2.6778010 
H     4.0227472   -0.7986506    2.0167689 
H     4.0737298    0.5961609    0.8981944 
H     5.0452725    0.6167376    2.3761605 
H    -1.5976187    0.4579732    1.8539311 
H    -1.4158314   -1.0028195    2.8635620 
H    -2.2720192    0.4209624    3.5041078 
H    -0.3356952    2.7246526    2.7061329 
H     0.6009245    2.6119010    4.2270215 
H    -1.1645175    2.4015386    4.2572092 
H     0.3180911   -1.1232747    4.6757130 
H     0.9446710    0.3882002    5.4004672 
H    -0.7959293    0.0470205    5.4192969 
H    -4.0387812   -4.0344932    0.5867333 
H     0.4815479   -5.3194484    2.4063668 
H    -4.6008078    0.0620877   -0.6188477 
H     2.7109957   -1.8526703    3.6416737 
H    -5.5419366   -2.1228109    0.0846841 
H     2.3052446   -4.2925389    3.7446275 
