111
Energy =
C     2.2854800    3.1430639   -0.6928357 
C     2.2014488    1.8300030   -1.0477797 
C     1.0824003    1.2090317   -1.7581115 
H     3.0269255    1.1643229   -0.7760123 
Pd   -0.0850548    0.0008388   -0.4430652 
P    -2.0352934    1.3390831   -0.5300289 
P     1.4536960   -1.4547197    0.7664810 
H     1.4537563    3.8065500   -0.9566303 
H     0.3516642    1.9580057   -2.0949666 
C     5.3881370    5.0809745    1.5595071 
C     5.6044899    3.7869068    1.0542814 
C     4.6122305    3.1449937    0.3092346 
C     3.3707747    3.7796801    0.0522870 
C     3.1784807    5.0901122    0.5547678 
C     4.1716457    5.7314532    1.3033208 
H     6.1693973    5.5820162    2.1402574 
H     6.5592257    3.2821287    1.2360383 
H     4.8091252    2.1475607   -0.0976232 
H     2.2298853    5.6027471    0.3561703 
H     3.9991103    6.7431625    1.6849347 
C     2.0558475   -1.5162277   -5.0044807 
C     0.7436177   -1.4477481   -4.5102906 
C     0.4335143   -0.5770655   -3.4599038 
C     1.4199415    0.2509295   -2.8697766 
C     2.7300658    0.1819737   -3.3967993 
C     3.0444705   -0.6943714   -4.4449729 
H     2.3031710   -2.1989235   -5.8237565 
H    -0.0403039   -2.0811497   -4.9382615 
H    -0.5858547   -0.5593684   -3.0614357 
H     3.5067786    0.8434845   -3.0011022 
H     4.0676578   -0.7241373   -4.8342528 
O    -1.5828546   -1.4949158    0.4736623 
C    -3.4972010   -3.4525868    1.1469562 
C    -1.8218643    3.0458426    0.3342662 
C    -3.0326488    1.4614762   -2.1782504 
C     2.8190687   -2.4730703   -0.1276988 
C     2.0403495   -0.6164137    2.4028920 
C    -3.8411160   -1.9646344    1.2114868 
C    -2.0468309   -3.5886223    1.6051831 
C    -3.1819870    0.3160258    0.5088893 
C     0.2683182   -2.7341015    1.4040633 
C    -2.8823781   -1.0417664    0.7521398 
C    -1.1159046   -2.6278013    1.1677643 
C    -3.5767064   -3.8910657   -0.3495652 
C    -4.4628459   -4.3192466    1.9730986 
C    -1.3382262    4.0712518   -0.7140300 
C    -0.7271640    2.8213566    1.4012721 
C    -3.0701442    3.6155014    1.0391689 
C    -3.4321449    0.0040045   -2.5149286 
C    -2.1224178    2.0064571   -3.3032172 
C    -4.2994589    2.3357229   -2.0955097 
C     2.1190439   -3.0042613   -1.3985699 
C     3.4397102   -3.6762673    0.6149107 
C     3.9472555   -1.4924182   -0.5062375 
C     3.0303587   -1.4455125    3.2420194 
C     0.7494924   -0.3604150    3.2161288 
C     2.6871696    0.7388547    2.0585572 
C    -5.0989969   -1.4693460    1.5886512 
C    -1.5720976   -4.6531220    2.3868369 
C    -4.4723024    0.7581051    0.8788724 
C     0.6924402   -3.8193594    2.2026716 
C    -5.4059298   -0.1115828    1.4489460 
C    -0.2129490   -4.7607415    2.6990221 
H    -2.8965781   -3.2905107   -0.9774931 
H    -4.6053555   -3.7601336   -0.7271828 
H    -3.2925393   -4.9527887   -0.4465793 
H    -5.4936963   -4.2134045    1.5978753 
H    -4.4458357   -4.0470079    3.0419530 
H    -4.2027802   -5.3857588    1.8763073 
H    -0.5096053    3.6869529   -1.3283384 
H    -2.1519571    4.3867987   -1.3868024 
H    -0.9738135    4.9721051   -0.1875680 
H    -1.0537646    2.0850360    2.1557103 
H     0.2156256    2.4675479    0.9528163 
H    -0.5270923    3.7747857    1.9242861 
H    -3.9246576    3.7539754    0.3573288 
H    -3.3818745    2.9927166    1.8924003 
H    -2.8065024    4.6117848    1.4397060 
H    -2.5685146   -0.6835101   -2.4534861 
H    -4.2167012   -0.3739666   -1.8388572 
H    -3.8225420   -0.0328918   -3.5477801 
H    -1.8207644    3.0512872   -3.1372231 
H    -1.2178847    1.3967900   -3.4443012 
H    -2.6885812    1.9761699   -4.2519904 
H    -4.0658704    3.3904585   -1.8772420 
H    -5.0192398    1.9647924   -1.3496532 
H    -4.8064765    2.3088338   -3.0778022 
H     1.2939229   -3.6918043   -1.1399610 
H     1.7150159   -2.1901877   -2.0173186 
H     2.8504471   -3.5653111   -2.0082383 
H     2.7240970   -4.5043298    0.7307488 
H     3.8598034   -3.4176717    1.5986460 
H     4.2712991   -4.0562767   -0.0069637 
H     3.5571566   -0.6168632   -1.0444956 
H     4.5124501   -1.1518765    0.3779754 
H     4.6561787   -2.0025501   -1.1829922 
H     2.6250686   -2.4267881    3.5350908 
H     3.9909458   -1.5933301    2.7219576 
H     3.2442387   -0.8909421    4.1745917 
H     0.3257482   -1.2918834    3.6255543 
H    -0.0226824    0.1316456    2.5974356 
H     0.9853060    0.3116453    4.0611363 
H     3.6053643    0.6240530    1.4617378 
H     1.9940509    1.3896572    1.5049727 
H     2.9675539    1.2542495    2.9950538 
H    -5.8567945   -2.1552416    1.9746680 
H    -2.2704935   -5.4088911    2.7537125 
H    -4.7592478    1.7947878    0.7116188 
H     1.7462222   -3.9227633    2.4561571 
H    -6.3894076    0.2640444    1.7466410 
H     0.1452885   -5.5860927    3.3215410 
