111
Energy =
C     2.7137975    0.3611168   -1.1267380 
C     2.0315933    1.2005125   -2.0918038 
C     1.8674028    2.5624543   -1.8189286 
H     1.7020328    0.7784731   -3.0493147 
Pd    0.7617498    0.7827622   -0.2950795 
P    -1.7195477    0.9136605   -0.7053872 
P     1.3064121   -0.0660040    1.9421175 
H     3.4964371    0.8776365   -0.5557369 
H     2.2609093    2.9212847   -0.8572089 
C     3.8180809   -3.6971549   -2.1089905 
C     2.4655847   -3.3712359   -1.9302640 
C     2.0918828   -2.0587702   -1.6143571 
C     3.0646366   -1.0489961   -1.4618677 
C     4.4258183   -1.3934558   -1.6324429 
C     4.7976185   -2.7023872   -1.9605230 
H     4.1098520   -4.7229668   -2.3566770 
H     1.6966742   -4.1442566   -2.0280516 
H     1.0401101   -1.8162453   -1.4407062 
H     5.1958865   -0.6235579   -1.5086795 
H     5.8558582   -2.9483397   -2.0968900 
C     0.5912740    5.7286516   -4.4004512 
C     0.7399257    5.9469531   -3.0208856 
C     1.1565532    4.9027038   -2.1915990 
C     1.4147849    3.6122700   -2.7202679 
C     1.2787957    3.4154449   -4.1192023 
C     0.8706538    4.4633594   -4.9466059 
H     0.2726406    6.5475599   -5.0535474 
H     0.5375806    6.9352549   -2.5962077 
H     1.2761658    5.0722074   -1.1159584 
H     1.5135433    2.4415162   -4.5594069 
H     0.7785460    4.3004827   -6.0251269 
O    -0.5990019   -1.6482483    0.3210176 
C    -1.6978619   -4.1804555    0.6550775 
C    -2.6308906    2.5483917   -0.2366331 
C    -1.9997208    0.5263776   -2.5919492 
C     3.1114971    0.3613423    2.4967983 
C     0.0936937    0.4534982    3.3646895 
C    -2.6044008   -2.9405200    0.5618412 
C    -0.4525341   -3.7620881    1.4507478 
C    -2.6777976   -0.5243358   -0.0269258 
C     1.1006506   -1.9017356    1.9916164 
C    -1.9804441   -1.7122937    0.2782443 
C     0.0346150   -2.4593673    1.2504960 
C    -1.2588874   -4.5605701   -0.7919504 
C    -2.4174874   -5.3796447    1.2955064 
C    -3.9109843    2.8801968   -1.0328694 
C    -1.5873751    3.6645877   -0.4792000 
C    -2.9754477    2.5278227    1.2682142 
C    -1.5139367    1.7279265   -3.4178473 
C    -3.4470393    0.1589205   -2.9771416 
C    -1.1081377   -0.6943655   -2.9034329 
C     3.3802458    1.8183081    2.0432437 
C     4.0768968   -0.6192250    1.7873889 
C     3.4115748    0.3040108    4.0116656 
C    -1.3084017    0.0025711    2.9245868 
C     0.1478639    1.9914304    3.4759516 
C     0.3582325   -0.2070159    4.7353681 
C    -4.0052068   -2.9422778    0.6551706 
C     0.2352102   -4.5771584    2.3644704 
C    -4.0840369   -0.5792694    0.0698458 
C     1.7691570   -2.7628729    2.8866372 
C    -4.7356478   -1.7640062    0.4356887 
C     1.3570876   -4.0911585    3.0507344 
H    -0.7395347   -3.7197436   -1.2805208 
H    -2.1408790   -4.8250938   -1.3999142 
H    -0.5719836   -5.4238927   -0.7639450 
H    -3.3025034   -5.6607658    0.7011362 
H    -2.7409460   -5.1570209    2.3263769 
H    -1.7574178   -6.2622598    1.3171885 
H    -3.7270083    2.9694342   -2.1142191 
H    -4.7158314    2.1447295   -0.8747333 
H    -4.2915060    3.8577420   -0.6835122 
H    -1.3124633    3.7591425   -1.5413329 
H    -2.0061977    4.6342914   -0.1526326 
H    -0.6627026    3.4746665    0.0950625 
H    -3.6673147    1.7127968    1.5363383 
H    -2.0732112    2.4367736    1.8889753 
H    -3.4622078    3.4857287    1.5284040 
H    -2.1987594    2.5889718   -3.3602315 
H    -0.5223634    2.0590220   -3.0824972 
H    -1.4357402    1.4394114   -4.4821586 
H    -3.7760300   -0.7760038   -2.4965563 
H    -4.1754071    0.9483388   -2.7440995 
H    -3.4754541   -0.0028825   -4.0710819 
H    -1.4103085   -1.5830895   -2.3239190 
H    -0.0467871   -0.4890578   -2.6931505 
H    -1.2013323   -0.9472964   -3.9757055 
H     4.4272313    2.0806740    2.2808743 
H     3.2293558    1.9563277    0.9626501 
H     2.7278117    2.5368560    2.5647158 
H     3.7428952   -0.9082437    0.7835118 
H     4.2006735   -1.5499602    2.3626493 
H     5.0738058   -0.1503144    1.6982267 
H     2.8885049    1.0914860    4.5759907 
H     3.1754049   -0.6709495    4.4651079 
H     4.4960573    0.4752421    4.1427488 
H    -1.5446349    0.3417102    1.9093013 
H    -1.4116370   -1.0953092    2.9562280 
H    -2.0612132    0.4287217    3.6117681 
H     0.0428416    2.4716389    2.4864572 
H     1.0905212    2.3386934    3.9302955 
H    -0.6776741    2.3448611    4.1203671 
H     0.4629132   -1.3016394    4.6486466 
H     1.2345256    0.1958732    5.2578013 
H    -0.5212570   -0.0131182    5.3769725 
H    -4.5383215   -3.8673819    0.8902416 
H    -0.1035667   -5.6003911    2.5471712 
H    -4.6802478    0.3085726   -0.1516298 
H     2.5989077   -2.3877890    3.4892254 
H    -5.8267021   -1.7774325    0.5185529 
H     1.8929567   -4.7417802    3.7485918 
