111
Energy =
C     0.7717783    0.0023988   -2.7819605 
C     1.7641304    0.9256720   -2.4224697 
C     2.8155583    0.5153105   -1.5142721 
H     1.7602626    1.9414774   -2.8388279 
Pd    0.9516581    0.6066272   -0.3714908 
P     1.5497149   -1.0100755    1.3836279 
P    -1.3102836    1.6422480   -0.0087777 
H     0.8583913   -1.0071409   -2.3592331 
H     3.1349903   -0.5290871   -1.6045461 
C    -2.3943131    0.3812174   -5.6338491 
C    -2.4401676   -0.6120888   -4.6418423 
C    -1.3865493   -0.7370853   -3.7331957 
C    -0.2848227    0.1529528   -3.7737192 
C    -0.2408834    1.1333710   -4.7968030 
C    -1.2849817    1.2414605   -5.7181800 
H    -3.2138467    0.4752716   -6.3538629 
H    -3.2956310   -1.2918746   -4.5801288 
H    -1.4168569   -1.5147885   -2.9646404 
H     0.6243415    1.7990494   -4.8776786 
H    -1.2358799    1.9951026   -6.5105419 
C     5.9456422    3.1983661   -0.2565158 
C     4.6311871    3.6717436   -0.3991062 
C     3.6160654    2.8081172   -0.8215840 
C     3.8835554    1.4463173   -1.0990467 
C     5.2178338    0.9920955   -0.9694518 
C     6.2359133    1.8573224   -0.5534260 
H     6.7413916    3.8736845    0.0740223 
H     4.3977460    4.7188762   -0.1803214 
H     2.5940710    3.1859718   -0.9197611 
H     5.4618556   -0.0456798   -1.2191824 
H     7.2622499    1.4859789   -0.4665764 
O    -1.0598737   -1.2928114   -0.0894657 
C    -2.9897313   -3.2779877   -0.0617213 
C     2.6139430   -2.5148731    0.7459659 
C     2.3931815   -0.2405554    2.9354000 
C    -2.1196575    1.8805859    1.7384083 
C    -1.4023863    3.3315917   -0.9373307 
C    -2.0402148   -3.0938784    1.1387988 
C    -3.3363026   -1.8708279   -0.5733443 
C     0.0607707   -1.9962659    1.9062340 
C    -2.5428702    0.4756560   -0.7468843 
C    -1.0047970   -2.1518281    0.9943588 
C    -2.3286483   -0.8964856   -0.4908761 
C    -4.2493120   -4.0781423    0.3116279 
C    -2.2114610   -4.0378141   -1.1783796 
C     2.0054659   -2.9426564   -0.6076741 
C     2.5721875   -3.7521811    1.6715677 
C     4.0806071   -2.0821451    0.5538001 
C     1.3072126    0.4818084    3.7570300 
C     3.3666116    0.8290383    2.3820682 
C     3.1655119   -1.2010376    3.8641785 
C    -1.9777018    0.5352816    2.4706959 
C    -3.6237269    2.2261980    1.7227656 
C    -1.3240230    2.9729532    2.4851380 
C    -0.1344549    4.1175044   -0.5268166 
C    -2.6353813    4.2219278   -0.6827438 
C    -1.2979192    3.0244885   -2.4413952 
C    -2.0768666   -3.8251495    2.3362366 
C    -4.5741167   -1.4727244   -1.1055349 
C    -0.0237786   -2.7521646    3.0949280 
C    -3.7910808    0.8250940   -1.3018028 
C    -1.0938150   -3.6278303    3.3193318 
C    -4.7792477   -0.1455970   -1.5139358 
H    -4.8383525   -3.5677549    1.0924208 
H    -3.9754023   -5.0821084    0.6758683 
H    -4.8916009   -4.2254381   -0.5721062 
H    -1.9126111   -5.0385170   -0.8224743 
H    -1.3004152   -3.4886140   -1.4705018 
H    -2.8486289   -4.1531223   -2.0720207 
H     0.9360367   -3.1967055   -0.5123462 
H     2.1098280   -2.1647184   -1.3782497 
H     2.5325734   -3.8441357   -0.9694819 
H     1.5742960   -4.2167859    1.6971451 
H     3.2773904   -4.5008025    1.2649180 
H     2.8844234   -3.5344031    2.7029569 
H     4.1655443   -1.1161200    0.0410273 
H     4.6159492   -1.9998657    1.5127257 
H     4.6072259   -2.8408163   -0.0537953 
H     0.7704041    1.2188639    3.1409374 
H     0.5719034   -0.2141452    4.1936665 
H     1.7930769    1.0276583    4.5863359 
H     4.1739237    0.3990934    1.7685683 
H     2.8345750    1.5714657    1.7617950 
H     3.8354139    1.3601149    3.2305432 
H     3.6065736   -0.6049498    4.6841363 
H     3.9938747   -1.7142897    3.3534849 
H     2.5172896   -1.9600994    4.3307175 
H    -2.6370435   -0.2351707    2.0356950 
H    -0.9485762    0.1587376    2.4450829 
H    -2.2701188    0.6621847    3.5289573 
H    -4.2109794    1.4597902    1.1908504 
H    -3.8482072    3.2082296    1.2865378 
H    -3.9781506    2.2434896    2.7703831 
H    -0.2340527    2.8169022    2.4068627 
H    -1.5554664    3.9821457    2.1074364 
H    -1.5929952    2.9525281    3.5568400 
H    -0.1556604    4.4456359    0.5235367 
H     0.7687105    3.4999366   -0.6708097 
H    -0.0422965    5.0182342   -1.1609740 
H    -2.6914119    4.5748534    0.3582989 
H    -3.5868370    3.7289533   -0.9365390 
H    -2.5473509    5.1176188   -1.3253014 
H    -0.3573095    2.5017430   -2.6544914 
H    -2.1250341    2.4036454   -2.8207200 
H    -1.2923206    3.9727310   -3.0096243 
H    -2.8702610   -4.5569395    2.5105269 
H    -5.3872042   -2.1973273   -1.2038020 
H     0.7594255   -2.6671366    3.8510280 
H    -4.0112874    1.8688147   -1.5375679 
H    -1.1422104   -4.1911488    4.2562013 
H    -5.7388991    0.1457607   -1.9519663 
