111
Energy =
C     0.8221958    0.0384188   -2.7670414 
C     1.8132302    0.9505078   -2.3765766 
C     2.8456529    0.5206332   -1.4556908 
H     1.8228467    1.9721888   -2.7782080 
Pd    0.9616463    0.6068658   -0.3456232 
P     1.5182874   -1.0390809    1.3964289 
P    -1.3005861    1.6500681   -0.0083005 
H     0.8954317   -0.9775182   -2.3573985 
H     3.1604062   -0.5243793   -1.5553210 
C    -2.2903773    0.4757715   -5.6690577 
C    -2.3587971   -0.5318209   -4.6929182 
C    -1.3222554   -0.6755925   -3.7676047 
C    -0.2156238    0.2092221   -3.7752122 
C    -0.1485800    1.2043562   -4.7827253 
C    -1.1755211    1.3314119   -5.7208111 
H    -3.0964686    0.5847017   -6.4020391 
H    -3.2184591   -1.2081548   -4.6566501 
H    -1.3701058   -1.4645766   -3.0115158 
H     0.7211197    1.8667971   -4.8383715 
H    -1.1086462    2.0964884   -6.5008245 
C     5.9684271    3.1651741   -0.1018389 
C     4.6599286    3.6491811   -0.2623634 
C     3.6474410    2.7982927   -0.7159266 
C     3.9114742    1.4387956   -1.0076175 
C     5.2402291    0.9740648   -0.8596953 
C     6.2557404    1.8265733   -0.4123292 
H     6.7620494    3.8304893    0.2531891 
H     4.4290949    4.6947138   -0.0333849 
H     2.6299515    3.1844056   -0.8279882 
H     5.4823989   -0.0616395   -1.1196077 
H     7.2778493    1.4472010   -0.3114327 
O    -1.0655114   -1.2844614   -0.1280925 
C    -3.0066403   -3.2586348   -0.1650440 
C     2.5854947   -2.5408283    0.7566847 
C     2.3373751   -0.2968276    2.9741744 
C    -2.1401213    1.8673042    1.7271936 
C    -1.3653443    3.3536671   -0.9127908 
C    -2.0781428   -3.0978516    1.0550931 
C    -3.3359774   -1.8420400   -0.6617719 
C     0.0144275   -2.0238889    1.8770529 
C    -2.5264591    0.5021019   -0.7858732 
C    -1.0350220   -2.1598011    0.9435860 
C    -2.3245751   -0.8749051   -0.5465225 
C    -4.2772758   -4.0568340    0.1736040 
C    -2.2125057   -4.0064407   -1.2786307 
C     1.9994883   -2.9454887   -0.6138423 
C     2.5200518   -3.7910264    1.6633612 
C     4.0577485   -2.1138411    0.5974846 
C     1.2406040    0.4195776    3.7866267 
C     3.3263524    0.7752293    2.4540240 
C     3.0875770   -1.2750102    3.9026292 
C    -2.0190641    0.5105458    2.4418893 
C    -3.6417617    2.2217659    1.6894655 
C    -1.3521382    2.9439324    2.5043459 
C    -1.2352014    3.0681688   -2.4191117 
C    -0.1004377    4.1254206   -0.4674075 
C    -2.5974603    4.2478278   -0.6675870 
C    -2.1408254   -3.8465079    2.2406633 
C    -4.5617169   -1.4287763   -1.2100912 
C    -0.0960313   -2.7968404    3.0526097 
C    -3.7625225    0.8671233   -1.3577030 
C    -1.1747804   -3.6696241    3.2443436 
C    -4.7520688   -0.0945161   -1.6020649 
H    -4.8774034   -3.5546804    0.9512868 
H    -4.0155906   -5.0677167    0.5275537 
H    -4.9043666   -4.1871375   -0.7236080 
H    -1.9260286   -5.0141549   -0.9324829 
H    -1.2930406   -3.4584979   -1.5457153 
H    -2.8338635   -4.1045515   -2.1853879 
H     0.9272145   -3.1950184   -0.5416344 
H     2.1219945   -2.1569485   -1.3708693 
H     2.5283778   -3.8444949   -0.9791899 
H     1.5193275   -4.2501857    1.6641069 
H     3.2283919   -4.5378142    1.2587634 
H     2.8146918   -3.5899545    2.7033033 
H     4.1572054   -1.1405608    0.1012713 
H     4.5760735   -2.0493739    1.5670845 
H     4.5910699   -2.8661519   -0.0121658 
H     0.7191948    1.1687950    3.1719916 
H     0.4936450   -0.2785104    4.1993892 
H     1.7142783    0.9502766    4.6326600 
H     4.1423271    0.3496262    1.8490689 
H     2.8095404    1.5292734    1.8349293 
H     3.7825552    1.2914590    3.3184011 
H     3.5169061   -0.6934079    4.7390615 
H     3.9222192   -1.7855536    3.3995274 
H     2.4268258   -2.0370552    4.3462192 
H    -2.6746906   -0.2495353    1.9836216 
H    -0.9918102    0.1283604    2.4292126 
H    -2.3300096    0.6235363    3.4964485 
H    -4.2236089    1.4655019    1.1374616 
H    -3.8532009    3.2104453    1.2618698 
H    -4.0145321    2.2277338    2.7308107 
H    -0.2618066    2.7830464    2.4429966 
H    -1.5715249    3.9599326    2.1379108 
H    -1.6401990    2.9088408    3.5706932 
H    -0.2935596    2.5435627   -2.6229723 
H    -2.0585055    2.4574499   -2.8223853 
H    -1.2144354    4.0246225   -2.9730434 
H     0.8013282    3.5035757   -0.6018360 
H    -0.1400355    4.4400150    0.5865519 
H     0.0099412    5.0336652   -1.0877569 
H    -3.5468620    3.7649558   -0.9472428 
H    -2.6712540    4.5847941    0.3776069 
H    -2.4917035    5.1528224   -1.2942081 
H    -2.9414306   -4.5760459    2.3895614 
H    -5.3769485   -2.1470500   -1.3337376 
H     0.6737743   -2.7275906    3.8239500 
H    -3.9726607    1.9155371   -1.5815916 
H    -1.2432709   -4.2468172    4.1714701 
H    -5.7020561    0.2088992   -2.0527978 
