111
Energy =
C     1.1328894    1.4168498   -2.6844750 
C     2.2012509    0.5929485   -2.1568823 
C     1.9765727   -0.7768777   -1.9590044 
H     3.1808930    1.0359871   -1.9354337 
Pd    0.5637553    0.8130689   -0.6594375 
P     1.2437417    0.1940920    1.6808347 
P    -1.8754313    0.9779346   -0.9303343 
H     0.4730946    0.9265988   -3.4093664 
H     0.9867703   -1.1619963   -2.2370125 
C     1.5971960    5.6535878   -3.3265637 
C     2.1791000    5.0464069   -2.2018739 
C     2.0442778    3.6696530   -1.9988407 
C     1.3130617    2.8653618   -2.9052239 
C     0.7520181    3.4911096   -4.0441088 
C     0.8921241    4.8677905   -4.2519113 
H     1.7018413    6.7315691   -3.4864566 
H     2.7406466    5.6495969   -1.4809654 
H     2.4944635    3.2095452   -1.1143347 
H     0.2185457    2.8865590   -4.7849091 
H     0.4548241    5.3295693   -5.1431442 
C     4.7202952   -3.8381541   -0.7755533 
C     3.3343880   -4.0393559   -0.6683607 
C     2.4519187   -3.0386314   -1.0819432 
C     2.9376589   -1.8021625   -1.5746366 
C     4.3384818   -1.6245615   -1.7014161 
C     5.2180840   -2.6355761   -1.3080747 
H     5.4144358   -4.6245000   -0.4613380 
H     2.9423181   -4.9785826   -0.2660435 
H     1.3721215   -3.1964077   -1.0059668 
H     4.7344961   -0.6967490   -2.1263239 
H     6.2975219   -2.4919874   -1.4197609 
O    -0.6618256   -1.5210125    0.2281254 
C    -1.7656849   -3.9713326    0.8941280 
C     3.0578359    0.7701042    2.0000779 
C     0.1986644    0.6254088    3.2577774 
C    -2.6188801    2.7012168   -0.4966321 
C    -2.5205041    0.4147090   -2.6826257 
C    -0.4159232   -3.5439246    1.4921313 
C    -2.6464491   -2.7072826    0.8340563 
C     1.1680705   -1.6527422    1.7748610 
C    -2.7386374   -0.3413528    0.0582504 
C     0.0471045   -2.2590079    1.1664618 
C    -2.0393304   -1.5289444    0.3614611 
C    -2.4225757   -5.0981085    1.7097335 
C    -1.5314074   -4.4641593   -0.5660162 
C     3.1216179    2.2529598    1.5626144 
C     3.9599869   -0.0383446    1.0514602 
C     3.6013013    0.6597120    3.4390388 
C     0.6142714   -0.1196068    4.5438780 
C    -1.2492130    0.2086181    2.9480194 
C     0.2714019    2.1526175    3.4730939 
C    -4.0347904    3.0103324   -1.0271776 
C    -1.6202395    3.7339051   -1.0745915 
C    -2.6178936    2.8437673    1.0382085 
C    -4.0181965    0.0330663   -2.7076291 
C    -1.7242467   -0.8539638   -3.0593030 
C    -2.2689933    1.5244802   -3.7218957 
C     0.3881198   -4.3210553    2.3427459 
C    -4.0129918   -2.6412391    1.1474174 
C     1.9583408   -2.4773681    2.6015719 
C    -4.1092895   -0.3250577    0.3938308 
C     1.5917097   -3.8069114    2.8498974 
C    -4.7277479   -1.4471453    0.9600319 
H    -2.5949912   -4.7947073    2.7562347 
H    -1.7887846   -6.0000939    1.7060745 
H    -3.3879499   -5.3866282    1.2620863 
H    -0.8699508   -5.3475984   -0.5656260 
H    -1.0596160   -3.6775260   -1.1787203 
H    -2.4914625   -4.7384715   -1.0355742 
H     2.7123733    2.3758850    0.5451216 
H     2.5626788    2.9215328    2.2346923 
H     4.1757850    2.5858183    1.5542111 
H     3.6643080    0.1375338    0.0097588 
H     5.0067252    0.2983470    1.1653654 
H     3.9281724   -1.1238919    1.2353271 
H     3.0671767    1.3170785    4.1418812 
H     3.5779161   -0.3676854    3.8347006 
H     4.6582791    0.9844563    3.4294787 
H     0.5721878   -1.2132169    4.4115730 
H     1.6123389    0.1529134    4.9106708 
H    -0.1104178    0.1436972    5.3368841 
H    -1.5994420    0.6155152    1.9923877 
H    -1.3578485   -0.8890367    2.9154395 
H    -1.9161798    0.5834988    3.7456781 
H     0.0980471    2.7109134    2.5367916 
H     1.2447299    2.4648406    3.8852346 
H    -0.5057918    2.4564914    4.1976636 
H    -4.3016764    4.0366557   -0.7149535 
H    -4.0953772    2.9787336   -2.1254083 
H    -4.8038106    2.3379479   -0.6144123 
H    -1.5502071    3.6953786   -2.1729676 
H    -0.6050625    3.5795273   -0.6692050 
H    -1.9532512    4.7499883   -0.7945547 
H    -3.3118014    2.1423909    1.5301389 
H    -1.6090837    2.6854058    1.4485915 
H    -2.9295761    3.8712803    1.3002368 
H    -4.2231232   -0.8778903   -2.1241575 
H    -4.6775279    0.8359607   -2.3478756 
H    -4.2951309   -0.1752990   -3.7578517 
H    -1.8284824   -1.6437257   -2.2957795 
H    -0.6529551   -0.6490322   -3.2029532 
H    -2.1173618   -1.2553362   -4.0110625 
H    -2.9903887    2.3510971   -3.6261867 
H    -1.2612660    1.9504317   -3.6398738 
H    -2.3821405    1.1039450   -4.7379527 
H     0.0788472   -5.3338295    2.6155042 
H    -4.5318055   -3.5211910    1.5370353 
H     2.8485555   -2.0714849    3.0875595 
H    -4.7064983    0.5686209    0.2013087 
H     2.2226716   -4.4318392    3.4895134 
H    -5.7887919   -1.4024259    1.2238315 
