111
Energy =
C     2.0887275    1.8706682   -1.2844045 
C     1.7872484    0.8627164   -2.2671477 
C     0.4694978    0.8307567   -2.7724329 
H     2.5157532    0.0907828   -2.5299614 
Pd    0.6309950    0.5546328   -0.4333504 
P    -1.4106583    2.0204984    0.2279016 
P     1.6058324   -1.0330322    1.1281632 
H     1.4469662    2.7617705   -1.3091119 
H    -0.1104148    1.7551009   -2.7389922 
C     5.8713009    2.6871203    0.5935400 
C     4.6954002    3.3116262    1.0412176 
C     3.4758359    3.0333818    0.4173745 
C     3.4013248    2.1178080   -0.6600344 
C     4.5957766    1.5145283   -1.1133521 
C     5.8173142    1.7952026   -0.4891892 
H     6.8283706    2.9043405    1.0785599 
H     4.7322036    4.0177173    1.8770289 
H     2.5591157    3.5162314    0.7719417 
H     4.5774206    0.8415402   -1.9751715 
H     6.7344653    1.3241198   -0.8573026 
C    -1.3700958   -2.2428783   -5.1353991 
C    -0.0270792   -2.3830783   -4.7456515 
C     0.5855823   -1.4021608   -3.9603647 
C    -0.1306863   -0.2477482   -3.5580040 
C    -1.4873529   -0.1282864   -3.9500690 
C    -2.1000497   -1.1149000   -4.7279316 
H    -1.8447252   -3.0124868   -5.7526662 
H     0.5454709   -3.2612861   -5.0612374 
H     1.6351785   -1.5238212   -3.6764680 
H    -2.0596168    0.7496178   -3.6324378 
H    -3.1490652   -1.0026685   -5.0200204 
O    -1.0894253   -0.9004761   -0.2085751 
C    -2.9556181   -2.9244221   -0.6411135 
C    -2.1697958    1.9577776    2.0155431 
C    -1.6130026    3.8120611   -0.4715435 
C     2.6686917   -2.4129956    0.2642559 
C     2.4557851   -0.4165642    2.7409013 
C    -3.3351978   -1.4574225   -0.8708348 
C    -2.0080828   -2.9731118    0.5686767 
C    -2.6309881    0.9127894   -0.6311790 
C     0.1092770   -2.0763870    1.5259365 
C    -2.3755858   -0.4751245   -0.5882541 
C    -0.9990287   -1.9993067    0.6546323 
C    -2.1542083   -3.4279586   -1.8790104 
C    -4.1958193   -3.8139402   -0.4427101 
C    -1.4061511    2.9651752    2.9017549 
C    -1.9104180    0.5245708    2.5219638 
C    -3.6898328    2.2052716    2.1038968 
C    -1.5484151    3.7629294   -2.0158555 
C    -0.3813385    4.6078288    0.0300327 
C    -2.8818241    4.5833193   -0.0477818 
C     1.7272673   -3.0936805   -0.7578623 
C     3.2371065   -3.4744070    1.2241418 
C     3.8174734   -1.7526329   -0.5224128 
C     3.9265037   -0.0982024    2.3907005 
C     2.4024263   -1.3609586    3.9575468 
C     1.7500983    0.9046704    3.1149980 
C    -4.5765827   -1.0177055   -1.3618039 
C    -1.9875176   -3.9989480    1.5276409 
C    -3.8850772    1.3024660   -1.1451350 
C     0.0881530   -3.1374573    2.4579297 
C    -4.8327725    0.3484400   -1.5382520 
C    -0.9660555   -4.0589517    2.4852074 
H    -1.2800848   -2.7866242   -2.0761243 
H    -2.7963066   -3.4103709   -2.7750610 
H    -1.8033519   -4.4604494   -1.7094396 
H    -4.8360064   -3.7914198   -1.3395054 
H    -4.7948821   -3.4920763    0.4258503 
H    -3.8972720   -4.8649339   -0.2974195 
H    -0.3132120    2.8619673    2.7958108 
H    -1.6826014    4.0078650    2.6740159 
H    -1.6622900    2.7834211    3.9616484 
H    -0.8644288    0.2179259    2.3750184 
H    -2.1385783    0.4721802    3.6021919 
H    -2.5586528   -0.2102353    2.0144909 
H    -3.9818058    3.2313890    1.8430150 
H    -4.2544167    1.5049700    1.4660939 
H    -4.0078998    2.0287435    3.1485715 
H    -2.2985733    3.0891767   -2.4608664 
H    -1.7295332    4.7781994   -2.4127271 
H    -0.5505089    3.4596123   -2.3715679 
H     0.5635037    4.1156215   -0.2515777 
H    -0.3875666    5.6131301   -0.4294504 
H    -0.3814771    4.7401325    1.1227501 
H    -2.8640277    5.5763236   -0.5340176 
H    -2.9173503    4.7547566    1.0388198 
H    -3.8165606    4.0858722   -0.3501061 
H     0.9871495   -3.7508829   -0.2736803 
H     1.1844001   -2.3481627   -1.3674859 
H     2.3329208   -3.7138808   -1.4435632 
H     2.4457704   -3.9924086    1.7888588 
H     3.9659953   -3.0506997    1.9339314 
H     3.7669583   -4.2410563    0.6283682 
H     3.4201698   -1.0197365   -1.2381774 
H     4.5496865   -1.2408210    0.1172473 
H     4.3547558   -2.5319186   -1.0938903 
H     4.5295285   -1.0098772    2.2530464 
H     4.0105851    0.5259779    1.4864912 
H     4.3719249    0.4700767    3.2271752 
H     2.8601784   -2.3428963    3.7584875 
H     1.3701714   -1.5088190    4.3142982 
H     2.9708629   -0.8948925    4.7837529 
H     1.7267302    1.6037469    2.2624203 
H     0.7168640    0.7291617    3.4517340 
H     2.2973270    1.3828609    3.9481984 
H    -5.3504982   -1.7469597   -1.6146419 
H    -2.7620116   -4.7700476    1.5192315 
H    -4.1405251    2.3624032   -1.2079121 
H     0.9071272   -3.2574881    3.1665970 
H    -5.7961233    0.6746062   -1.9422872 
H    -0.9661449   -4.8579238    3.2329241 
