111
Energy =
C     2.0248274    0.8824178   -0.8156852 
C     1.6830088    1.9776893   -1.7344266 
C     1.6297163    3.2928259   -1.3773032 
H     1.5154602    1.6938493   -2.7798009 
Pd    0.3581675   -0.1343342    0.0020115 
P    -1.5947696    0.3296716   -1.3685928 
P     1.2731906   -0.4745145    2.1550003 
H     2.5447200    1.2848934    0.0635941 
H     1.7857554    3.5427770   -0.3191237 
C     4.5543047   -2.1242754   -2.6897844 
C     3.1723291   -2.3454477   -2.6149283 
C     2.3368799   -1.3929940   -2.0122836 
C     2.8631349   -0.2049172   -1.4641649 
C     4.2579419    0.0042616   -1.5525514 
C     5.0941138   -0.9430761   -2.1575851 
H     5.2078693   -2.8661537   -3.1600528 
H     2.7384019   -3.2647552   -3.0220433 
H     1.2609081   -1.5883100   -1.9376408 
H     4.6879886    0.9277789   -1.1480983 
H     6.1718136   -0.7567220   -2.2147041 
C     0.6410815    6.6639267   -3.8470120 
C     1.0358364    5.4564708   -4.4490393 
C     1.3769428    4.3534065   -3.6619028 
C     1.3261706    4.4282919   -2.2467865 
C     0.9467345    5.6601071   -1.6579654 
C     0.6015134    6.7623376   -2.4476173 
H     0.3784212    7.5269559   -4.4674270 
H     1.0893369    5.3819018   -5.5403289 
H     1.7090825    3.4292288   -4.1462503 
H     0.9145964    5.7407888   -0.5651239 
H     0.3055198    7.7028872   -1.9714567 
O    -1.0459802   -1.8218873    0.7024876 
C    -2.4504345   -4.1531562    1.4241374 
C    -2.5705932    1.7244664   -0.4601293 
C    -1.6123301    0.5629448   -3.2842787 
C     2.8421522   -1.5704673    2.3361308 
C     1.3342613    1.1058262    3.2574959 
C    -3.0340769   -3.1726332    0.4071702 
C    -1.7436515   -3.3081803    2.4843852 
C    -2.6479120   -1.1532873   -0.9801324 
C    -0.0377368   -1.5625468    2.8805510 
C    -2.2573627   -2.0626579    0.0258510 
C    -0.9496095   -2.2338520    2.0423588 
C    -1.3674713   -5.0176531    0.7050785 
C    -3.5147225   -5.0854091    2.0267124 
C    -1.6118665    2.9169039   -0.2507340 
C    -2.9605728    1.1430170    0.9199165 
C    -3.8502164    2.1777213   -1.1870634 
C    -0.5110513   -0.3865791   -3.8051699 
C    -1.2375414    2.0294151   -3.5911215 
C    -2.9170681    0.2344266   -4.0409442 
C     2.6467853   -2.7043858    1.3037850 
C     3.0502722   -2.2120573    3.7231630 
C     4.0708677   -0.7148628    1.9632835 
C     2.0018316    2.2277672    2.4314657 
C     2.0952686    0.9557526    4.5911314 
C    -0.1284096    1.5187980    3.5290777 
C    -4.2867878   -3.3371017   -0.2044448 
C    -1.7487719   -3.5916147    3.8590789 
C    -3.9255391   -1.3547540   -1.5476967 
C    -0.0727854   -1.8891213    4.2540366 
C    -4.7365964   -2.4273045   -1.1662001 
C    -0.9461980   -2.8628567    4.7460944 
H    -0.5833938   -4.3839327    0.2563532 
H    -1.8337755   -5.6137032   -0.0978597 
H    -0.8903921   -5.7023822    1.4271051 
H    -3.9782025   -5.7022959    1.2398302 
H    -4.3077227   -4.5213023    2.5461942 
H    -3.0521689   -5.7845200    2.7423678 
H    -0.6940405    2.5922777    0.2702504 
H    -1.3126162    3.3958792   -1.1954772 
H    -2.1153345    3.6810912    0.3694973 
H    -2.0986878    0.6693597    1.4229649 
H    -3.3191108    1.9643642    1.5662261 
H    -3.7656064    0.3944961    0.8400694 
H    -3.6401354    2.6497108   -2.1594668 
H    -4.5570283    1.3449974   -1.3376570 
H    -4.3628792    2.9305079   -0.5597777 
H     0.4849649   -0.1080929   -3.4302330 
H    -0.7104562   -1.4343986   -3.5162153 
H    -0.4843625   -0.3415939   -4.9093559 
H    -2.0905497    2.7114644   -3.4477257 
H    -0.4059138    2.3926024   -2.9742438 
H    -0.9294908    2.1051296   -4.6494253 
H    -3.7848056    0.8061131   -3.6744750 
H    -3.1515798   -0.8411989   -4.0237175 
H    -2.7646925    0.5181430   -5.0987186 
H     3.5244025   -3.3752457    1.3380410 
H     1.7520206   -3.3095294    1.5362087 
H     2.5553337   -2.3164223    0.2779653 
H     2.2427720   -2.9180532    3.9747554 
H     3.1480650   -1.4763065    4.5348932 
H     3.9921309   -2.7903706    3.6885931 
H     3.9486483   -0.2252211    0.9856268 
H     4.2895132    0.0510246    2.7259752 
H     4.9559209   -1.3724858    1.8897414 
H     3.0355626    1.9827091    2.1354210 
H     1.4158991    2.4456061    1.5242378 
H     2.0398077    3.1475748    3.0429017 
H     3.1607307    0.7201634    4.4410999 
H     1.6565480    0.1955156    5.2559903 
H     2.0441060    1.9215301    5.1266778 
H    -0.6902228    1.6288574    2.5869000 
H    -0.6602349    0.7958168    4.1683044 
H    -0.1330974    2.4981439    4.0413855 
H    -4.9194816   -4.1827267    0.0751228 
H    -2.3762336   -4.3998054    4.2426496 
H    -4.3065034   -0.6515098   -2.2850567 
H     0.5980387   -1.3773586    4.9460387 
H    -5.7225068   -2.5527769   -1.6237316 
H    -0.9703904   -3.0834845    5.8173460 
