101
Energy =
C     1.4996378   -1.8460511    2.0588874 
C     2.1620573   -2.0732651    0.8123604 
C     2.9274129   -1.0503925    0.2060273 
H     1.9395182   -2.9868494    0.2467058 
Pd    0.7611572   -0.4033127    0.5185873 
P     0.2085482    0.7633567   -1.4027801 
P    -1.2028071    0.4121055    1.4428294 
H     1.9827602   -1.1574912    2.7657532 
H     3.2709624   -0.2357629    0.8624112 
C    -1.3359886   -4.5580209    3.8424240 
C    -0.5973137   -3.6700271    4.6389743 
C     0.3363656   -2.8059999    4.0517694 
C     0.5483038   -2.8047870    2.6543568 
C    -0.2060538   -3.7057318    1.8640513 
C    -1.1314429   -4.5746217    2.4523699 
H    -2.0656214   -5.2335326    4.3001544 
H    -0.7429203   -3.6550217    5.7241581 
H     0.9201281   -2.1267358    4.6832655 
H    -0.0910917   -3.7035488    0.7748963 
H    -1.7071812   -5.2603126    1.8219961 
C     4.9404989   -1.0857688   -3.5972440 
C     5.0249716    0.0265424   -2.7462454 
C     4.3794078    0.0074100   -1.5037034 
C     3.6252982   -1.1159386   -1.0884546 
C     3.5773047   -2.2409627   -1.9447452 
C     4.2247633   -2.2228549   -3.1846489 
H     5.4449967   -1.0765118   -4.5686726 
H     5.6008120    0.9079882   -3.0466829 
H     4.4625105    0.8708771   -0.8336640 
H     3.0406951   -3.1440704   -1.6374509 
H     4.1765543   -3.1040005   -3.8326817 
C    -1.0811533    1.5463787    2.9462155 
C    -2.3617873   -0.8219731    2.3096085 
C     0.0631565   -0.1784922   -3.0498518 
C     1.4533752    1.9969613   -2.0798613 
C    -1.2680925    0.5545993    4.1072604 
C    -2.4994570   -0.2919373    3.7605326 
C     1.0864375    0.5058153   -3.9938038 
C     1.2373837    1.9832250   -3.6043532 
C    -2.0715039    1.3849840    0.1393451 
C    -1.4630477    1.5139362   -1.1360678 
C     0.0985274    2.5379880    3.0395822 
C    -3.6959723   -1.1962098    1.6215014 
C     0.2350887   -1.7107656   -2.9250356 
C     1.6770636    3.3472906   -1.3606422 
C     1.4852674    1.8787012    3.0166240 
C    -0.0242648    3.6219925    1.9584262 
C    -4.4674084   -2.2109716    2.4908614 
C    -3.4793724   -1.7616667    0.2111715 
C     0.2678566   -2.3822520   -4.3104115 
C    -0.8453515   -2.3408750   -2.0382145 
C     0.5539885    4.3757795   -1.5701805 
C     3.0391263    3.9415388   -1.7744323 
C    -3.3194900    1.9942619    0.3809327 
C    -2.1473517    2.2083873   -2.1553064 
C    -3.9785142    2.6951182   -0.6364542 
C    -3.3962248    2.7920785   -1.9096141 
H    -2.0087625    2.1502827    2.8787810 
H    -1.7363757   -1.7332360    2.3345140 
H    -0.9640131    0.0355990   -3.4042130 
H     2.3681701    1.3940243   -1.9026542 
H    -0.3785193   -0.0933398    4.2096487 
H    -1.3935509    1.0955086    5.0619463 
H    -3.4075506    0.3363683    3.8392873 
H    -2.6192158   -1.1369501    4.4585800 
H     2.0669576    0.0052454   -3.8832264 
H     0.7745649    0.3880008   -5.0451866 
H     0.3401969    2.5641964   -3.8867681 
H     2.0944932    2.4459858   -4.1242010 
H    -0.0184793    3.0289546    4.0268114 
H    -4.3163090   -0.2826666    1.5399615 
H     1.2164515   -1.8797900   -2.4442607 
H     1.7388548    3.1179312   -0.2794139 
H     1.5955576    1.1135623    3.8043508 
H     2.2754009    2.6341188    3.1664883 
H     1.6656434    1.3889679    2.0364249 
H     0.7892049    4.3631961    2.0382689 
H    -0.9867350    4.1580482    2.0287805 
H     0.0284014    3.1692338    0.9537268 
H    -4.7408018   -1.7949416    3.4747983 
H    -5.4006470   -2.5128325    1.9848509 
H    -3.8587397   -3.1180395    2.6590348 
H    -2.8494782   -2.6683702    0.2492834 
H    -4.4427816   -2.0363911   -0.2515441 
H    -2.9886121   -1.0299514   -0.4519784 
H    -0.6624128   -2.1781481   -4.8722641 
H     0.3599798   -3.4769739   -4.2010460 
H     1.1202929   -2.0360831   -4.9186183 
H    -0.8223975   -1.9053208   -1.0211243 
H    -0.6895504   -3.4296413   -1.9396603 
H    -1.8553801   -2.1808184   -2.4568013 
H     0.7785671    5.3003361   -1.0109509 
H    -0.4232116    4.0047715   -1.2227012 
H     0.4566815    4.6489351   -2.6361806 
H     3.0472457    4.2240540   -2.8422293 
H     3.2557877    4.8518679   -1.1893302 
H     3.8626151    3.2249369   -1.6065879 
H    -3.7842277    1.9195597    1.3695998 
H    -1.6984619    2.3085381   -3.1480394 
H    -4.9493241    3.1602327   -0.4379706 
H    -3.9120531    3.3304378   -2.7110231 
