101
Energy =
C     1.8022174   -1.2247525    2.1751309 
C     2.3920014   -1.6423016    0.9442230 
C     3.0153880   -0.7084243    0.0836151 
H     2.2158326   -2.6665590    0.5919306 
Pd    0.8287399   -0.1690670    0.4689368 
P     0.0592155    0.8097350   -1.4889502 
P    -1.2009738    0.4897056    1.3674268 
H     2.2664862   -0.3661918    2.6822670 
H     3.3456130    0.2398752    0.5355216 
C    -0.5303756   -3.7943459    4.7351027 
C     0.2494314   -2.7622203    5.2789543 
C     1.0112558   -1.9370646    4.4412378 
C     1.0110643   -2.1253986    3.0407751 
C     0.2264090   -3.1762771    2.5082911 
C    -0.5337755   -4.0009166    3.3458100 
H    -1.1281831   -4.4371608    5.3891104 
H     0.2684221   -2.6009425    6.3617851 
H     1.6249137   -1.1412548    4.8777042 
H     0.1960023   -3.3358231    1.4242809 
H    -1.1387837   -4.8038209    2.9115635 
C     4.7503448   -1.4487572   -3.7866213 
C     4.8823996   -0.1979045   -3.1654723 
C     4.3264178    0.0176664   -1.8982407 
C     3.6156815   -1.0056929   -1.2275864 
C     3.5130671   -2.2681374   -1.8582582 
C     4.0719475   -2.4845667   -3.1216962 
H     5.1858975   -1.6223818   -4.7757745 
H     5.4261260    0.6105775   -3.6651397 
H     4.4459531    0.9921566   -1.4118768 
H     2.9891500   -3.0897144   -1.3606768 
H     3.9807305   -3.4691146   -3.5919703 
C    -1.4082820    1.1383759    3.1279545 
C    -2.4036474   -0.9316670    1.5789646 
C    -0.6258317   -0.3228119   -2.8304996 
C     1.2333235    1.6742975   -2.6647184 
C    -2.2295751    0.0339311    3.8408125 
C    -3.2243849   -0.5594270    2.8291660 
C    -0.6268539    0.6101742   -4.0609220 
C     0.6875522    1.4247592   -4.1065888 
C    -1.9123728    1.7758700    0.2476753 
C    -1.3285364    1.9412942   -1.0357479 
C    -0.0881432    1.5645469    3.8067227 
C    -3.1316247   -1.4325157    0.3041952 
C     0.2513829   -1.6067798   -2.9328468 
C     1.6214073    3.1338573   -2.3213770 
C     0.6093444    2.6796591    3.0116169 
C    -0.3261877    1.9874699    5.2676019 
C    -4.4284808   -0.6728588   -0.0197477 
C    -3.3940913   -2.9466956    0.4121051 
C     0.1641025   -2.2837632   -4.3120171 
C    -0.1286952   -2.6055885   -1.8268682 
C     2.7919055    3.5913297   -3.2135261 
C     1.9685129    3.3065761   -0.8335291 
C    -2.9910884    2.5994909    0.6287094 
C    -1.8268002    2.9423980   -1.8952247 
C    -3.4800537    3.5850049   -0.2378694 
C    -2.8927768    3.7605089   -1.4989442 
H    -2.0426486    2.0399830    3.0269701 
H    -1.6990360   -1.7280781    1.8908674 
H    -1.6609310   -0.6057166   -2.5661576 
H     2.1440175    1.0594821   -2.5276261 
H    -1.5476031   -0.7591604    4.1993755 
H    -2.7460850    0.4494462    4.7225571 
H    -4.0028973    0.1847383    2.5774645 
H    -3.7410623   -1.4451972    3.2392066 
H    -0.7845867    0.0414385   -4.9922758 
H    -1.4903393    1.2916606   -3.9764782 
H     0.5186926    2.3854584   -4.6240026 
H     1.4527198    0.8835627   -4.6889092 
H     0.5727714    0.6790403    3.8136788 
H    -2.4316480   -1.2819396   -0.5407167 
H     1.3084526   -1.3159069   -2.7782467 
H     0.7523261    3.7828972   -2.5433897 
H     0.8293600    2.3532922    1.9772748 
H     1.5659091    2.9637495    3.4831875 
H    -0.0233953    3.5843789    2.9538580 
H     0.6196197    2.3182200    5.7307418 
H    -0.7244682    1.1573536    5.8751208 
H    -1.0406727    2.8294014    5.3248630 
H    -4.2639325    0.4132832   -0.1072485 
H    -4.8442107   -1.0276600   -0.9787438 
H    -5.1961035   -0.8437829    0.7557966 
H    -4.0530370   -3.1748621    1.2692952 
H    -3.8877398   -3.3255011   -0.4997677 
H    -2.4525086   -3.5072548    0.5488856 
H    -0.8797903   -2.5422400   -4.5679943 
H     0.7512694   -3.2184486   -4.3058505 
H     0.5708881   -1.6477146   -5.1159380 
H    -0.0733815   -2.1333172   -0.8247334 
H     0.5495811   -3.4759599   -1.8303619 
H    -1.1589837   -2.9788057   -1.9698478 
H     3.6916215    2.9788448   -3.0211506 
H     3.0473076    4.6449424   -3.0074705 
H     2.5501601    3.5072770   -4.2866880 
H     2.7933543    2.6330870   -0.5372407 
H     2.2852667    4.3422756   -0.6226146 
H     1.1023561    3.0846589   -0.1850892 
H    -3.4593154    2.4757934    1.6102740 
H    -1.3744344    3.1002025   -2.8777495 
H    -4.3147152    4.2200284    0.0754271 
H    -3.2608689    4.5386881   -2.1750530 
