101
Energy =
C     1.7462105   -1.3627951    2.1381481 
C     2.4087683   -1.7241923    0.9251073 
C     3.0589757   -0.7468147    0.1351274 
H     2.2681262   -2.7355544    0.5231223 
Pd    0.8586154   -0.2414533    0.4332825 
P     0.2142535    0.8244502   -1.5235986 
P    -1.1601148    0.4639758    1.3140208 
H     2.1724386   -0.5247440    2.7083115 
H     3.3602119    0.1829568    0.6430618 
C    -0.7094001   -4.0585373    4.4412128 
C    -0.0412214   -2.9932167    5.0630632 
C     0.7629468   -2.1287404    4.3084541 
C     0.9085951   -2.3020700    2.9135062 
C     0.2198572   -3.3754778    2.2989406 
C    -0.5690538   -4.2487254    3.0564659 
H    -1.3323593   -4.7388535    5.0305266 
H    -0.1355328   -2.8415658    6.1433985 
H     1.3004558   -1.3156138    4.8088028 
H     0.2837737   -3.5145208    1.2137667 
H    -1.0846038   -5.0790952    2.5628709 
C     4.9087624   -1.2481699   -3.7176610 
C     5.0600973   -0.0547860   -2.9963596 
C     4.4683001    0.0806745   -1.7339591 
C     3.7022132   -0.9675909   -1.1699065 
C     3.5796209   -2.1727147   -1.9004110 
C     4.1750258   -2.3089916   -3.1582889 
H     5.3713960   -1.3593125   -4.7034874 
H     5.6474725    0.7700551   -3.4128810 
H     4.6059186    1.0083008   -1.1663727 
H     3.0134383   -3.0113984   -1.4853075 
H     4.0694007   -3.2501329   -3.7077701 
C    -1.3261302    1.2967948    3.0093587 
C    -2.3751494   -0.9064165    1.7149554 
C    -0.2859209   -0.1698252   -3.0471360 
C     1.5157996    1.8356421   -2.4419617 
C    -2.3132001    0.3957605    3.8005258 
C    -3.2654546   -0.3145567    2.8238506 
C     0.9592657   -0.0710606   -3.9512639 
C     1.4006672    1.4017543   -3.9221267 
C    -1.8925295    1.6798492    0.1263279 
C    -1.2823754    1.8295102   -1.1445332 
C     0.0126379    1.5857896    3.7277986 
C    -3.0228461   -1.6955689    0.5524830 
C    -0.9280206   -1.5521847   -2.7920772 
C     1.5811453    3.3499796   -2.1477797 
C     0.9326346    2.4813470    2.8851128 
C    -0.2350645    2.2076355    5.1153427 
C    -4.0134119   -0.8956910   -0.3102546 
C    -3.6925228   -2.9721514    1.0998760 
C     0.0224274   -2.5697108   -2.1464099 
C    -1.5407310   -2.1108228   -4.0907122 
C     2.7548177    3.9930909   -2.9122440 
C     1.6973070    3.6181840   -0.6383824 
C    -3.0413637    2.4401053    0.4303262 
C    -1.8481355    2.7075484   -2.0917476 
C    -3.5846643    3.3213578   -0.5122021 
C    -2.9915846    3.4520838   -1.7774676 
H    -1.8091196    2.2683462    2.7914164 
H    -1.6791318   -1.6123712    2.2147826 
H    -1.0697541    0.4693969   -3.5000882 
H     2.4459894    1.3816999   -2.0500391 
H    -1.7341380   -0.3691174    4.3512397 
H    -2.8635626    0.9930759    4.5467447 
H    -4.0057788    0.3911781    2.4039570 
H    -3.8347777   -1.1101356    3.3351025 
H     1.7740374   -0.7139143   -3.5697476 
H     0.7273238   -0.4057540   -4.9769565 
H     0.6548227    2.0306759   -4.4462258 
H     2.3667145    1.5406955   -4.4363906 
H     0.5159314    0.6122392    3.8769744 
H    -2.1839214   -2.0179110   -0.0959823 
H    -1.7626661   -1.3745864   -2.0871413 
H     0.6452730    3.8187684   -2.5088785 
H     1.1708174    2.0061390    1.9139165 
H     1.8859160    2.6716895    3.4080145 
H     0.4586818    3.4579824    2.6768051 
H     0.7246467    2.4262107    5.6147715 
H    -0.8092826    1.5349632    5.7742452 
H    -0.7921638    3.1585362    5.0262183 
H    -3.5344221   -0.0478806   -0.8251454 
H    -4.4527361   -1.5514126   -1.0820885 
H    -4.8458330   -0.4974595    0.2969911 
H    -4.5854271   -2.7277145    1.7024245 
H    -4.0208499   -3.6208247    0.2693442 
H    -2.9995061   -3.5493578    1.7355692 
H     0.8526216   -2.8315893   -2.8242795 
H    -0.5173687   -3.4992594   -1.8955389 
H     0.4551136   -2.1636612   -1.2104417 
H    -2.2429196   -1.3910018   -4.5474610 
H    -2.0954372   -3.0427602   -3.8856929 
H    -0.7587346   -2.3454296   -4.8346966 
H     3.7143263    3.5259612   -2.6221813 
H     2.8195618    5.0703203   -2.6816035 
H     2.6420702    3.8905429   -4.0045598 
H     2.5896670    3.1186730   -0.2169120 
H     1.7865841    4.6988489   -0.4345088 
H     0.8124321    3.2483771   -0.0918448 
H    -3.5279637    2.3403649    1.4051340 
H    -1.3925829    2.8134912   -3.0819551 
H    -4.4769571    3.9033382   -0.2605932 
H    -3.4176820    4.1368368   -2.5175440 
