101
Energy =
C     1.4886119   -1.8572728    2.0579629 
C     2.1513947   -2.0847888    0.8116830 
C     2.9230845   -1.0645426    0.2089911 
H     1.9245959   -2.9956709    0.2433549 
Pd    0.7597306   -0.4067626    0.5200766 
P     0.2149160    0.7647891   -1.4004470 
P    -1.2011753    0.4170735    1.4428270 
H     1.9742208   -1.1729358    2.7672369 
H     3.2702768   -0.2535360    0.8679291 
C    -1.3640659   -4.5594150    3.8293519 
C    -1.1573045   -4.5731275    2.4395930 
C    -0.2262671   -3.7075725    1.8553141 
C     0.5311520   -2.8124642    2.6493321 
C     0.3167234   -2.8163910    4.0463659 
C    -0.6222846   -3.6773537    4.6295858 
H    -2.0982875   -5.2320928    4.2839116 
H    -1.7357113   -5.2538613    1.8062873 
H    -0.1089726   -3.7034437    0.7664205 
H     0.9030131   -2.1420559    4.6807921 
H    -0.7694348   -3.6648349    5.7145948 
C     4.9348526   -1.0976286   -3.5949821 
C     5.0253636    0.0113554   -2.7402661 
C     4.3804385   -0.0087544   -1.4973924 
C     3.6209172   -1.1297280   -1.0855234 
C     3.5671371   -2.2517217   -1.9454268 
C     4.2137002   -2.2325233   -3.1857890 
H     5.4393637   -1.0878546   -4.5663977 
H     5.6049393    0.8911710   -3.0383087 
H     4.4679442    0.8521527   -0.8246122 
H     3.0262729   -3.1532013   -1.6408424 
H     4.1604147   -3.1110886   -3.8369260 
C    -1.0728771    1.5485068    2.9476009 
C    -2.3662216   -0.8123599    2.3082751 
C     0.0656997   -0.1783355   -3.0465308 
C     1.4672914    1.9905659   -2.0782284 
C    -1.2613845    0.5553325    4.1071271 
C    -2.4964378   -0.2862926    3.7615082 
C     1.0964331    0.4965541   -3.9888258 
C     1.2537544    1.9742189   -3.6031045 
C    -2.0636103    1.3962769    0.1398108 
C    -1.4529755    1.5238639   -1.1347257 
C     0.1109147    2.5352355    3.0402018 
C    -3.7051993   -1.1757858    1.6235676 
C     0.2242193   -1.7117739   -2.9186223 
C     1.6975699    3.3415953   -1.3624272 
C     1.4947339    1.8697238    3.0197593 
C    -0.0056708    3.6173044    1.9565265 
C    -4.4798679   -2.1884903    2.4925264 
C    -3.4977436   -1.7384603    0.2107773 
C     0.2577937   -2.3860356   -4.3025836 
C    -0.8656857   -2.3306758   -2.0354961 
C     0.5776734    4.3737615   -1.5707693 
C     3.0605558    3.9301276   -1.7814780 
C    -3.3092525    2.0107331    0.3803779 
C    -2.1327315    2.2225286   -2.1541011 
C    -3.9638725    2.7154192   -0.6372117 
C    -3.3793043    2.8115203   -1.9094071 
H    -1.9982509    2.1561413    2.8826287 
H    -1.7468002   -1.7278199    2.3281399 
H    -0.9587927    0.0439260   -3.4036572 
H     2.3786060    1.3832137   -1.8982683 
H    -0.3738207   -0.0958498    4.2064790 
H    -1.3829653    1.0947334    5.0631720 
H    -3.4021558    0.3447665    3.8452615 
H    -2.6166227   -1.1330852    4.4572894 
H     2.0736930   -0.0091453   -3.8731430 
H     0.7876499    0.3772804   -5.0409612 
H     0.3598625    2.5587192   -3.8887432 
H     2.1141229    2.4314552   -4.1224253 
H    -0.0050063    3.0287243    4.0263133 
H    -4.3199558   -0.2580275    1.5473336 
H     1.2018427   -1.8883304   -2.4328871 
H     1.7617432    3.1141943   -0.2809139 
H     1.6018418    1.1069133    3.8101712 
H     2.2882187    2.6221867    3.1667792 
H     1.6728261    1.3757469    2.0412443 
H     0.8081812    4.3578164    2.0388099 
H    -0.9679545    4.1544548    2.0209570 
H     0.0515534    3.1623847    0.9530366 
H    -4.7459997   -1.7745541    3.4793284 
H    -5.4174269   -2.4818879    1.9895331 
H    -3.8767262   -3.1003854    2.6544140 
H    -2.8742770   -2.6498062    0.2439555 
H    -4.4648652   -2.0050202   -0.2489695 
H    -3.0043137   -1.0084553   -0.4522407 
H    -0.6674764   -2.1740662   -4.8697600 
H     0.3388225   -3.4813998   -4.1908245 
H     1.1167347   -2.0490696   -4.9068126 
H    -0.8431243   -1.8935853   -1.0190885 
H    -0.7203108   -3.4206486   -1.9343336 
H    -1.8723982   -2.1621511   -2.4587392 
H    -0.3988541    4.0091200   -1.2148278 
H     0.4746442    4.6412244   -2.6376774 
H     0.8098904    5.3005619   -1.0183882 
H     3.0649899    4.2148601   -2.8487001 
H     3.2843103    4.8381826   -1.1955098 
H     3.8814038    3.2092325   -1.6190546 
H    -3.7755564    1.9372379    1.3683838 
H    -1.6817987    2.3220605   -3.1459761 
H    -4.9332328    3.1839796   -0.4397314 
H    -3.8916167    3.3531937   -2.7108412 
