101
Energy =
C     1.7220399   -1.5208566    2.0703337 
C     2.3434924   -1.8649781    0.8305186 
C     3.0354289   -0.8799757    0.0831663 
H     2.1366405   -2.8437361    0.3793081 
Pd    0.8769360   -0.2882820    0.4206579 
P     0.2570957    0.7688794   -1.5468102 
P    -1.1310883    0.4556291    1.3201432 
H     2.2074255   -0.7329557    2.6643291 
H     3.3828750    0.0057269    0.6383551 
C    -0.9001772   -4.1021484    4.3167748 
C    -0.8028300   -4.2462442    2.9228633 
C     0.0495979   -3.4171279    2.1849815 
C     0.8339969   -2.4286892    2.8257668 
C     0.7301306   -2.3009127    4.2292426 
C    -0.1288836   -3.1267085    4.9664688 
H    -1.5708040   -4.7484965    4.8919007 
H    -1.4040751   -5.0019483    2.4068740 
H     0.0877200   -3.5186183    1.0944964 
H     1.3400938   -1.5531130    4.7482876 
H    -0.1901080   -3.0127308    6.0538030 
C     4.8786473   -1.2564562   -3.7899025 
C     4.9858299   -0.0675618   -3.0522173 
C     4.3940559    0.0275319   -1.7865400 
C     3.6727941   -1.0573209   -1.2336295 
C     3.5981505   -2.2575962   -1.9786210 
C     4.1915115   -2.3530385   -3.2421289 
H     5.3416223   -1.3357017   -4.7786077 
H     5.5387729    0.7849851   -3.4598936 
H     4.4959072    0.9522646   -1.2067085 
H     3.0818491   -3.1301885   -1.5663361 
H     4.1228742   -3.2913268   -3.8020780 
C    -1.1832367    1.2567190    3.0376695 
C    -2.4753216   -0.8119864    1.6896832 
C     0.0561709   -0.3150460   -3.0920880 
C     1.3963566    2.0299806   -2.3797335 
C    -2.1164141    0.3275143    3.8596176 
C    -3.1914554   -0.2550334    2.9365173 
C     1.1260163    0.2292699   -4.0699395 
C     1.2544242    1.7440851   -3.8893759 
C    -1.8608172    1.6342087    0.0981040 
C    -1.3456922    1.6292563   -1.2251998 
C     0.1935021    1.4977751    3.7038263 
C    -3.3565662   -1.2761197    0.4877549 
C     0.1735031   -1.8366201   -2.8294621 
C     1.2531505    3.5071829   -1.9516492 
C     1.1245020    2.3617179    2.8446668 
C     0.0185307    2.1139696    5.1055165 
C    -4.7322881   -0.5912152    0.4098588 
C    -3.5227052   -2.8066244    0.5232791 
C     0.1894541   -2.6288012   -4.1501434 
C    -0.9212263   -2.3616369   -1.8946663 
C     2.2940521    4.3826696   -2.6772546 
C     1.3694136    3.6706191   -0.4303543 
C    -2.9664027    2.4524715    0.4046349 
C    -1.9972732    2.3811332   -2.2240642 
C    -3.5812103    3.2247705   -0.5896985 
C    -3.1113874    3.1704816   -1.9102925 
H    -1.6751306    2.2374374    2.8843598 
H    -1.8633847   -1.6738528    2.0205979 
H    -0.9556299   -0.0860628   -3.4822277 
H     2.3963282    1.6721271   -2.0642985 
H    -1.5128488   -0.4948270    4.2876801 
H    -2.5651032    0.8810153    4.7014640 
H    -3.9107859    0.5331019    2.6502577 
H    -3.7703244   -1.0502283    3.4394133 
H     2.0968872   -0.2499356   -3.8423237 
H     0.8673943   -0.0330997   -5.1094685 
H     0.3631433    2.2634989   -4.2914817 
H     2.1273447    2.1337743   -4.4406844 
H     0.6634573    0.5039386    3.8279566 
H    -2.8180234   -1.0189552   -0.4420054 
H     1.1485509   -1.9929979   -2.3306858 
H     0.2467960    3.8539587   -2.2573365 
H     1.3253152    1.8771166    1.8697760 
H     2.0946849    2.5157294    3.3481685 
H     0.6834739    3.3552308    2.6462481 
H     1.0036480    2.2973149    5.5682566 
H    -0.5501149    1.4543067    5.7818117 
H    -0.5103990    3.0831019    5.0458382 
H    -4.6509615    0.5064486    0.3593831 
H    -5.2605664   -0.9260955   -0.4995335 
H    -5.3655923   -0.8531597    1.2757116 
H    -4.0276929   -3.1255570    1.4534409 
H    -4.1315687   -3.1563047   -0.3285314 
H    -2.5459346   -3.3170460    0.4777954 
H    -0.7261537   -2.4369882   -4.7397147 
H     0.2337535   -3.7123522   -3.9432324 
H     1.0617066   -2.3743592   -4.7749608 
H    -0.8730685   -1.8544006   -0.9125887 
H    -0.7993667   -3.4441850   -1.7157308 
H    -1.9288831   -2.2020568   -2.3194052 
H     3.3214112    4.0428163   -2.4488980 
H     2.2057318    5.4323758   -2.3483345 
H     2.1627302    4.3641783   -3.7719926 
H     2.3351677    3.2781561   -0.0616911 
H     1.3029380    4.7331638   -0.1401814 
H     0.5621452    3.1316622    0.0926843 
H    -3.3619589    2.4838357    1.4249112 
H    -1.6239594    2.3653765   -3.2530584 
H    -4.4374200    3.8575447   -0.3354547 
H    -3.6023380    3.7562079   -2.6939401 
