101
Energy =
C     1.6916813   -1.4340228    2.1493596 
C     2.3211526   -1.8216995    0.9281653 
C     2.9527021   -0.8567991    0.1064915 
H     2.1772002   -2.8419360    0.5507451 
Pd    0.7530717   -0.3563999    0.4326383 
P     0.1206732    0.7534524   -1.5089613 
P    -1.2312973    0.3914725    1.3705946 
H     2.1239552   -0.5703240    2.6745918 
H     3.2571212    0.0830483    0.5933528 
C    -0.6976130   -4.0265211    4.6319694 
C    -0.0315936   -2.9225642    5.1852028 
C     0.7558567   -2.0955898    4.3734116 
C     0.8882227   -2.3469251    2.9886915 
C     0.2174664   -3.4685289    2.4483008 
C    -0.5623913   -4.2992365    3.2605500 
H    -1.3111678   -4.6753373    5.2651536 
H    -0.1169087   -2.7093933    6.2558760 
H     1.2891318   -1.2495908    4.8209474 
H     0.2880478   -3.6785317    1.3758966 
H    -1.0741905   -5.1617640    2.8206965 
C     4.8010127   -1.4312569   -3.7372456 
C     4.9378993   -0.2178639   -3.0463623 
C     4.3457597   -0.0583953   -1.7874628 
C     3.5920773   -1.1011691   -1.1965582 
C     3.4883581   -2.3272116   -1.8940449 
C     4.0838469   -2.4874374   -3.1492328 
H     5.2637535   -1.5611997   -4.7207161 
H     5.5158772    0.6027648   -3.4838111 
H     4.4749319    0.8839675   -1.2427078 
H     2.9372451   -3.1643741   -1.4559659 
H     3.9913355   -3.4442356   -3.6734132 
C    -1.2590892    1.3270889    3.0298151 
C    -2.5091673   -0.8839995    1.9238181 
C    -0.2770952   -0.1634699   -3.1089474 
C     1.4192768    1.8738011   -2.3206645 
C    -2.2514674    0.5379480    3.9246245 
C    -3.2886224   -0.1736988    3.0466656 
C     1.0202747   -0.0053507   -3.9253080 
C     1.4250426    1.4711219   -3.8154581 
C    -1.9819323    1.5892340    0.1708135 
C    -1.4067765    1.7098750   -1.1200967 
C     0.1217493    1.5721739    3.6829914 
C    -3.3493592   -1.6763034    0.8915187 
C    -0.8977067   -1.5713258   -2.9743736 
C     1.3535035    3.3896257   -2.0277815 
C     1.0669363    2.3643586    2.7711991 
C    -0.0361428    2.2790289    5.0434558 
C    -2.4855782   -2.7308095    0.1817216 
C    -4.1410723   -0.8238610   -0.1135588 
C     0.0785046   -2.6150946   -2.4152435 
C    -1.4903092   -2.0325114   -4.3199473 
C     2.5108389    4.1209790   -2.7369572 
C     1.3733318    3.6769583   -0.5198615 
C    -3.1111312    2.3704503    0.4925290 
C    -2.0000699    2.5662444   -2.0702276 
C    -3.6811765    3.2306896   -0.4538242 
C    -3.1326995    3.3211898   -1.7418228 
H    -1.6939151    2.3121167    2.7736411 
H    -1.8352895   -1.6150152    2.4191621 
H    -1.0433603    0.4876377   -3.5747001 
H     2.3518009    1.4852559   -1.8704877 
H    -1.6862958   -0.2234818    4.4943055 
H    -2.7272542    1.2114913    4.6570981 
H    -4.0190158    0.5423523    2.6269234 
H    -3.8680456   -0.9128676    3.6285079 
H     1.8212669   -0.6469758   -3.5141713 
H     0.8636715   -0.3074922   -4.9752385 
H     0.7049704    2.1005960   -4.3737025 
H     2.4226375    1.6468039   -4.2523761 
H     0.5688692    0.5786058    3.8686899 
H    -4.0916554   -2.2208146    1.5089948 
H    -1.7404686   -1.4731817   -2.2643262 
H     0.4039858    3.7819753   -2.4406977 
H     1.2273688    1.8372749    1.8108096 
H     2.0528430    2.5016142    3.2485636 
H     0.6580706    3.3653718    2.5437359 
H     0.9541900    2.4697772    5.4919997 
H    -0.6169693    1.6763058    5.7614353 
H    -0.5440812    3.2537588    4.9233794 
H    -2.1451814   -3.5029789    0.8901097 
H    -3.0454864   -3.2294957   -0.6279791 
H    -1.5869091   -2.2644941   -0.2586338 
H    -3.4775053   -0.3449123   -0.8542334 
H    -4.8509666   -1.4633640   -0.6658651 
H    -4.7229762   -0.0271538    0.3801950 
H     0.8997753   -2.8140464   -3.1241626 
H    -0.4412237   -3.5684665   -2.2199647 
H     0.5256880   -2.2694347   -1.4630491 
H    -2.2162413   -1.2990516   -4.7134813 
H    -2.0134417   -2.9969881   -4.1997744 
H    -0.7009634   -2.1745461   -5.0796247 
H     3.4881034    3.7299358   -2.3974281 
H     2.4805237    5.1996042   -2.5054793 
H     2.4615774    4.0128283   -3.8333214 
H     2.2848782    3.2618257   -0.0516889 
H     1.3584535    4.7629552   -0.3249587 
H     0.4990184    3.2355934   -0.0126367 
H    -3.5621340    2.3054242    1.4870534 
H    -1.5716503    2.6515169   -3.0745689 
H    -4.5595112    3.8267880   -0.1865435 
H    -3.5804316    3.9866110   -2.4867440 
