101
Energy =
C     1.5215610   -1.7401667    1.9898817 
C     2.2024576   -2.0357761    0.7665276 
C     2.9710665   -1.0329504    0.1299658 
H     1.9843991   -2.9706735    0.2351062 
Pd    0.8040249   -0.3818650    0.3952054 
P     0.2192753    0.7509934   -1.5547607 
P    -1.1388871    0.4469484    1.3675957 
H     2.0109665   -1.0224879    2.6632047 
H     3.2933165   -0.1859265    0.7557362 
C    -1.4824356   -4.1830171    3.8842217 
C    -1.2080030   -4.3489887    2.5159637 
C    -0.2211283   -3.5767481    1.8935561 
C     0.5228337   -2.6227267    2.6274119 
C     0.2446230   -2.4765236    4.0055074 
C    -0.7492265   -3.2449480    4.6265652 
H    -2.2594893   -4.7838548    4.3673254 
H    -1.7753590   -5.0780342    1.9281092 
H    -0.0470896   -3.6958107    0.8193063 
H     0.8197368   -1.7544905    4.5960811 
H    -0.9466046   -3.1152448    5.6958137 
C     5.0177252   -1.2283754   -3.6494066 
C     4.9719981   -0.0325620   -2.9151960 
C     4.3198587    0.0044760   -1.6773088 
C     3.6870336   -1.1466884   -1.1523423 
C     3.7663622   -2.3503243   -1.8903745 
C     4.4222658   -2.3878328   -3.1259804 
H     5.5303400   -1.2620687   -4.6160557 
H     5.4529379    0.8705410   -3.3050032 
H     4.2949273    0.9368600   -1.1013091 
H     3.3190389   -3.2680081   -1.4952922 
H     4.4744837   -3.3291833   -3.6825255 
C    -0.9222717    1.4516944    2.9769001 
C    -2.5366824   -0.6435910    2.0482629 
C     0.1434165   -0.2722627   -3.1625067 
C     1.2305313    2.1708840   -2.3194843 
C    -1.8964690    0.7905761    3.9888760 
C    -3.0727962    0.1398184    3.2647455 
C     1.1112312    0.4601172   -4.1260178 
C     1.0966240    1.9608450   -3.8421698 
C    -1.9438891    1.5225706    0.0932289 
C    -1.4509714    1.4860335   -1.2398419 
C     0.5188121    1.5170087    3.5534610 
C    -3.6426841   -1.0990949    1.0675064 
C     0.5041890   -1.7730316   -3.0156310 
C     0.9138514    3.6072249   -1.8421403 
C     1.5495787    2.1441965    2.6108219 
C     0.5281344    2.2659699    4.9028883 
C    -4.6305743   -2.0441023    1.7822927 
C    -3.0760947   -1.7701752   -0.1856894 
C     0.5651227   -2.4608223   -4.3939693 
C    -0.4296298   -2.5441632   -2.0804616 
C     1.8194005    4.6296729   -2.5583615 
C     1.0406103    3.7514595   -0.3227580 
C    -3.1074961    2.2653955    0.3771574 
C    -2.1793244    2.1286344   -2.2609683 
C    -3.8045886    2.9244324   -0.6443319 
C    -3.3536892    2.8352551   -1.9688841 
H    -1.2608006    2.4754662    2.7240405 
H    -1.9897589   -1.5369923    2.4094154 
H    -0.8996133   -0.1754803   -3.5237352 
H     2.2669636    1.9164583   -2.0215813 
H    -1.3421834    0.0061139    4.5368431 
H    -2.2396374    1.5279316    4.7336787 
H    -3.7997056    0.9016489    2.9250563 
H    -3.6198667   -0.5356036    3.9441890 
H     2.1331725    0.0686248   -3.9607694 
H     0.8456319    0.2465520   -5.1748652 
H     0.1547061    2.4193934   -4.1995230 
H     1.9178890    2.4693345   -4.3758139 
H     0.8218832    0.4698353    3.7476431 
H    -4.2009658   -0.1959899    0.7513964 
H     1.5197256   -1.8055965   -2.5817951 
H    -0.1339481    3.8291498   -2.1228262 
H     1.5720649    1.6230637    1.6325036 
H     2.5613536    2.0828933    3.0484585 
H     1.3242981    3.2083552    2.4263663 
H     1.5584374    2.3302180    5.2931571 
H    -0.0865271    1.7661731    5.6692006 
H     0.1509643    3.2978586    4.7790810 
H    -5.1498926   -1.5518099    2.6210861 
H    -5.4009761   -2.3941938    1.0737890 
H    -4.1019695   -2.9310870    2.1774326 
H    -2.4698288   -2.6524194    0.0830031 
H    -3.8876235   -2.1035623   -0.8552924 
H    -2.4387345   -1.0752051   -0.7560142 
H    -0.4031169   -2.3783045   -4.9217731 
H     0.7884360   -3.5347337   -4.2695869 
H     1.3489023   -2.0343357   -5.0412622 
H    -0.4322176   -2.0929672   -1.0702036 
H    -0.0976267   -3.5929122   -1.9803056 
H    -1.4675071   -2.5536677   -2.4571096 
H     2.8867738    4.4124330   -2.3672944 
H     1.6114389    5.6471835   -2.1849918 
H     1.6607342    4.6373805   -3.6493781 
H     2.0651772    3.5079840    0.0111507 
H     0.8161540    4.7838655   -0.0039700 
H     0.3419782    3.0799456    0.2029916 
H    -3.4834945    2.3238039    1.4030442 
H    -1.8232020    2.0899662   -3.2952094 
H    -4.7080197    3.4949826   -0.4065961 
H    -3.9068185    3.3291575   -2.7740855 
