101
Energy =
C     1.6447073   -1.5266620    2.0907993 
C     2.2221968   -1.9752276    0.8645641 
C     2.9005057   -1.0776037    0.0075936 
H     1.9875457   -2.9846623    0.5048089 
Pd    0.7531853   -0.4079997    0.3925084 
P     0.1220722    0.7259778   -1.5409266 
P    -1.1821345    0.4076621    1.3765909 
H     2.1516515   -0.6983328    2.6066231 
H     3.2814862   -0.1462427    0.4551864 
C    -0.9129268   -3.9131383    4.6099746 
C    -0.1525519   -2.8654902    5.1508825 
C     0.6864001   -2.1039612    4.3261091 
C     0.7811014   -2.3709186    2.9421134 
C     0.0087914   -3.4316902    2.4113569 
C    -0.8239925   -4.1957000    3.2364962 
H    -1.5681161   -4.5087154    5.2536094 
H    -0.2077473   -2.6433937    6.2216776 
H     1.2847140   -1.2946182    4.7595288 
H     0.0392757   -3.6428686    1.3367354 
H    -1.4153743   -5.0098581    2.8046179 
C     4.5385529   -1.9341339   -3.8785408 
C     4.6612318   -0.6558141   -3.3121752 
C     4.1459447   -0.4033417   -2.0350820 
C     3.4773167   -1.4142575   -1.3050745 
C     3.3888662   -2.7045198   -1.8774148 
C     3.9136768   -2.9593181   -3.1485946 
H     4.9433281   -2.1366059   -4.8752067 
H     5.1701558    0.1428331   -3.8618192 
H     4.2655675    0.5895790   -1.5863925 
H     2.9021247   -3.5177320   -1.3307308 
H     3.8349674   -3.9645956   -3.5750423 
C    -1.1237188    1.4165076    2.9826944 
C    -2.4610585   -0.8288331    2.0096847 
C    -0.0870575   -0.0369345   -3.2670613 
C     1.3214396    2.0326142   -2.1513958 
C    -1.9297151    0.5708889    3.9982596 
C    -3.0590642   -0.1624476    3.2669770 
C     0.5629803    0.9892214   -4.2544530 
C     0.8446655    2.3444287   -3.5788076 
C    -2.0361312    1.4604724    0.1236853 
C    -1.5216882    1.5120139   -1.1978833 
C     0.2935459    1.8117500    3.4582031 
C    -3.4772235   -1.3600804    0.9748320 
C     0.5059323   -1.4598350   -3.4399893 
C     1.6984236    3.2061016   -1.2196888 
C     1.0286507    2.6518270    2.4068986 
C     0.2380319    2.5504287    4.8088594 
C    -4.4194703   -2.3914374    1.6267481 
C    -2.7740525   -1.9670547   -0.2470245 
C     0.2980459   -1.9556154   -4.8852087 
C    -0.0646796   -2.4882919   -2.4547774 
C     0.5503452    4.1893251   -0.9379853 
C     2.9324278    3.9458247   -1.7748107 
C    -3.2364372    2.1337819    0.4295175 
C    -2.2670544    2.1759013   -2.1951992 
C    -3.9417727    2.8262068   -0.5625326 
C    -3.4648639    2.8299330   -1.8810656 
H    -1.6834821    2.3434854    2.7488582 
H    -1.8258130   -1.6750737    2.3386074 
H    -1.1811895   -0.0916107   -3.4195682 
H     2.2245311    1.3944561   -2.2484767 
H    -1.2559453   -0.1731395    4.4611634 
H    -2.3208938    1.2102149    4.8076101 
H    -3.8604687    0.5434875    2.9755776 
H    -3.5240540   -0.9198143    3.9208009 
H     1.5306407    0.5683115   -4.5816554 
H    -0.0590639    1.1043608   -5.1578402 
H    -0.0492179    2.9912772   -3.5566575 
H     1.6180498    2.8995777   -4.1379896 
H     0.8591406    0.8714387    3.6072710 
H    -4.0905685   -0.5040938    0.6304144 
H     1.5941596   -1.3776613   -3.2637386 
H     1.9996558    2.7498516   -0.2577796 
H     1.1080210    2.0983213    1.4519603 
H     2.0519344    2.9001533    2.7377020 
H     0.4951256    3.5983491    2.2062040 
H     1.2522277    2.8542261    5.1207695 
H    -0.1830773    1.9200711    5.6098031 
H    -0.3783901    3.4650318    4.7317080 
H    -5.0188868   -1.9500574    2.4404079 
H    -5.1212737   -2.7962665    0.8773299 
H    -3.8427323   -3.2369162    2.0452673 
H    -2.1109878   -2.7986025    0.0520248 
H    -3.5080913   -2.3592039   -0.9717007 
H    -2.1558038   -1.2179684   -0.7707010 
H    -0.7793114   -2.0353840   -5.1216505 
H     0.7465558   -2.9564424   -5.0087745 
H     0.7636679   -1.2901954   -5.6309387 
H     0.1018061   -2.1818374   -1.4036736 
H     0.4197851   -3.4685802   -2.6025806 
H    -1.1510797   -2.6227259   -2.6018297 
H     0.1831698    4.6579546   -1.8682615 
H     0.9010567    4.9991408   -0.2752699 
H    -0.3045904    3.6984776   -0.4456378 
H     2.6955282    4.4784986   -2.7128238 
H     3.2902785    4.6959846   -1.0487894 
H     3.7644873    3.2483978   -1.9807931 
H    -3.6353541    2.1096193    1.4484534 
H    -1.9161943    2.1891387   -3.2302864 
H    -4.8722994    3.3442802   -0.3098923 
H    -4.0240761    3.3461201   -2.6678769 
