101
Energy =
C     1.5867759   -1.6957699    1.9463148 
C     2.1878208   -2.0446329    0.6986960 
C     2.9386109   -1.1013115   -0.0380087 
H     1.9293955   -3.0026928    0.2307440 
Pd    0.7928215   -0.3788081    0.3237039 
P     0.2157200    0.7590104   -1.6164091 
P    -1.1357674    0.5052898    1.2726989 
H     2.1112633   -0.9547182    2.5642281 
H     3.3143877   -0.2226615    0.5094259 
C    -1.1911696   -4.1674691    4.1221207 
C    -0.4491445   -3.1739792    4.7792124 
C     0.4669542   -2.3910468    4.0647824 
C     0.6558735   -2.5771613    2.6762915 
C    -0.1004429   -3.5827647    2.0277730 
C    -1.0072208   -4.3716023    2.7442350 
H    -1.9069242   -4.7804946    4.6789295 
H    -0.5786056   -3.0130478    5.8545367 
H     1.0535643   -1.6263763    4.5865005 
H     0.0007140   -3.7317119    0.9473480 
H    -1.5835020   -5.1429344    2.2228871 
C     4.8214154   -1.6689243   -3.8676374 
C     4.9195366   -0.4428774   -3.1922138 
C     4.3176246   -0.2836066   -1.9378928 
C     3.5875341   -1.3369992   -1.3389757 
C     3.5211728   -2.5746841   -2.0216103 
C     4.1308168   -2.7367030   -3.2699074 
H     5.2959382   -1.7993070   -4.8454283 
H     5.4776029    0.3872279   -3.6375814 
H     4.4194398    0.6672274   -1.4032447 
H     2.9875294   -3.4205681   -1.5768314 
H     4.0689145   -3.7029366   -3.7808945 
C    -1.0865189    1.7207374    2.7196206 
C    -2.3145417   -0.6952149    2.1449377 
C     0.0561978   -0.1023781   -3.3058601 
C     1.4144411    2.0567390   -2.2609382 
C    -1.4598872    0.8399679    3.9273996 
C    -2.6556607   -0.0197665    3.4955120 
C     0.9162321    0.7494272   -4.2839799 
C     1.0733075    2.1844040   -3.7560375 
C    -2.0349797    1.4197136   -0.0527683 
C    -1.4593249    1.5031752   -1.3453941 
C     0.1439294    2.6495060    2.8400882 
C    -3.5166473   -1.2254758    1.3306293 
C     0.4263197   -1.6050429   -3.3087657 
C     1.6651017    3.3572602   -1.4636993 
C    -0.1462147    3.7973097    3.8271333 
C     1.4394986    1.9162372    3.2137764 
C    -4.3390216   -2.2161673    2.1787529 
C    -3.0652227   -1.8816287    0.0179205 
C     0.3372409   -2.1866409   -4.7328927 
C    -0.4305859   -2.4312019   -2.3401788 
C     2.4271930    3.0567311   -0.1622415 
C     0.4118517    4.2083044   -1.2001802 
C    -3.2884511    2.0171264    0.1925138 
C    -2.1789743    2.1458121   -2.3743895 
C    -3.9805512    2.6714596   -0.8335865 
C    -3.4278726    2.7262079   -2.1216523 
H    -1.9575032    2.3710208    2.5057373 
H    -1.6481850   -1.5529952    2.3539248 
H    -1.0159308   -0.0057941   -3.5623633 
H     2.3508896    1.4626875   -2.2126533 
H    -0.6135214    0.1864537    4.2049739 
H    -1.6997733    1.4611942    4.8075413 
H    -3.5531186    0.6189662    3.3802547 
H    -2.8939584   -0.7858811    4.2523785 
H     1.9208805    0.2911706   -4.3503329 
H     0.4802214    0.7288931   -5.2967638 
H     0.1537093    2.7782778   -3.9046836 
H     1.8822293    2.7182242   -4.2870517 
H     0.2882894    3.1074499    1.8429517 
H    -4.1723734   -0.3688394    1.0806781 
H     1.4787683   -1.6760323   -2.9812323 
H     2.3379364    3.9555346   -2.1105433 
H    -1.0619279    4.3477170    3.5474104 
H     0.6916304    4.5155549    3.8388970 
H    -0.2749087    3.4200707    4.8573656 
H     2.2936306    2.6142916    3.2105893 
H     1.6589751    1.1110344    2.4904772 
H     1.3763210    1.4669415    4.2207795 
H    -5.1784036   -2.6202491    1.5868477 
H    -3.7092050   -3.0635494    2.5049306 
H    -4.7634019   -1.7390847    3.0779112 
H    -2.3793739   -2.7239128    0.2178370 
H    -3.9305432   -2.2722102   -0.5446199 
H    -2.5405972   -1.1632932   -0.6348247 
H    -0.6888422   -2.0937474   -5.1348276 
H     0.5985793   -3.2590390   -4.7219899 
H     1.0270493   -1.6852401   -5.4319872 
H    -0.3386121   -2.0540254   -1.3027333 
H    -0.1105896   -3.4880240   -2.3430216 
H    -1.4992650   -2.4010469   -2.6195288 
H     1.8629477    2.3423936    0.4639964 
H     2.5886935    3.9737713    0.4295520 
H     3.4149429    2.6086094   -0.3689850 
H    -0.2587030    3.7261364   -0.4676163 
H     0.7025712    5.1913686   -0.7917654 
H    -0.1709390    4.3852165   -2.1201131 
H    -3.7344282    1.9663724    1.1914594 
H    -1.7656647    2.2021777   -3.3851916 
H    -4.9547880    3.1274091   -0.6309916 
H    -3.9692167    3.2244589   -2.9321862 
