101
Energy =
C     1.4835266   -1.8468866    1.9851923 
C     2.1298053   -2.1422443    0.7446165 
C     2.8830674   -1.1518452    0.0726705 
H     1.9059220   -3.0876638    0.2347464 
Pd    0.7145959   -0.4972418    0.3783301 
P     0.1790919    0.6988276   -1.5261612 
P    -1.2178899    0.3868285    1.2984223 
H     1.9725053   -1.1142779    2.6421349 
H     3.2306093   -0.3010622    0.6792369 
C    -1.3012458   -4.4506322    3.9925786 
C    -0.5696497   -3.4938760    4.7123301 
C     0.3464043   -2.6647740    4.0517977 
C     0.5478506   -2.7690800    2.6564485 
C    -0.2018785   -3.7356493    1.9435572 
C    -1.1097229   -4.5692617    2.6055166 
H    -2.0168423   -5.0996492    4.5071962 
H    -0.7071437   -3.3975205    5.7943800 
H     0.9238196   -1.9289305    4.6229490 
H    -0.0952799   -3.8153989    0.8560199 
H    -1.6820664   -5.3080496    2.0349960 
C     4.8871040   -1.4038828   -3.7271834 
C     4.9944721   -0.2544102   -2.9298578 
C     4.3494858   -0.2012831   -1.6879269 
C     3.5726393   -1.2881014   -1.2206040 
C     3.4977764   -2.4496724   -2.0247745 
C     4.1460053   -2.5041223   -3.2629931 
H     5.3919391   -1.4511015   -4.6973221 
H     5.5894326    0.5989439   -3.2712372 
H     4.4546170    0.6901536   -1.0587797 
H     2.9325679   -3.3215193   -1.6802684 
H     4.0763030   -3.4122457   -3.8705191 
C    -1.0580789    1.6564007    2.6796294 
C    -2.3417860   -0.7653058    2.2922089 
C     0.1342368   -0.0973414   -3.2440946 
C     1.4276755    2.0073798   -2.0129352 
C    -1.2675987    0.7973626    3.9409518 
C    -2.5067660   -0.0717382    3.6685053 
C     1.1956638    0.6811526   -4.0667065 
C     1.2930092    2.1253224   -3.5428822 
C    -2.1236560    1.2902296   -0.0264116 
C    -1.5085213    1.4174209   -1.2965978 
C     0.1418871    2.6296223    2.6132874 
C    -3.6386345   -1.2688858    1.6180757 
C     0.3062814   -1.6334644   -3.2259126 
C     1.5521662    3.2774220   -1.1384658 
C    -0.0231644    3.7542996    3.6542486 
C     1.5123021    1.9505633    2.7475937 
C    -4.3861276   -2.2309258    2.5630174 
C    -3.3458125   -1.9499968    0.2719104 
C     0.3803716   -2.2001411   -4.6551102 
C    -0.8016035   -2.3211348   -2.4145035 
C     0.3912563    4.2758347   -1.2786336 
C     2.9032626    3.9685528   -1.4110395 
C    -3.3862369    1.8761484    0.1998945 
C    -2.1935218    2.0935348   -2.3281076 
C    -4.0502551    2.5521592   -0.8306340 
C    -3.4559540    2.6531427   -2.0984148 
H    -1.9724376    2.2694358    2.5483377 
H    -1.6844326   -1.6434300    2.4333979 
H    -0.8743707    0.1354996   -3.6367479 
H     2.3507133    1.4172002   -1.8381204 
H    -0.3872276    0.1535733    4.1222679 
H    -1.4040655    1.4298639    4.8349134 
H    -3.4098306    0.5689394    3.6582253 
H    -2.6487120   -0.8293663    4.4574873 
H     2.1783572    0.1877612   -3.9434124 
H     0.9456963    0.6511090   -5.1405675 
H     0.3969902    2.7108449   -3.8201926 
H     2.1641983    2.6476698   -3.9760988 
H     0.0972593    3.1017501    1.6117177 
H    -4.2986485   -0.3997793    1.4313350 
H     1.2726168   -1.8398588   -2.7304680 
H     1.5722791    2.9235414   -0.0885797 
H    -1.0019291    4.2558060    3.5539108 
H     0.7642085    4.5169760    3.5262386 
H     0.0568267    3.3631467    4.6841250 
H     2.3232306    2.6928441    2.6526587 
H     1.6535551    1.1906699    1.9529626 
H     1.6269539    1.4493648    3.7251930 
H    -4.6948356   -1.7354558    3.4987991 
H    -5.2963096   -2.6172139    2.0727425 
H    -3.7447715   -3.0915415    2.8257313 
H    -2.6548746   -2.8010569    0.4087467 
H    -4.2745810   -2.3342244   -0.1834899 
H    -2.8879701   -1.2501763   -0.4481534 
H    -0.5371787   -1.9628606   -5.2249493 
H     0.4828932   -3.2989577   -4.6259640 
H     1.2446822   -1.8004142   -5.2119104 
H    -0.7985744   -1.9713520   -1.3641612 
H    -0.6580588   -3.4158089   -2.4013355 
H    -1.8014435   -2.1161175   -2.8392866 
H     0.2975088    4.6415254   -2.3168698 
H     0.5708052    5.1540024   -0.6344484 
H    -0.5746795    3.8362098   -0.9834763 
H     2.9474874    4.3711810   -2.4387155 
H     3.0533653    4.8133360   -0.7168673 
H     3.7487117    3.2688728   -1.2833726 
H    -3.8573375    1.8024533    1.1856398 
H    -1.7368426    2.1985244   -3.3169149 
H    -5.0333085    2.9969757   -0.6464998 
H    -3.9741361    3.1765513   -2.9081940 
