101
Energy =
C     1.6275790   -1.5624715    2.0045641 
C     2.3556037   -1.8789045    0.8155871 
C     3.0472372   -0.8685362    0.1089587 
H     2.2422056   -2.8727646    0.3651273 
Pd    0.8186855   -0.3835233    0.3078626 
P     0.2563221    0.7518137   -1.6373918 
P    -1.1778759    0.3730785    1.2087726 
H     2.0282577   -0.7504667    2.6275858 
H     3.2944723    0.0466201    0.6694179 
C    -0.9721260   -4.2998555    4.0854742 
C    -0.3705784   -3.2297984    4.7642285 
C     0.4822044   -2.3524974    4.0808790 
C     0.7435109   -2.5186184    2.7017805 
C     0.1163560   -3.5934878    2.0272901 
C    -0.7201268   -4.4793349    2.7146054 
H    -1.6334266   -4.9900891    4.6188057 
H    -0.5553278   -3.0842412    5.8336723 
H     0.9659505   -1.5336371    4.6250222 
H     0.2686523   -3.7261291    0.9504235 
H    -1.1891815   -5.3090844    2.1758835 
C     5.2056124   -1.2048896   -3.5974920 
C     5.2138998   -0.0080605   -2.8652466 
C     4.5215244    0.0744599   -1.6511383 
C     3.7924235   -1.0302177   -1.1491970 
C     3.8191584   -2.2379591   -1.8848598 
C     4.5154517   -2.3214134   -3.0949986 
H     5.7482303   -1.2750279   -4.5455741 
H     5.7697284    0.8597553   -3.2350432 
H     4.5499828    1.0046920   -1.0719859 
H     3.2958427   -3.1217894   -1.5086697 
H     4.5252445   -3.2653220   -3.6497055 
C    -1.1739784    1.3678274    2.8350725 
C    -2.4347651   -0.8813275    1.8364307 
C     0.0264110   -0.1724331   -3.2682627 
C     1.5521007    1.9456890   -2.3561578 
C    -2.1846913    0.6366202    3.7613142 
C    -3.2200311   -0.1263313    2.9253219 
C     1.3906489    0.0222655   -3.9546694 
C     1.7273718    1.5139255   -3.8332562 
C    -1.9336501    1.5214657   -0.0354630 
C    -1.3306048    1.6365349   -1.3153448 
C     0.2138399    1.5783946    3.4893750 
C    -3.2299114   -1.7552208    0.8373155 
C    -0.5550097   -1.6006324   -3.2182509 
C     1.3510605    3.4612085   -2.1251750 
C     1.1951242    2.3143474    2.5692859 
C     0.0766396    2.3262400    4.8306851 
C    -4.2571209   -0.9929260   -0.0160712 
C    -3.9181961   -2.9116513    1.5918225 
C    -1.9702123   -1.5790637   -2.6275595 
C     0.3367782   -2.6127310   -2.4862360 
C     2.4953920    4.2584577   -2.7833471 
C     1.2486641    3.8035326   -0.6323851 
C    -3.0937832    2.2734585    0.2448067 
C    -1.9313464    2.4509686   -2.2966938 
C    -3.6693437    3.0949347   -0.7320518 
C    -3.0960072    3.1737597   -2.0100814 
H    -1.5750089    2.3589045    2.5484751 
H    -1.7376191   -1.5666481    2.3629254 
H    -0.7079241    0.4578560   -3.8090082 
H     2.4611543    1.6389112   -1.8061600 
H    -1.6285244   -0.0924147    4.3798926 
H    -2.6622946    1.3534746    4.4501677 
H    -3.9590607    0.5610977    2.4754895 
H    -3.7872997   -0.8342059    3.5539870 
H     2.1702816   -0.5838051   -3.4583109 
H     1.3416640   -0.3057715   -5.0081054 
H     1.0432139    2.1035448   -4.4736984 
H     2.7565535    1.7229494   -4.1704206 
H     0.6228191    0.5723598    3.7037553 
H    -2.4803051   -2.2088783    0.1612190 
H    -0.6275264   -1.9211532   -4.2772074 
H     0.4055881    3.7635324   -2.6156784 
H     1.3282465    1.7731751    1.6115421 
H     2.1869026    2.4078308    3.0451178 
H     0.8336275    3.3315183    2.3357643 
H     1.0714920    2.4897592    5.2797770 
H    -0.5313199    1.7677152    5.5616445 
H    -0.3915462    3.3164624    4.6804157 
H    -3.7938047   -0.2137215   -0.6405422 
H    -4.7790708   -1.6940975   -0.6898432 
H    -5.0237444   -0.5110603    0.6167373 
H    -4.7427756   -2.5414902    2.2266901 
H    -4.3509785   -3.6305900    0.8747729 
H    -3.2053227   -3.4536190    2.2358905 
H    -1.9278104   -1.2557310   -1.5730102 
H    -2.4339951   -2.5798230   -2.6531995 
H    -2.6314183   -0.8775170   -3.1655493 
H     1.3338194   -2.6886527   -2.9476020 
H    -0.1241528   -3.6154430   -2.4992462 
H     0.4686482   -2.3120743   -1.4263698 
H     3.4742710    3.9544161   -2.3679670 
H     2.3682335    5.3375831   -2.5902378 
H     2.5281959    4.1164388   -3.8763449 
H     2.1680583    3.5026575   -0.0978982 
H     1.1135943    4.8889476   -0.4868254 
H     0.3947403    3.2940975   -0.1552053 
H    -3.5654059    2.2105450    1.2296181 
H    -1.4836734    2.5292728   -3.2933048 
H    -4.5718557    3.6680482   -0.4972151 
H    -3.5495391    3.8059851   -2.7799944 
