101
Energy =
C     1.7404528   -1.5094357    2.0283805 
C     2.3515658   -1.8357079    0.7806864 
C     3.0264480   -0.8386477    0.0334689 
H     2.1604548   -2.8186599    0.3314035 
Pd    0.8552489   -0.2851418    0.3753453 
P     0.2602230    0.7677459   -1.5969303 
P    -1.1939554    0.4309683    1.2253623 
H     2.2152712   -0.7120214    2.6176362 
H     3.3629941    0.0494808    0.5910461 
C    -0.6796113   -4.2371439    4.3223189 
C    -0.6999618   -4.2954572    2.9185865 
C     0.0847735   -3.4161480    2.1643935 
C     0.9108598   -2.4586037    2.7986054 
C     0.9222009   -2.4124045    4.2113473 
C     0.1363064   -3.2941596    4.9652643 
H    -1.2965125   -4.9240636    4.9104241 
H    -1.3375409   -5.0264645    2.4101828 
H     0.0392847   -3.4514889    1.0694616 
H     1.5635982   -1.6841578    4.7205199 
H     0.1632112   -3.2461476    6.0587938 
C     4.9401114   -1.2106676   -3.8058237 
C     5.0419924   -0.0261467   -3.0605620 
C     4.4226489    0.0691088   -1.8081578 
C     3.6789381   -1.0112246   -1.2761936 
C     3.6074785   -2.2065992   -2.0296185 
C     4.2285416   -2.3022907   -3.2795554 
H     5.4246394   -1.2901324   -4.7841028 
H     5.6128436    0.8224465   -3.4513536 
H     4.5226668    0.9894549   -1.2211531 
H     3.0722671   -3.0755142   -1.6344383 
H     4.1625981   -3.2370399   -3.8456676 
C    -1.2685125    1.3813354    2.8729196 
C    -2.4471729   -0.9179144    1.7145553 
C     0.1196295   -0.3023659   -3.1513424 
C     1.4209288    2.0402707   -2.3719940 
C    -2.4262783    0.6735435    3.6219185 
C    -2.3631954   -0.8145932    3.2565691 
C     1.2453205    0.2316873   -4.0684200 
C     1.3572915    1.7499278   -3.8870529 
C    -1.9420719    1.5526501   -0.0375538 
C    -1.3655997    1.5959596   -1.3329559 
C     0.0852231    1.3814301    3.6404763 
C    -3.8825786   -0.8122140    1.1211020 
C     0.1767733   -1.8221647   -2.8654677 
C     1.2352551    3.5108213   -1.9380534 
C     1.1870515    2.1009336    2.8480883 
C    -0.0519038    2.0295181    5.0326439 
C    -4.8550834   -1.7667355    1.8456114 
C    -3.9030417   -1.1145895   -0.3859423 
C     0.3000609   -2.6353159   -4.1664933 
C    -1.0257714   -2.2916021   -2.0371279 
C     2.2843892    4.4115885   -2.6187719 
C     1.2975281    3.6596430   -0.4104283 
C    -3.0951635    2.3175254    0.2311576 
C    -1.9999015    2.3371674   -2.3497828 
C    -3.7022989    3.0706383   -0.7820583 
C    -3.1677372    3.0625340   -2.0791284 
H    -1.5222738    2.4289805    2.6265297 
H    -2.0031953   -1.8712815    1.3773900 
H    -0.8646643   -0.0517115   -3.5947883 
H     2.4091993    1.6957588   -2.0095367 
H    -2.3546884    0.8338007    4.7095809 
H    -3.3975759    1.0970575    3.3059914 
H    -3.1588902   -1.4028398    3.7394364 
H    -1.4060613   -1.2446637    3.6007916 
H     2.2023536   -0.2438223   -3.7838484 
H     1.0472057   -0.0366775   -5.1197598 
H     0.4838717    2.2619334   -4.3353655 
H     2.2550497    2.1427852   -4.3945641 
H     0.3881656    0.3263668    3.7832947 
H    -4.2598645    0.2165214    1.2700685 
H     1.0921150   -1.9964216   -2.2683724 
H     0.2338023    3.8427676   -2.2745610 
H     1.3302878    1.6470523    1.8467136 
H     2.1527700    2.0482137    3.3801999 
H     0.9374727    3.1672410    2.7008044 
H     0.9352156    2.0809374    5.5235943 
H    -0.7211476    1.4630714    5.7006738 
H    -0.4404362    3.0612597    4.9507948 
H    -5.0346060   -1.4751709    2.8934215 
H    -5.8318347   -1.7649513    1.3320074 
H    -4.4710955   -2.8034988    1.8366372 
H    -3.6126955   -2.1640531   -0.5712895 
H    -4.9178684   -0.9680598   -0.7933991 
H    -3.2181741   -0.4659760   -0.9548323 
H    -0.5485147   -2.4308144   -4.8452535 
H     0.2967406   -3.7163679   -3.9423904 
H     1.2354463   -2.4095099   -4.7053368 
H    -1.0856722   -1.7435299   -1.0786321 
H    -0.9469820   -3.3675094   -1.8014381 
H    -1.9731323   -2.1318353   -2.5820818 
H     3.3092076    4.0884411   -2.3572282 
H     2.1654344    5.4569625   -2.2856919 
H     2.1915253    4.3987072   -3.7175880 
H     2.2607399    3.2871471   -0.0155543 
H     1.1955731    4.7171882   -0.1125325 
H     0.4886313    3.0947709    0.0839318 
H    -3.5297993    2.3246499    1.2359219 
H    -1.5756073    2.3596327   -3.3587197 
H    -4.5991160    3.6577599   -0.5603250 
H    -3.6500900    3.6362724   -2.8768333 
