101
Energy =
C     1.6482286   -1.5867983    2.0430108 
C     2.3034367   -1.9160561    0.8166334 
C     3.0192494   -0.9277648    0.0975435 
H     2.1038987   -2.8870970    0.3465339 
Pd    0.8608450   -0.3176553    0.3978507 
P     0.2948162    0.7829221   -1.5614868 
P    -1.1452004    0.4396017    1.2855308 
H     2.1165710   -0.8122563    2.6670261 
H     3.3662722   -0.0536051    0.6707254 
C    -1.0671100   -4.1938714    4.1429101 
C    -0.3751545   -3.1831132    4.8265543 
C     0.5161570   -2.3495789    4.1374061 
C     0.7272798   -2.5013668    2.7482651 
C     0.0115423   -3.5171267    2.0701836 
C    -0.8654177   -4.3589244    2.7618466 
H    -1.7594619   -4.8495268    4.6804984 
H    -0.5200678   -3.0501911    5.9037467 
H     1.0687746   -1.5772797    4.6840877 
H     0.1239128   -3.6335166    0.9864620 
H    -1.4066464   -5.1406649    2.2190899 
C     4.9728062   -1.2958785   -3.7216860 
C     5.0996239   -0.1269233   -2.9558427 
C     4.4655465   -0.0325745   -1.7108039 
C     3.6839631   -1.0989823   -1.2065093 
C     3.5813642   -2.2770661   -1.9827907 
C     4.2172496   -2.3718467   -3.2253481 
H     5.4691945   -1.3747131   -4.6940478 
H     5.7008262    0.7101946   -3.3252980 
H     4.5814537    0.8763134   -1.1091086 
H     3.0085910   -3.1329638   -1.6124935 
H     4.1277253   -3.2934627   -3.8095075 
C    -1.1593387    1.4594211    2.8914360 
C    -2.4114532   -0.8032657    1.9172602 
C     0.1694307   -0.2540681   -3.1391373 
C     1.4623580    2.0751066   -2.3103058 
C    -2.2549924    0.8031703    3.7820838 
C    -3.2483116   -0.0004083    2.9312343 
C     1.3595646    0.2365802   -3.9913549 
C     1.4806064    1.7544454   -3.8214918 
C    -1.9225259    1.5349687    0.0082265 
C    -1.3427052    1.5844475   -1.2867783 
C     0.2092599    1.5725401    3.6127219 
C    -3.1596762   -1.7316884    0.9294018 
C     0.1144989   -1.7763731   -2.8786451 
C     1.2131371    3.5535672   -1.9363713 
C     1.2901406    2.2381459    2.7519942 
C     0.0597152    2.3309470    4.9471993 
C    -4.0238747   -1.0169064   -0.1227369 
C    -4.0089425   -2.7498158    1.7188263 
C     0.2643993   -2.5822031   -4.1807568 
C    -1.1697632   -2.1579787   -2.1326321 
C     2.2528345    4.4665118   -2.6159562 
C     1.2196942    3.7621914   -0.4159775 
C    -3.0907974    2.2824077    0.2633098 
C    -1.9843707    2.3116537   -2.3096231 
C    -3.7070753    3.0188602   -0.7559280 
C    -3.1661687    3.0172416   -2.0501394 
H    -1.4746673    2.4726353    2.5771947 
H    -1.7377491   -1.4586821    2.5079270 
H    -0.7757078    0.0621270   -3.6247101 
H     2.4404993    1.7712133   -1.8883090 
H    -1.7577310    0.1032863    4.4792685 
H    -2.7625535    1.5669116    4.3947981 
H    -3.9715990    0.6563817    2.4160621 
H    -3.8394882   -0.6808661    3.5676308 
H     2.2881194   -0.2538303   -3.6460854 
H     1.2178970   -0.0406789   -5.0496083 
H     0.6356025    2.2660164   -4.3222255 
H     2.4075365    2.1331964   -4.2851068 
H     0.5331177    0.5386837    3.8429145 
H    -2.3777897   -2.3057645    0.3999733 
H     0.9754952   -2.0199696   -2.2257899 
H     0.2132711    3.8376496   -2.3181803 
H     1.4315867    1.6996976    1.7932935 
H     2.2598570    2.2469903    3.2796054 
H     1.0228181    3.2832777    2.5161864 
H     1.0392123    2.4172943    5.4485080 
H    -0.6278095    1.8247081    5.6447193 
H    -0.3204868    3.3544522    4.7734324 
H    -3.4239756   -0.4022195   -0.8120029 
H    -4.5678280   -1.7625577   -0.7281850 
H    -4.7771692   -0.3607662    0.3491380 
H    -4.8885702   -2.2672938    2.1806423 
H    -4.3818743   -3.5384281    1.0426162 
H    -3.4211929   -3.2327088    2.5182283 
H    -0.5217600   -2.3108814   -4.9093228 
H     0.1707807   -3.6626595   -3.9737693 
H     1.2465399   -2.4164368   -4.6544925 
H    -1.2473737   -1.5965597   -1.1845357 
H    -1.1851681   -3.2339318   -1.8861746 
H    -2.0681786   -1.9326278   -2.7353524 
H     3.2791059    4.1870781   -2.3132309 
H     2.0888160    5.5171824   -2.3207420 
H     2.1945097    4.4161551   -3.7159996 
H     2.1887236    3.4571670    0.0194853 
H     1.0535864    4.8232215   -0.1626828 
H     0.4263499    3.1736616    0.0754365 
H    -3.5361458    2.2852729    1.2619309 
H    -1.5532353    2.3378862   -3.3158476 
H    -4.6170138    3.5879733   -0.5406499 
H    -3.6542708    3.5790169   -2.8528303 
