101
Energy =
C     1.7598046   -1.2575471    2.1917277 
C     2.3720014   -1.6591424    0.9664935 
C     3.0126610   -0.7145650    0.1305921 
H     2.2011225   -2.6782076    0.5969309 
Pd    0.8203745   -0.1769083    0.4827273 
P     0.0892462    0.8309763   -1.4755588 
P    -1.2258605    0.4723393    1.3513956 
H     2.2157357   -0.4068656    2.7193402 
H     3.3362120    0.2267242    0.6015296 
C    -0.6253400   -3.8574614    4.6713748 
C    -0.6025757   -4.0450236    3.2795735 
C     0.1748492   -3.2105130    2.4680598 
C     0.9510219   -2.1686037    3.0297705 
C     0.9248961   -1.9994841    4.4324272 
C     0.1456821   -2.8343837    5.2440771 
H    -1.2363913   -4.5081476    5.3050315 
H    -1.2005208   -4.8407773    2.8229412 
H     0.1645131   -3.3549303    1.3815586 
H     1.5316250   -1.2110648    4.8914004 
H     0.1440576   -2.6877551    6.3291537 
C     4.8183848   -1.4066424   -3.7162320 
C     4.9429248   -0.1651666   -3.0750413 
C     4.3635173    0.0347388   -1.8157445 
C     3.6366707   -0.9953248   -1.1731893 
C     3.5417138   -2.2483527   -1.8235207 
C     4.1236758   -2.4490904   -3.0790988 
H     5.2721300   -1.5679755   -4.6992625 
H     5.4990349    0.6481577   -3.5527325 
H     4.4770268    1.0019201   -1.3136338 
H     3.0054581   -3.0748047   -1.3476740 
H     4.0376726   -3.4264724   -3.5650302 
C    -1.4668286    1.0947716    3.1172005 
C    -2.4346643   -0.9499411    1.5180905 
C    -0.5739942   -0.2804821   -2.8454033 
C     1.2863879    1.7089284   -2.6176121 
C    -2.3028431   -0.0191814    3.7973047 
C    -3.2787674   -0.5954127    2.7578139 
C    -0.5515509    0.6704105   -4.0617983 
C     0.7649117    1.4829383   -4.0723253 
C    -1.9125370    1.7769642    0.2375657 
C    -1.3038820    1.9597334   -1.0319346 
C    -0.1595930    1.5091714    3.8273507 
C    -3.1387100   -1.4308727    0.2225098 
C     0.3022625   -1.5647937   -2.9513605 
C     1.6731507    3.1617996   -2.2457847 
C     0.5532695    2.6359976    3.0630424 
C    -0.4247524    1.9092921    5.2899705 
C    -4.4257654   -0.6617624   -0.1176794 
C    -3.4091303   -2.9452695    0.3051938 
C     0.2361542   -2.2222016   -4.3411618 
C    -0.0976408   -2.5782707   -1.8659036 
C     2.8601637    3.6284112   -3.1109558 
C     1.9951829    3.3111539   -0.7497927 
C    -2.9962345    2.5979181    0.6101349 
C    -1.7831267    2.9748524   -1.8857728 
C    -3.4657391    3.5978648   -0.2506562 
C    -2.8541259    3.7902977   -1.4976123 
H    -2.0983844    1.9984951    3.0175560 
H    -1.7373017   -1.7521607    1.8314208 
H    -1.6141420   -0.5649271   -2.6035227 
H     2.1926164    1.0889666   -2.4740234 
H    -1.6288799   -0.8187307    4.1567144 
H    -2.8355361    0.3836614    4.6752834 
H    -4.0512938    0.1537567    2.5025636 
H    -3.8044583   -1.4865037    3.1441881 
H    -0.6937721    0.1156577   -5.0040157 
H    -1.4152039    1.3523165   -3.9827065 
H     0.6066212    2.4519364   -4.5774855 
H     1.5389686    0.9493854   -4.6499134 
H     0.5005833    0.6231552    3.8327636 
H    -2.4210669   -1.2722073   -0.6059210 
H     1.3572678   -1.2784232   -2.7755673 
H     0.8100962    3.8170768   -2.4729222 
H     0.7920653    2.3259483    2.0278287 
H     1.5012183    2.9115386    3.5565864 
H    -0.0775997    3.5421861    3.0080147 
H     0.5123937    2.2318993    5.7759146 
H    -0.8347897    1.0700575    5.8767722 
H    -1.1397052    2.7508292    5.3470827 
H    -4.2552230    0.4246661   -0.1882795 
H    -4.8236018   -1.0029316   -1.0891329 
H    -5.2095196   -0.8390958    0.6400997 
H    -4.0868328   -3.1818407    1.1453061 
H    -3.8850043   -3.3101569   -0.6216730 
H    -2.4727810   -3.5114114    0.4542821 
H    -0.8039127   -2.4748975   -4.6176378 
H     0.8213911   -3.1581069   -4.3385296 
H     0.6571463   -1.5758882   -5.1294271 
H     0.5784831   -3.4503048   -1.8712518 
H    -1.1263849   -2.9468046   -2.0304803 
H    -0.0570268   -2.1205061   -0.8564071 
H     3.7543642    3.0097242   -2.9128106 
H     3.1156516    4.6778338   -2.8846637 
H     2.6362619    3.5614803   -4.1891817 
H     2.8130185    2.6309578   -0.4496285 
H     2.3109550    4.3426761   -0.5180182 
H     1.1175417    3.0819693   -0.1195784 
H    -3.4838032    2.4606961    1.5803965 
H    -1.3119670    3.1456212   -2.8572236 
H    -4.3042266    4.2309150    0.0563383 
H    -3.2071483    4.5795268   -2.1689211 
