101
Energy =
C     1.8023498   -1.2864620    2.0770969 
C     2.2836884   -1.8589934    0.8643494 
C     2.9276146   -1.0517289   -0.1044455 
H     2.0176370   -2.8950102    0.6203083 
Pd    0.8025662   -0.3241780    0.3267572 
P     0.1947053    0.7982797   -1.6240175 
P    -1.2044202    0.3998826    1.2431793 
H     2.3413253   -0.4019146    2.4483795 
H     3.3587951   -0.1032123    0.2476436 
C    -0.3667629   -3.4149089    5.1284539 
C    -0.5131646   -3.7879170    3.7815932 
C     0.1895869   -3.1075516    2.7807112 
C     1.0529800   -2.0352204    3.1056058 
C     1.1925089   -1.6729963    4.4641972 
C     0.4929928   -2.3587080    5.4660914 
H    -0.9181962   -3.9478277    5.9095955 
H    -1.1821237   -4.6116279    3.5109291 
H     0.0544815   -3.3969757    1.7320688 
H     1.8606606   -0.8478555    4.7346922 
H     0.6186730   -2.0660837    6.5136233 
C     4.3898503   -2.2875355   -3.9596385 
C     4.5972343   -0.9784010   -3.4977485 
C     4.1341432   -0.6008961   -2.2317707 
C     3.4361924   -1.5147781   -1.4067176 
C     3.2623499   -2.8376792   -1.8748907 
C     3.7332875   -3.2173185   -3.1360118 
H     4.7524688   -2.5875534   -4.9478776 
H     5.1307412   -0.2534756   -4.1211984 
H     4.3193327    0.4155705   -1.8667234 
H     2.7486668   -3.5781528   -1.2546893 
H     3.5875744   -4.2461831   -3.4808555 
C    -1.3145770    1.2161523    2.9475944 
C    -2.4837854   -0.9514084    1.6443779 
C    -0.0043569    0.0609118   -3.3674754 
C     1.4260763    2.0978344   -2.2124850 
C    -1.9555695    0.1218442    3.8270281 
C    -3.0707080   -0.5340341    3.0100642 
C     0.6678617    1.0885965   -4.3374833 
C     0.9680901    2.4271252   -3.6420751 
C    -1.9946256    1.5249097    0.0132939 
C    -1.4409590    1.6140309   -1.2915603 
C     0.0100324    1.8381231    3.4492099 
C    -3.5177299   -1.2804328    0.5450493 
C     0.5719991   -1.3667602   -3.5650297 
C     1.8066587    3.2951790   -1.3139922 
C     0.2885849    3.1484553    2.6991145 
C     0.0053964    2.0696892    4.9709857 
C    -4.5395920   -2.3187702    1.0502255 
C    -2.8340300   -1.7802381   -0.7325301 
C     0.3716741   -1.8270852   -5.0234547 
C    -0.0195492   -2.4141191   -2.6146262 
C     2.5904583    2.8376932   -0.0720470 
C     0.6279499    4.2159057   -0.9570616 
C    -3.1956087    2.2003253    0.3090786 
C    -2.1516134    2.3208269   -2.2840781 
C    -3.8618994    2.9404921   -0.6755448 
C    -3.3476023    2.9831074   -1.9791071 
H    -2.0553221    2.0315651    2.8271588 
H    -1.8483120   -1.8429746    1.8080884 
H    -1.0982780    0.0249097   -3.5279796 
H     2.3250633    1.4535040   -2.3048823 
H    -1.2003114   -0.6337415    4.1048262 
H    -2.3422457    0.5598941    4.7625901 
H    -3.9038442    0.1793818    2.8561308 
H    -3.4863501   -1.4117435    3.5333041 
H     1.6297046    0.6551709   -4.6650015 
H     0.0527288    1.2258575   -5.2424491 
H     0.0880812    3.0923198   -3.6235829 
H     1.7623073    2.9781391   -4.1776923 
H     0.8210733    1.1209851    3.2184428 
H    -4.0700035   -0.3508895    0.3051876 
H     1.6591862   -1.3019844   -3.3780533 
H     2.5069455    3.8920749   -1.9329299 
H     0.2302578    3.0029222    1.6081031 
H     1.2907939    3.5448488    2.9347641 
H    -0.4565061    3.9181557    2.9717194 
H     0.9422002    2.5647881    5.2809580 
H    -0.0763822    1.1238273    5.5323411 
H    -0.8335360    2.7235577    5.2719925 
H    -5.1342582   -1.9401436    1.8979415 
H    -5.2423865   -2.5841969    0.2417007 
H    -4.0309155   -3.2457975    1.3737046 
H    -2.2710031   -2.7103231   -0.5360039 
H    -3.5732916   -1.9901160   -1.5245219 
H    -2.1216701   -1.0366463   -1.1270892 
H    -0.7042102   -1.8841028   -5.2730488 
H     0.8052810   -2.8324988   -5.1616051 
H     0.8568669   -1.1556548   -5.7509227 
H     0.1227859   -2.1322764   -1.5537834 
H     0.4700290   -3.3893092   -2.7744706 
H    -1.1005880   -2.5464588   -2.7943680 
H     1.9972083    2.1295552    0.5381494 
H     2.8559491    3.6949280    0.5691737 
H     3.5270129    2.3285659   -0.3613835 
H    -0.1072421    3.7064336   -0.3123779 
H     0.9910252    5.1052428   -0.4143225 
H     0.0940830    4.5661604   -1.8566967 
H    -3.6272510    2.1364628    1.3134629 
H    -1.7755449    2.3614443   -3.3094107 
H    -4.7923284    3.4625132   -0.4308703 
H    -3.8771174    3.5347081   -2.7624565 
