101
Energy =
C     1.7481316   -1.4719001    2.0846233 
C     2.3539785   -1.8454213    0.8456071 
C     3.0371780   -0.8789097    0.0667235 
H     2.1407954   -2.8342635    0.4199975 
Pd    0.8832153   -0.2776869    0.4170981 
P     0.2384073    0.7317705   -1.5674295 
P    -1.1136803    0.4881153    1.3232656 
H     2.2413567   -0.6709473    2.6542033 
H     3.3921079    0.0193575    0.5964038 
C    -0.8515191   -3.9953006    4.4212621 
C    -0.0705018   -3.0069548    5.0390357 
C     0.7814774   -2.2004653    4.2728362 
C     0.8683315   -2.3608266    2.8715514 
C     0.0746491   -3.3622474    2.2631888 
C    -0.7706397   -4.1721258    3.0300663 
H    -1.5169902   -4.6262893    5.0189969 
H    -0.1187032   -2.8676422    6.1240647 
H     1.3988713   -1.4420597    4.7671088 
H     0.0996957   -3.4890480    1.1749692 
H    -1.3794331   -4.9382444    2.5388688 
C     4.8275532   -1.3479968   -3.8210171 
C     4.9445990   -0.1418266   -3.1134733 
C     4.3704091   -0.0164671   -1.8423244 
C     3.6573808   -1.0878472   -1.2536290 
C     3.5734300   -2.3057950   -1.9683482 
C     4.1489669   -2.4313578   -3.2374642 
H     5.2764222   -1.4506879   -4.8140579 
H     5.4915915    0.7007227   -3.5490394 
H     4.4796512    0.9220141   -1.2864370 
H     3.0638349   -3.1685343   -1.5279246 
H     4.0730064   -3.3828251   -3.7737123 
C    -1.1438484    1.3290546    3.0220202 
C    -2.4537589   -0.7696402    1.7390657 
C     0.0158626   -0.3910157   -3.0816871 
C     1.3672254    1.9699747   -2.4475041 
C    -2.0653636    0.4188245    3.8776140 
C    -3.1527517   -0.1843549    2.9826505 
C     1.0715873    0.1281533   -4.0882055 
C     1.2030972    1.6469191   -3.9473583 
C    -1.8577708    1.6383570    0.0830192 
C    -1.3593567    1.6015309   -1.2461473 
C     0.2414515    1.5865391    3.6638292 
C    -3.3517062   -1.2603672    0.5603118 
C     0.1375729   -1.9054388   -2.7818907 
C     1.2322918    3.4575212   -2.0539502 
C     1.1595161    2.4312578    2.7722656 
C     0.0847181    2.2346028    5.0532185 
C    -4.7269219   -0.5742596    0.4838088 
C    -3.5208593   -2.7891124    0.6353765 
C     0.1377478   -2.7310866   -4.0820137 
C    -0.9450339   -2.4070638   -1.8203927 
C     2.2647019    4.3129307   -2.8147830 
C     1.3694031    3.6577174   -0.5387866 
C    -2.9590665    2.4644561    0.3839114 
C    -2.0228041    2.3303968   -2.2542216 
C    -3.5858458    3.2135724   -0.6206308 
C    -3.1324218    3.1279386   -1.9452838 
H    -1.6386830    2.3056367    2.8525209 
H    -1.8378957   -1.6243623    2.0809652 
H    -1.0014431   -0.1721805   -3.4632380 
H     2.3711482    1.6182199   -2.1377639 
H    -1.4558641   -0.3936207    4.3160511 
H    -2.5027416    0.9913626    4.7126789 
H    -3.8759512    0.5972709    2.6884463 
H    -3.7245831   -0.9678551    3.5112383 
H     2.0455196   -0.3458797   -3.8628339 
H     0.7978583   -0.1598679   -5.1170323 
H     0.3061970    2.1568260   -4.3491097 
H     2.0679730    2.0221648   -4.5209177 
H     0.7143709    0.5963344    3.8043653 
H    -2.8248410   -1.0272392   -0.3823347 
H     1.1188648   -2.0485867   -2.2914616 
H     0.2224542    3.7986900   -2.3544165 
H     1.3481065    1.9240070    1.8064986 
H     2.1361092    2.5984347    3.2588864 
H     0.7142482    3.4192481    2.5564014 
H     1.0757889    2.4297862    5.4980560 
H    -0.4735576    1.5898699    5.7521836 
H    -0.4465477    3.2014204    4.9786409 
H    -5.2675767   -0.9295301   -0.4104542 
H    -5.3495287   -0.8140095    1.3637359 
H    -4.6440610    0.5216567    0.4061025 
H    -4.0140206   -3.0838782    1.5797527 
H    -4.1419791   -3.1578487   -0.1993816 
H    -2.5460092   -3.3031220    0.5892762 
H    -0.7852160   -2.5548641   -4.6649195 
H     0.1855077   -3.8089770   -3.8480510 
H     1.0020445   -2.4923300   -4.7238856 
H    -0.8853707   -1.8751015   -0.8521100 
H    -0.8198791   -3.4846108   -1.6154553 
H    -1.9580241   -2.2590372   -2.2365271 
H     3.2944768    3.9767199   -2.5920680 
H     2.1825323    5.3705304   -2.5104901 
H     2.1185231    4.2679206   -3.9068683 
H     2.3392666    3.2720136   -0.1737085 
H     1.3090375    4.7271669   -0.2737633 
H     0.5681548    3.1335625    0.0080014 
H    -3.3419402    2.5200091    1.4079792 
H    -1.6623552    2.2901090   -3.2871239 
H    -4.4386415    3.8526828   -0.3707878 
H    -3.6327112    3.6955414   -2.7363282 
