101
Energy =
C     1.5527739   -1.5050415    2.1164559 
C     2.2551684   -1.8154413    0.9106383 
C     2.9392353   -0.8048607    0.1970390 
H     2.1169452   -2.8014039    0.4500469 
Pd    0.7191584   -0.3044796    0.4516441 
P     0.0417275    0.7774886   -1.4986771 
P    -1.2713783    0.4105669    1.4038996 
H     1.9778770   -0.7115334    2.7471416 
H     3.2015323    0.1077975    0.7546032 
C    -1.1460865   -4.1750497    4.1612535 
C    -0.9322606   -4.3189756    2.7798943 
C    -0.0476416   -3.4666139    2.1097028 
C     0.6514028   -2.4520718    2.8066554 
C     0.4328847   -2.3262426    4.1967251 
C    -0.4572323   -3.1768655    4.8664775 
H    -1.8420244   -4.8393152    4.6834436 
H    -1.4666354   -5.0937233    2.2200858 
H     0.0803664   -3.5706826    1.0268774 
H     0.9748860   -1.5573548    4.7587076 
H    -0.6080032   -3.0634847    5.9451369 
C     4.9685860   -1.1415293   -3.5818918 
C     4.9368628    0.0773250   -2.8874682 
C     4.2914054    0.1603242   -1.6477075 
C     3.6502219   -0.9670120   -1.0811571 
C     3.7181130   -2.1950267   -1.7798856 
C     4.3670490   -2.2785540   -3.0159042 
H     5.4750640   -1.2116844   -4.5498007 
H     5.4221700    0.9639902   -3.3084929 
H     4.2804475    1.1109413   -1.1025463 
H     3.2630693   -3.0944711   -1.3549807 
H     4.4096796   -3.2384447   -3.5409063 
C    -1.2249972    1.3296197    3.0708161 
C    -2.5986700   -0.8209267    1.9407875 
C    -0.4708630   -0.3230138   -2.9502955 
C     1.2199176    1.7850659   -2.5684405 
C    -2.1071035    0.4713613    4.0107918 
C    -3.2255158   -0.1940567    3.2037565 
C    -0.4687181    0.6716238   -4.1270631 
C     0.8034510    1.5418725   -4.0542573 
C    -2.0401710    1.5993620    0.2120771 
C    -1.4396591    1.7981340   -1.0606288 
C     0.1812786    1.6324600    3.6405248 
C    -3.5942335   -1.2707393    0.8492528 
C     0.5262844   -1.5165742   -3.0774644 
C     1.4614980    3.2664663   -2.1878294 
C     1.0447892    2.4420723    2.6665290 
C     0.0742139    2.3518171    4.9995966 
C    -4.6264184   -2.2591111    1.4265947 
C    -2.8624510   -1.8932273   -0.3460125 
C     0.5950704   -2.0925211   -4.5035443 
C     0.1678972   -2.6287013   -2.0800122 
C     2.6727978    3.8140761   -2.9684114 
C     1.6550032    3.4564916   -0.6777309 
C    -3.1910499    2.3373255    0.5575291 
C    -1.9866916    2.7653127   -1.9302405 
C    -3.7354631    3.2763899   -0.3273169 
C    -3.1241071    3.4985849   -1.5688218 
H    -1.7299081    2.2936243    2.8652532 
H    -1.9964534   -1.6985068    2.2511441 
H    -1.4898085   -0.7096500   -2.7741599 
H     2.1676945    1.2453398   -2.3789742 
H    -1.4788518   -0.3133723    4.4709338 
H    -2.5139095    1.0895633    4.8287269 
H    -3.9959139    0.5464929    2.9147565 
H    -3.7364687   -0.9660995    3.8038702 
H    -0.5481110    0.1460424   -5.0931543 
H    -1.3696950    1.3038925   -4.0566118 
H     0.6356273    2.5053406   -4.5663240 
H     1.6350982    1.0443564   -4.5820838 
H     0.6762499    0.6575414    3.8132579 
H    -4.1382379   -0.3722125    0.4954576 
H     1.5399586   -1.1486200   -2.8261202 
H     0.5695265    3.8481673   -2.4919078 
H     1.1867651    1.8903036    1.7169098 
H     2.0437267    2.6408280    3.0920268 
H     0.5766021    3.4142258    2.4280669 
H     1.0804141    2.5846068    5.3887117 
H    -0.4425655    1.7383135    5.7562447 
H    -0.4756847    3.3054428    4.8966266 
H    -5.2496815   -1.7986822    2.2111866 
H    -5.3023744   -2.6144016    0.6297528 
H    -4.1204601   -3.1404917    1.8622367 
H    -2.3019545   -2.7932453   -0.0373831 
H    -3.5699184   -2.1838376   -1.1413969 
H    -2.1367397   -1.1852455   -0.7801147 
H    -0.4005946   -2.4214545   -4.8533433 
H     1.2639791   -2.9704136   -4.5155141 
H     0.9963568   -1.3672942   -5.2311014 
H     0.1146752   -2.2340769   -1.0463497 
H     0.9207800   -3.4346207   -2.1027035 
H    -0.8140745   -3.0729723   -2.3222454 
H     3.5949284    3.2749175   -2.6830280 
H     2.8237319    4.8846938   -2.7475606 
H     2.5454110    3.7099673   -4.0593016 
H     2.4800118    2.8252078   -0.2992383 
H     1.8969830    4.5063932   -0.4395929 
H     0.7408028    3.1912769   -0.1210642 
H    -3.6654295    2.1887149    1.5325073 
H    -1.5176520    2.9624954   -2.8973580 
H    -4.6268382    3.8432466   -0.0405239 
H    -3.5294509    4.2464673   -2.2577110 
