101
Energy =
C     1.7885254   -1.3132813    2.0782716 
C     2.2260904   -1.9183365    0.8658043 
C     2.8385476   -1.1380775   -0.1463493 
H     1.9498857   -2.9597528    0.6588382 
Pd    0.7389469   -0.3902950    0.3302033 
P     0.1438733    0.7643599   -1.6026119 
P    -1.2549340    0.3531629    1.2578599 
H     2.3340191   -0.4146167    2.4033097 
H     3.2986166   -0.1900400    0.1685340 
C    -0.2528488   -3.3474037    5.2768442 
C     0.6163013   -2.2794546    5.5465065 
C     1.2731833   -1.6247927    4.4962816 
C     1.0820675   -2.0317192    3.1566387 
C     0.2104113   -3.1157501    2.9003431 
C    -0.4512211   -3.7638130    3.9494135 
H    -0.7719350   -3.8556327    6.0956936 
H     0.7815123   -1.9527566    6.5783312 
H     1.9467822   -0.7880990    4.7125879 
H     0.0365415   -3.4406073    1.8679689 
H    -1.1279410   -4.5969189    3.7320766 
C     4.1558462   -2.4751399   -4.0197643 
C     4.4334004   -1.1730399   -3.5752211 
C     4.0142233   -0.7628318   -2.3040186 
C     3.2929035   -1.6362875   -1.4559023 
C     3.0419950   -2.9518895   -1.9096685 
C     3.4697315   -3.3646011   -3.1757166 
H     4.4838184   -2.8006455   -5.0120171 
H     4.9869438   -0.4794665   -4.2166555 
H     4.2522640    0.2480294   -1.9533712 
H     2.4981442   -3.6587301   -1.2759656 
H     3.2647621   -4.3869731   -3.5095207 
C    -1.3455803    1.2063682    2.9386521 
C    -2.5069866   -1.0043317    1.7141520 
C    -0.0510519    0.1075974   -3.3737815 
C     1.3859900    2.0911914   -2.0919454 
C    -1.8806099    0.0955777    3.8655419 
C    -3.0182876   -0.6058248    3.1170044 
C     0.7135301    1.1320546   -4.2716363 
C     0.9895544    2.4532418   -3.5341941 
C    -2.0495247    1.4798907    0.0336830 
C    -1.4678147    1.6198803   -1.2536334 
C    -0.0525752    1.9478299    3.3521422 
C    -3.5974878   -1.3280720    0.6691004 
C     0.4369155   -1.3449587   -3.6124993 
C     1.5984725    3.2409284   -1.0782720 
C     0.0466294    3.2751946    2.5820253 
C     0.0193681    2.1912314    4.8701779 
C    -4.5741779   -2.3895189    1.2136942 
C    -2.9819000   -1.7941108   -0.6558423 
C     0.2426845   -1.7377037   -5.0905944 
C    -0.2408958   -2.3790514   -2.7061756 
C     2.2932245    4.4540080   -1.7268266 
C     2.4155196    2.7492220    0.1288296 
C    -3.2615051    2.1358343    0.3297982 
C    -2.1511544    2.3810008   -2.2261468 
C    -3.9078551    2.9153732   -0.6368574 
C    -3.3557049    3.0276356   -1.9205732 
H    -2.1506771    1.9602448    2.8298545 
H    -1.8594038   -1.8945871    1.8300704 
H    -1.1395412    0.1505967   -3.5673580 
H     2.3234164    1.5006272   -2.1525703 
H    -1.0821998   -0.6275803    4.1033964 
H    -2.2294771    0.5254885    4.8195447 
H    -3.8838034    0.0778048    3.0157485 
H    -3.3684507   -1.4970703    3.6645859 
H     1.6876138    0.6801274   -4.5348055 
H     0.1706985    1.2999878   -5.2168393 
H     0.1124794    3.1239535   -3.5359300 
H     1.8038116    3.0057940   -4.0337586 
H     0.8073854    1.3085734    3.0698844 
H    -4.1750206   -0.4023590    0.4787356 
H     1.5208401   -1.3571144   -3.4012367 
H     0.6027895    3.5756953   -0.7239474 
H    -0.0460669    3.1204158    1.4929000 
H     1.0066555    3.7813979    2.7767826 
H    -0.7660114    3.9581752    2.8902839 
H     0.9286040    2.7654113    5.1197982 
H     0.0520595    1.2454925    5.4368972 
H    -0.8513562    2.7743056    5.2220667 
H    -5.1174770   -2.0369330    2.1060493 
H    -5.3240571   -2.6459578    0.4456229 
H    -4.0356710   -3.3170130    1.4831615 
H    -2.3921722   -2.7169986   -0.5097765 
H    -3.7640280   -2.0051884   -1.4051849 
H    -2.3084445   -1.0307929   -1.0805993 
H    -0.8276451   -1.7120774   -5.3678828 
H     0.6116406   -2.7642861   -5.2578962 
H     0.7912782   -1.0735175   -5.7788570 
H    -0.0853236   -2.1458032   -1.6358216 
H     0.1756806   -3.3825537   -2.8968897 
H    -1.3278846   -2.4230443   -2.8954341 
H     2.4760909    5.2351988   -0.9690744 
H     1.6822714    4.9026081   -2.5276257 
H     3.2706200    4.1684136   -2.1575279 
H     3.4201442    2.4195518   -0.1956110 
H     2.5483668    3.5500600    0.8741157 
H     1.9227387    1.8937201    0.6325365 
H    -3.7142809    2.0283293    1.3211178 
H    -1.7523743    2.4692321   -3.2397708 
H    -4.8487845    3.4189579   -0.3936275 
H    -3.8642674    3.6176254   -2.6896747 
