101
Energy =
C     1.5343477   -1.6440417    2.1601814 
C     2.2336068   -1.9174949    0.9437140 
C     2.9502671   -0.9034523    0.2694137 
H     2.0802248   -2.8847637    0.4492715 
Pd    0.7408568   -0.3484788    0.5222831 
P     0.1843622    0.7734533   -1.4319448 
P    -1.2518320    0.4462475    1.4140415 
H     1.9646150   -0.8877473    2.8301191 
H     3.2389600   -0.0198208    0.8596169 
C    -1.1742312   -4.4084818    4.0575305 
C    -0.4935860   -3.4419521    4.8136509 
C     0.3996872   -2.5602056    4.1910728 
C     0.6278072   -2.6193186    2.7976507 
C    -0.0673292   -3.5996242    2.0483806 
C    -0.9519508   -4.4862434    2.6724945 
H    -1.8718483   -5.0981607    4.5432264 
H    -0.6526152   -3.3793671    5.8952324 
H     0.9405976   -1.8200835    4.7916433 
H     0.0627354   -3.6482609    0.9616234 
H    -1.4814648   -5.2345050    2.0735540 
C     4.9930359   -1.1492538   -3.5088814 
C     5.0927902   -0.0006722   -2.7099180 
C     4.4367385    0.0508663   -1.4737711 
C     3.6576642   -1.0378291   -1.0130565 
C     3.5948373   -2.2001214   -1.8164909 
C     4.2510726   -2.2517360   -3.0501135 
H     5.5053064   -1.1952556   -4.4752028 
H     5.6897436    0.8537009   -3.0453536 
H     4.5327858    0.9423171   -0.8442331 
H     3.0329643   -3.0737925   -1.4750264 
H     4.1901725   -3.1605978   -3.6576901 
C    -1.3044772    1.5477353    2.9531965 
C    -2.4131991   -0.8515208    2.1659736 
C    -0.2278043   -0.1311340   -3.0534586 
C     1.5022080    1.8575362   -2.2418118 
C    -1.6113161    0.5432588    4.0773738 
C    -2.7737319   -0.3235236    3.5748800 
C     1.0106922    0.1243017   -3.9355158 
C     1.3673097    1.6074309   -3.7595374 
C    -2.0659708    1.4780977    0.1147995 
C    -1.3689853    1.7190988   -1.0969737 
C    -0.1733437    2.5696568    3.1914056 
C    -3.5903515   -1.3344845    1.2926171 
C    -0.7886531   -1.5676147   -2.9619268 
C     1.6200005    3.3117776   -1.7230700 
C     1.2279637    1.9481405    3.2757679 
C    -0.2446995    3.7047179    2.1553307 
C    -4.4173706   -2.3958115    2.0444016 
C    -3.0848322   -1.8873358   -0.0468580 
C     0.1673159   -2.5733239   -2.3099288 
C    -1.2442912   -2.0561557   -4.3513278 
C     2.4021662    4.2087192   -2.7007314 
C     2.2952606    3.3154834   -0.3401865 
C    -3.3106160    2.1025169    0.3346345 
C    -1.9195035    2.6058043   -2.0455242 
C    -3.8513218    2.9715230   -0.6213844 
C    -3.1484095    3.2341295   -1.8072004 
H    -2.2314115    2.1319728    2.7879441 
H    -1.7246901   -1.7075990    2.2958527 
H    -1.0435381    0.4996353   -3.4580788 
H     2.4218425    1.3200087   -1.9370316 
H    -0.7317099   -0.0908954    4.2885031 
H    -1.8650754    1.0779595    5.0098848 
H    -3.6963119    0.2868299    3.5241651 
H    -2.9733068   -1.1689321    4.2542604 
H     1.8607949   -0.5086465   -3.6182242 
H     0.7916470   -0.1195579   -4.9890584 
H     0.5751618    2.2425064   -4.2004353 
H     2.3108998    1.8624856   -4.2709938 
H    -0.3958198    3.0133320    4.1829847 
H    -4.2511484   -0.4699137    1.0845884 
H    -1.6914992   -1.5037332   -2.3295798 
H     0.6020020    3.7358384   -1.6191282 
H     1.2851664    1.1711209    4.0577379 
H     1.9820271    2.7189191    3.5089262 
H     1.5068425    1.4812771    2.3110691 
H     0.5439919    4.4552883    2.3330992 
H    -1.2219906    4.2168468    2.1951001 
H    -0.1179347    3.3166086    1.1301218 
H    -4.8779368   -1.9890990    2.9602218 
H    -5.2301408   -2.7742661    1.4006665 
H    -3.7800032   -3.2518184    2.3321105 
H    -2.4024541   -2.7417295    0.1132116 
H    -3.9209481   -2.2279060   -0.6812825 
H    -2.5305845   -1.1159727   -0.6084748 
H     1.0707367   -2.7233441   -2.9242873 
H    -0.3262042   -3.5527455   -2.1854802 
H     0.4820475   -2.2198622   -1.3089478 
H    -1.9316745   -1.3352635   -4.8288236 
H    -1.7728240   -3.0210523   -4.2632965 
H    -0.3841685   -2.2088514   -5.0272654 
H     3.4146727    3.8046060   -2.8845189 
H     2.5167383    5.2212030   -2.2764642 
H     1.8914501    4.3092097   -3.6729909 
H     3.3610226    3.0382336   -0.4338657 
H     2.2454630    4.3113934    0.1303971 
H     1.8217470    2.5908306    0.3444313 
H    -3.8610476    1.9189271    1.2636699 
H    -1.3869523    2.8075288   -2.9810064 
H    -4.8184995    3.4500596   -0.4375413 
H    -3.5607407    3.9242190   -2.5501345 
