101
Energy =
C     1.7642809   -1.3800262    2.1127477 
C     2.4248746   -1.7186875    0.8922124 
C     3.0641461   -0.7246917    0.1139499 
H     2.2904425   -2.7251446    0.4760885 
Pd    0.8616191   -0.2407783    0.4264243 
P     0.2030179    0.8494063   -1.5118680 
P    -1.1603610    0.4343034    1.3236892 
H     2.1857456   -0.5466539    2.6932497 
H     3.3607415    0.1996935    0.6343112 
C    -0.6586755   -4.1290015    4.3871166 
C    -0.5252525   -4.2963744    2.9987454 
C     0.2528628   -3.4056121    2.2504924 
C     0.9374686   -2.3370262    2.8779110 
C     0.7988123   -2.1865913    4.2762308 
C     0.0055512   -3.0687868    5.0218144 
H    -1.2735287   -4.8227901    4.9691934 
H    -1.0375294   -5.1228275    2.4952599 
H     0.3115925   -3.5271606    1.1628900 
H     1.3334242   -1.3775035    4.7861463 
H    -0.0834245   -2.9348571    6.1049430 
C     4.9033652   -1.1553684   -3.7525214 
C     5.0503912    0.0274707   -3.0131772 
C     4.4621974    0.1398027   -1.7468317 
C     3.7045951   -0.9217525   -1.1963386 
C     3.5868113   -2.1162019   -1.9449169 
C     4.1780600   -2.2291606   -3.2070711 
H     5.3631351   -1.2484307   -4.7415552 
H     5.6316674    0.8620452   -3.4187109 
H     4.5955044    1.0596853   -1.1657668 
H     3.0274431   -2.9647638   -1.5408133 
H     4.0756682   -3.1621191   -3.7709454 
C    -1.3275749    1.2393146    3.0322326 
C    -2.3629849   -0.9518406    1.7067598 
C    -0.2951674   -0.1247686   -3.0488788 
C     1.4943403    1.8838727   -2.4186603 
C    -2.3039299    0.3175431    3.8127091 
C    -3.2538425   -0.3853524    2.8284601 
C     0.9464249   -0.0033873   -3.9552074 
C     1.3775881    1.4718660   -3.9049771 
C    -1.9054423    1.6628001    0.1570901 
C    -1.2994610    1.8377826   -1.1125142 
C     0.0109885    1.5289999    3.7507995 
C    -3.0087169   -1.7272904    0.5339828 
C    -0.9264126   -1.5155369   -2.8131502 
C     1.5502547    3.3939466   -2.1015060 
C     0.9207677    2.4447650    2.9187668 
C    -0.2377315    2.1281499    5.1481340 
C    -4.0093877   -0.9217218   -0.3116332 
C    -3.6653159   -3.0183734    1.0629115 
C     0.0332919   -2.5355832   -2.1852801 
C    -1.5382471   -2.0590311   -4.1185797 
C     2.7173151    4.0565989   -2.8593886 
C     1.6690454    3.6397091   -0.5884987 
C    -3.0593242    2.4092095    0.4759598 
C    -1.8743449    2.7264089   -2.0442389 
C    -3.6113487    3.3016494   -0.4508049 
C    -3.0223710    3.4573340   -1.7151668 
H    -1.8197646    2.2098571    2.8310293 
H    -1.6595385   -1.6602211    2.1925399 
H    -1.0850185    0.5156334   -3.4895799 
H     2.4291135    1.4307325   -2.0368264 
H    -1.7162788   -0.4508771    4.3492224 
H    -2.8565348    0.8983548    4.5702076 
H    -4.0017026    0.3207087    2.4226961 
H    -3.8144568   -1.1937711    3.3290788 
H     1.7668824   -0.6461469   -3.5859624 
H     0.7136273   -0.3240804   -4.9851703 
H     0.6257168    2.1033927   -4.4172191 
H     2.3410288    1.6253827   -4.4199873 
H     0.5229626    0.5576564    3.8840965 
H    -2.1697604   -2.0318334   -0.1229418 
H    -1.7604504   -1.3547890   -2.1034923 
H     0.6102287    3.8619539   -2.4526653 
H     1.1603232    1.9858368    1.9401209 
H     1.8737952    2.6358064    3.4418810 
H     0.4377211    3.4201326    2.7259670 
H     0.7216473    2.3476143    5.6478046 
H    -0.8040253    1.4408504    5.7987473 
H    -0.8032807    3.0754025    5.0747245 
H    -3.5395521   -0.0613727   -0.8139939 
H    -4.4460607   -1.5682306   -1.0926816 
H    -4.8427741   -0.5408443    0.3053326 
H    -4.5572080   -2.7915094    1.6737760 
H    -3.9923850   -3.6556236    0.2230935 
H    -2.9645259   -3.6004979    1.6854735 
H     0.8632126   -2.7814275   -2.8694193 
H    -0.4991612   -3.4725256   -1.9465432 
H     0.4658168   -2.1402436   -1.2446366 
H    -2.2471561   -1.3377640   -4.5624721 
H    -2.0852099   -2.9982595   -3.9264253 
H    -0.7564156   -2.2762250   -4.8680112 
H     3.6808121    3.5916153   -2.5792441 
H     2.7754262    5.1305938   -2.6124891 
H     2.6020268    3.9699222   -3.9528109 
H     2.5657606    3.1395049   -0.1772249 
H     1.7520202    4.7176771   -0.3683377 
H     0.7880402    3.2559257   -0.0453455 
H    -3.5430087    2.2896706    1.4500014 
H    -1.4223081    2.8511803   -3.0338519 
H    -4.5072477    3.8728945   -0.1876569 
H    -3.4553982    4.1507813   -2.4430250 
