101
Energy =
C     1.5760861   -1.6536703    1.9902032 
C     2.1196733   -2.0933175    0.7482529 
C     2.8839850   -1.2245489   -0.0627628 
H     1.8087183   -3.0632071    0.3415655 
Pd    0.7843470   -0.3897834    0.3149265 
P     0.2624611    0.7787854   -1.6301591 
P    -1.1484699    0.5241054    1.2343984 
H     2.1418389   -0.8863003    2.5355650 
H     3.3197861   -0.3368287    0.4212707 
C    -1.1608145   -3.8964233    4.4468682 
C    -0.4142282   -2.8374356    4.9860269 
C     0.4867471   -2.1294026    4.1805518 
C     0.6557531   -2.4571342    2.8158924 
C    -0.1020185   -3.5294064    2.2877577 
C    -0.9942307   -4.2430904    3.0957263 
H    -1.8640903   -4.4519862    5.0753027 
H    -0.5286225   -2.5663041    6.0407022 
H     1.0759939   -1.3116773    4.6102048 
H    -0.0089383   -3.7972525    1.2300541 
H    -1.5700496   -5.0697782    2.6669948 
C     4.5708543   -2.1250163   -3.9178363 
C     4.7224329   -0.8516509   -3.3470154 
C     4.1897117   -0.5840098   -2.0804180 
C     3.4735165   -1.5731752   -1.3664381 
C     3.3569691   -2.8601438   -1.9419935 
C     3.8994683   -3.1306727   -3.2024787 
H     4.9896708   -2.3392843   -4.9061831 
H     5.2678297   -0.0694808   -3.8851724 
H     4.3306195    0.4042800   -1.6284808 
H     2.8359868   -3.6587305   -1.4053220 
H     3.7987830   -4.1328557   -3.6314564 
C    -1.2007685    1.7354702    2.6907916 
C    -2.3510945   -0.6987247    2.0302496 
C     0.1517520    0.0499924   -3.3842590 
C     1.4877485    2.1101476   -2.1421679 
C    -1.7128682    0.8721145    3.8612061 
C    -2.8520856   -0.0007334    3.3165104 
C     0.9543258    1.0322408   -4.2925535 
C     1.1381745    2.3994907   -3.6113382 
C    -2.0246071    1.4295585   -0.1147670 
C    -1.4166736    1.5279286   -1.3909581 
C     0.0375741    2.6304798    2.9321053 
C    -3.4315211   -1.3043853    1.1063757 
C     0.6148243   -1.4191192   -3.5323172 
C     1.7555230    3.3178711   -1.2158415 
C    -0.3194358    3.7952927    3.8762231 
C     1.2657943    1.8646995    3.4415353 
C    -4.2943632   -2.3176594    1.8837266 
C    -2.8063176   -1.9600638   -0.1344676 
C     0.4768226   -1.8812789   -4.9960914 
C    -0.1338775   -2.3825405   -2.6011404 
C     2.5007658    2.8774977    0.0557170 
C     0.5114949    4.1587605   -0.8851134 
C    -3.2918959    2.0090575    0.1004823 
C    -2.1143903    2.1774134   -2.4313224 
C    -3.9629398    2.6684582   -0.9361932 
C    -3.3740674    2.7461425   -2.2063684 
H    -2.0266572    2.4101771    2.3937994 
H    -1.6730651   -1.5182015    2.3357753 
H    -0.9266087    0.0961861   -3.6256185 
H     2.4135269    1.4985975   -2.1570953 
H    -0.9051808    0.2239204    4.2445499 
H    -2.0497845    1.5092646    4.6971379 
H    -3.7356374    0.6270018    3.0888155 
H    -3.1700463   -0.7525558    4.0582321 
H     1.9554147    0.5942501   -4.4625414 
H     0.4703605    1.1275120   -5.2789567 
H     0.2287478    3.0218314   -3.6833452 
H     1.9503629    2.9749152   -4.0915400 
H     0.2980928    3.0745325    1.9533218 
H    -4.0940317   -0.4851411    0.7651718 
H     1.6868926   -1.4472157   -3.2712934 
H     2.4455600    3.9659417   -1.7929529 
H    -1.1809754    4.3727333    3.4965507 
H     0.5355258    4.4862316    3.9749282 
H    -0.5707420    3.4313346    4.8884807 
H     2.1409472    2.5337459    3.5013657 
H     1.5215156    1.0342761    2.7622359 
H     1.0945211    1.4464864    4.4492369 
H    -4.8352871   -1.8439463    2.7200560 
H    -5.0452571   -2.7735561    1.2154755 
H    -3.6659995   -3.1274458    2.2968956 
H    -2.1007855   -2.7585642    0.1570590 
H    -3.5830298   -2.4087497   -0.7773093 
H    -2.2511613   -1.2269306   -0.7449303 
H    -0.5781155   -1.8409638   -5.3258737 
H     0.8232344   -2.9243294   -5.0970401 
H     1.0764112   -1.2656503   -5.6872207 
H    -0.0037118   -2.1007256   -1.5383204 
H     0.2446170   -3.4116599   -2.7266003 
H    -1.2174126   -2.3910000   -2.8187308 
H     1.9115386    2.1276939    0.6171929 
H     2.6885248    3.7327029    0.7270700 
H     3.4751262    2.4185049   -0.1894385 
H    -0.1834481    3.6108566   -0.2259795 
H     0.8074074    5.0855404   -0.3643506 
H    -0.0480358    4.4454983   -1.7917453 
H    -3.7670875    1.9399900    1.0845728 
H    -1.6794120    2.2447080   -3.4320129 
H    -4.9481943    3.1096738   -0.7555770 
H    -3.8963245    3.2498141   -3.0260221 
