101
Energy =
C     1.7996521   -1.2663301    2.0976583 
C     2.2404836   -1.8882605    0.8949077 
C     2.8468072   -1.1203922   -0.1303024 
H     1.9714291   -2.9348424    0.7052018 
Pd    0.7420269   -0.3799926    0.3360452 
P     0.1367738    0.7379026   -1.6152308 
P    -1.2558874    0.3656695    1.2534902 
H     2.3394781   -0.3589039    2.4074802 
H     3.2999754   -0.1639029    0.1686318 
C    -0.2263174   -3.2603779    5.3311274 
C    -0.4226962   -3.7001514    4.0109499 
C     0.2340752   -3.0653388    2.9507719 
C     1.0988067   -1.9715555    3.1883665 
C     1.2881491   -1.5412491    4.5209308 
C     0.6360749   -2.1825059    5.5823562 
H    -0.7416081   -3.7582755    6.1586785 
H    -1.0939685   -4.5412587    3.8080105 
H     0.0617091   -3.4085100    1.9240680 
H     1.9564938   -0.6967795    4.7228362 
H     0.7997260   -1.8375216    6.6084623 
C     4.1721866   -2.5105212   -3.9821741 
C     4.4396122   -1.1991010   -3.5593283 
C     4.0178996   -0.7714010   -2.2947462 
C     3.3040722   -1.6365082   -1.4318545 
C     3.0633387   -2.9613502   -1.8637375 
C     3.4936159   -3.3913932   -3.1231459 
H     4.5022537   -2.8497308   -4.9691304 
H     4.9872079   -0.5117750   -4.2124927 
H     4.2479710    0.2469865   -1.9609568 
H     2.5256672   -3.6620207   -1.2180177 
H     3.2966945   -4.4207504   -3.4398987 
C    -1.3510548    1.2440687    2.9209496 
C    -2.4995492   -0.9922579    1.7312618 
C    -0.0556054    0.0498745   -3.3746872 
C     1.3688642    2.0650485   -2.1284004 
C    -1.8792133    0.1445049    3.8650345 
C    -3.0129825   -0.5748979    3.1278144 
C     0.6995770    1.0650425   -4.2909521 
C     0.9678340    2.4001087   -3.5759163 
C    -2.0584849    1.4677550    0.0121691 
C    -1.4800736    1.5886909   -1.2785661 
C    -0.0623028    1.9995533    3.3222975 
C    -3.5882027   -1.3385018    0.6915072 
C     0.4436391   -1.4025614   -3.5896809 
C     1.5740424    3.2332902   -1.1345152 
C     0.0278317    3.3161687    2.5328659 
C     0.0096124    2.2654742    4.8365564 
C    -4.5598646   -2.3957015    1.2530740 
C    -2.9698154   -1.8231301   -0.6254430 
C     0.2499224   -1.8219336   -5.0605350 
C    -0.2241344   -2.4267962   -2.6648589 
C     2.2604533    4.4396705   -1.8040753 
C     2.3947511    2.7677687    0.0804571 
C    -3.2734960    2.1220307    0.2994476 
C    -2.1700341    2.3282847   -2.2629391 
C    -3.9262722    2.8808346   -0.6793181 
C    -3.3776661    2.9732804   -1.9661407 
H    -2.1606718    1.9914068    2.8010439 
H    -1.8466579   -1.8767241    1.8608937 
H    -1.1446718    0.0809147   -3.5672211 
H     2.3105395    1.4804373   -2.1803740 
H    -1.0765157   -0.5702769    4.1134934 
H    -2.2301374    0.5869715    4.8125214 
H    -3.8824040    0.1021167    3.0161271 
H    -3.3580516   -1.4595040    3.6892360 
H     1.6762263    0.6157571   -4.5490656 
H     0.1534099    1.2136273   -5.2374600 
H     0.0862738    3.0648226   -3.5873468 
H     1.7775622    2.9497431   -4.0859501 
H     0.8013688    1.3616624    3.0483643 
H    -4.1702236   -0.4188806    0.4858794 
H     1.5280089   -1.4023978   -3.3802850 
H     0.5762326    3.5673606   -0.7854866 
H    -0.0656461    3.1450870    1.4461898 
H     0.9851774    3.8307776    2.7186470 
H    -0.7883555    3.9987802    2.8324894 
H     0.9155823    2.8487234    5.0768248 
H     0.0485553    1.3283149    5.4169558 
H    -0.8642819    2.8483675    5.1808093 
H    -5.1054154   -2.0311992    2.1392685 
H    -5.3080703   -2.6684127    0.4889861 
H    -4.0169854   -3.3160186    1.5380075 
H    -2.3763465   -2.7410704   -0.4642299 
H    -3.7505104   -2.0493240   -1.3718491 
H    -2.2991158   -1.0639755   -1.0619062 
H    -0.8211653   -1.8103706   -5.3358737 
H     0.6275217   -2.8479513   -5.2111659 
H     0.7912540   -1.1647930   -5.7612264 
H    -0.0687883   -2.1744136   -1.5988238 
H     0.2003850   -3.4298845   -2.8395014 
H    -1.3110344   -2.4828520   -2.8514109 
H     3.2395319    4.1531909   -2.2303507 
H     2.4384445    5.2348935   -1.0598902 
H     1.6462525    4.8705124   -2.6121266 
H     3.4015166    2.4394046   -0.2386375 
H     2.5222842    3.5821341    0.8118619 
H     1.9079662    1.9176885    0.5989616 
H    -3.7236095    2.0293542    1.2934812 
H    -1.7739954    2.4006610   -3.2788799 
H    -4.8694811    3.3833894   -0.4428720 
H    -3.8914372    3.5464214   -2.7444732 
