101
Energy =
C     1.6387257   -1.5325088    2.0914130 
C     2.2100489   -1.9883698    0.8649046 
C     2.8931550   -1.0977337    0.0045539 
H     1.9669862   -2.9967811    0.5078964 
Pd    0.7519076   -0.4107928    0.3926512 
P     0.1207706    0.7166975   -1.5444115 
P    -1.1730988    0.4243346    1.3803706 
H     2.1535144   -0.7073668    2.6045453 
H     3.2813687   -0.1679731    0.4492798 
C    -0.9349763   -3.8916924    4.6198082 
C    -0.8490648   -4.1792906    3.2471873 
C    -0.0109106   -3.4243715    2.4191396 
C     0.7698620   -2.3678946    2.9460473 
C     0.6782672   -2.0959776    4.3292890 
C    -0.1660110   -2.8483926    5.1569784 
H    -1.5946058   -4.4799310    5.2656497 
H    -1.4468586   -4.9903336    2.8182929 
H     0.0172798   -3.6392444    1.3452000 
H     1.2834061   -1.2901304    4.7597643 
H    -0.2186767   -2.6226436    6.2271357 
C     4.5200772   -1.9740630   -3.8817817 
C     4.6506480   -0.6948793   -3.3191664 
C     4.1384260   -0.4359577   -2.0421337 
C     3.4652482   -1.4411128   -1.3083896 
C     3.3684915   -2.7323742   -1.8771278 
C     3.8901367   -2.9936162   -3.1483076 
H     4.9227603   -2.1816733   -4.8782398 
H     5.1635455    0.0993002   -3.8715818 
H     4.2641041    0.5575375   -1.5963798 
H     2.8780703   -3.5413428   -1.3274346 
H     3.8051176   -3.9995759   -3.5719290 
C    -1.0976967    1.4426777    2.9797096 
C    -2.4588879   -0.7973933    2.0278243 
C    -0.1020926   -0.0569111   -3.2640048 
C     1.3264579    2.0102997   -2.1697873 
C    -1.9060927    0.6107351    4.0046614 
C    -3.0451252   -0.1177862    3.2835971 
C     0.5501346    0.9577443   -4.2618227 
C     0.8451464    2.3155514   -3.5971236 
C    -2.0245762    1.4765995    0.1252914 
C    -1.5157158    1.5165750   -1.1988436 
C     0.3254295    1.8281191    3.4458328 
C    -3.4845827   -1.3269218    1.0014999 
C     0.4804347   -1.4850211   -3.4293519 
C     1.7166657    3.1874360   -1.2482168 
C     1.0634263    2.6540026    2.3853044 
C     0.2830256    2.5767440    4.7914808 
C    -4.4312876   -2.3470079    1.6645818 
C    -2.7926099   -1.9466779   -0.2203941 
C     0.2633329   -1.9895696   -4.8702012 
C    -0.0932847   -2.5026115   -2.4346802 
C     0.5764561    4.1794663   -0.9653591 
C     2.9514706    3.9160034   -1.8161604 
C    -3.2183013    2.1608819    0.4325652 
C    -2.2606896    2.1800060   -2.1967598 
C    -3.9228232    2.8528714   -0.5603660 
C    -3.4521110    2.8448851   -1.8811094 
H    -1.6502631    2.3732137    2.7429036 
H    -1.8290495   -1.6467497    2.3591131 
H    -1.1972960   -0.1051640   -3.4109098 
H     2.2243725    1.3648489   -2.2668539 
H    -1.2365396   -0.1359254    4.4694415 
H    -2.2880200    1.2587152    4.8115465 
H    -3.8419074    0.5930392    2.9914365 
H    -3.5133030   -0.8669666    3.9445309 
H     1.5130232    0.5276819   -4.5911409 
H    -0.0758099    1.0711292   -5.1627357 
H    -0.0436860    2.9693157   -3.5754245 
H     1.6200395    2.8607978   -4.1638785 
H     0.8830502    0.8836543    3.5989548 
H    -4.0931477   -0.4682992    0.6551440 
H     1.5698983   -1.4091031   -3.2578754 
H     2.0213994    2.7356175   -0.2853236 
H     1.1334461    2.0929837    1.4339545 
H     2.0904068    2.8953069    2.7097663 
H     0.5375994    3.6038945    2.1802553 
H     1.3014688    2.8729496    5.0967766 
H    -0.1405555    1.9561116    5.5986965 
H    -0.3249417    3.4966612    4.7105621 
H    -5.0229555   -1.8960608    2.4786709 
H    -5.1401586   -2.7508929    0.9213214 
H    -3.8588500   -3.1943564    2.0851887 
H    -2.1345212   -2.7815533    0.0802854 
H    -3.5335716   -2.3373983   -0.9387805 
H    -2.1713494   -1.2055855   -0.7518724 
H    -0.8154977   -2.0631317   -5.1018602 
H     0.7040232   -2.9945105   -4.9883766 
H     0.7308589   -1.3328994   -5.6224575 
H     0.0784781   -2.1893833   -1.3863852 
H     0.3845890   -3.4869903   -2.5767596 
H    -1.1809936   -2.6313192   -2.5771426 
H     0.2054820    4.6438127   -1.8962751 
H     0.9365978    4.9917294   -0.3107302 
H    -0.2778623    3.6970925   -0.4636605 
H     2.7114808    4.4446365   -2.7556672 
H     3.3189913    4.6681724   -1.0970744 
H     3.7776658    3.2121029   -2.0236586 
H    -3.6127873    2.1456479    1.4533951 
H    -1.9144431    2.1844002   -3.2334763 
H    -4.8480432    3.3797950   -0.3065448 
H    -4.0111360    3.3604349   -2.6684713 
