101
Energy =
C     1.7285265   -1.5480787    2.0108022 
C     2.3463620   -1.8501173    0.7604197 
C     3.0258284   -0.8387264    0.0368484 
H     2.1575003   -2.8239499    0.2908463 
Pd    0.8537847   -0.2906844    0.3761200 
P     0.2699637    0.7966912   -1.5805599 
P    -1.2012628    0.4086782    1.2261724 
H     2.2000983   -0.7623914    2.6181744 
H     3.3595752    0.0379456    0.6139295 
C    -0.7078714   -4.3176905    4.2360127 
C     0.1038752   -3.3873851    4.9023236 
C     0.8951662   -2.4918131    4.1706369 
C     0.8935564   -2.5113252    2.7572150 
C     0.0717053   -3.4564707    2.0992855 
C    -0.7183999   -4.3496082    2.8313025 
H    -1.3290502   -5.0153234    4.8067580 
H     0.1232797   -3.3601057    5.9967347 
H     1.5330541   -1.7733795    4.6978616 
H     0.0335268   -3.4708425    1.0035406 
H    -1.3525526   -5.0707104    2.3047866 
C     4.9656086   -1.1373563   -3.7957781 
C     4.2506732   -2.2388525   -3.2952668 
C     3.6208600   -2.1669498   -2.0481101 
C     3.6869616   -0.9861486   -1.2716053 
C     4.4341546    0.1041351   -1.7777503 
C     5.0620255    0.0328283   -3.0274970 
H     5.4570532   -1.1982502   -4.7719500 
H     4.1889034   -3.1627056   -3.8794769 
H     3.0831974   -3.0433006   -1.6731973 
H     4.5301360    1.0130701   -1.1725416 
H     5.6351624    0.8888480   -3.3982391 
C    -1.2862338    1.3282850    2.8907654 
C    -2.4575859   -0.9489316    1.6820836 
C     0.1388357   -0.2461503   -3.1541937 
C     1.4348525    2.0827130   -2.3265584 
C    -2.4470068    0.6051654    3.6203105 
C    -2.3817716   -0.8754980    3.2261683 
C     1.2702636    0.3037013   -4.0547161 
C     1.3801419    1.8187013   -3.8467604 
C    -1.9415694    1.5535177   -0.0204361 
C    -1.3574749    1.6200037   -1.3114447 
C     0.0633739    1.3163453    3.6656189 
C    -3.8896866   -0.8311366    1.0828983 
C     0.1940462   -1.7706354   -2.8940717 
C     1.2466709    3.5453706   -1.8678472 
C     1.1694110    2.0492728    2.8915854 
C    -0.0813330    1.9417081    5.0673310 
C    -4.8671932   -1.7973876    1.7847555 
C    -3.9021952   -1.1063435   -0.4294226 
C     0.3272582   -2.5615722   -4.2077428 
C    -1.0146081   -2.2539066   -2.0828162 
C     2.3003197    4.4576918   -2.5258014 
C     1.2993787    3.6670093   -0.3374466 
C    -3.0965470    2.3131561    0.2549681 
C    -1.9858208    2.3792504   -2.3186313 
C    -3.6975486    3.0845604   -0.7481092 
C    -3.1551171    3.0999701   -2.0418547 
H    -1.5402801    2.3799368    2.6623429 
H    -2.0119942   -1.8957708    1.3290274 
H    -0.8426556    0.0124718   -3.5993199 
H     2.4210107    1.7318049   -1.9645010 
H    -2.3804809    0.7438543    4.7112617 
H    -3.4170588    1.0345238    3.3084251 
H    -3.1797740   -1.4731798    3.6934022 
H    -1.4263481   -1.3120992    3.5669430 
H     2.2256522   -0.1761486   -3.7719850 
H     1.0791181    0.0531106   -5.1117233 
H     0.5089813    2.3378267   -4.2912884 
H     2.2805863    2.2207270   -4.3421931 
H     0.3657999    0.2590970    3.7928075 
H    -4.2668572    0.1951374    1.2482893 
H     1.1048680   -1.9550625   -2.2931441 
H     0.2474378    3.8835868   -2.2047257 
H     1.3200930    1.6110662    1.8842469 
H     2.1316561    1.9897076    3.4292468 
H     0.9192620    3.1173668    2.7590041 
H     0.9012790    1.9745195    5.5688361 
H    -0.7630446    1.3710243    5.7189234 
H    -0.4585036    2.9786499    4.9992348 
H    -5.0499055   -1.5263016    2.8375056 
H    -5.8420180   -1.7828529    1.2676959 
H    -4.4857441   -2.8347501    1.7565681 
H    -3.6100823   -2.1520981   -0.6321114 
H    -4.9150498   -0.9532312   -0.8393851 
H    -3.2149239   -0.4470994   -0.9830300 
H    -0.5163723   -2.3458146   -4.8891698 
H     0.3226841   -3.6462665   -4.0019732 
H     1.2665166   -2.3264243   -4.7357722 
H    -1.0819194   -1.7216865   -1.1160030 
H    -0.9373347   -3.3335535   -1.8643188 
H    -1.9578563   -2.0853256   -2.6322678 
H     3.3233797    4.1302378   -2.2626753 
H     2.1788270    5.4972357   -2.1757938 
H     2.2151013    4.4634953   -3.6253057 
H     2.2596224    3.2864027    0.0569022 
H     1.1966555    4.7192116   -0.0214222 
H     0.4867302    3.0944068    0.1416539 
H    -3.5374372    2.3019133    1.2569771 
H    -1.5556134    2.4195619   -3.3245108 
H    -4.5957210    3.6676369   -0.5212105 
H    -3.6325481    3.6882605   -2.8318937 
