101
Energy =
C     1.6994856   -1.4681299    2.1197393 
C     2.3116421   -1.8515055    0.8884415 
C     2.9460927   -0.8864365    0.0694221 
H     2.1520493   -2.8663669    0.5031024 
Pd    0.7548525   -0.3648789    0.4230921 
P     0.1117430    0.7644896   -1.5042019 
P    -1.2132993    0.3933689    1.3867535 
H     2.1468706   -0.6139739    2.6479261 
H     3.2655800    0.0457288    0.5613448 
C    -0.6826696   -4.0622188    4.6075976 
C    -0.5625557   -4.3263447    3.2331116 
C     0.2133681   -3.4941622    2.4186325 
C     0.8959803   -2.3801609    2.9598826 
C     0.7776322   -2.1367650    4.3472999 
C    -0.0058724   -2.9651395    5.1614033 
H    -1.2935772   -4.7118848    5.2424411 
H    -1.0824281   -5.1837958    2.7928311 
H     0.2722498   -3.6975776    1.3442736 
H     1.3198668   -1.2966656    4.7951292 
H    -0.0790250   -2.7589993    6.2343369 
C     4.7492723   -1.4487097   -3.7975033 
C     4.9005985   -0.2401329   -3.1011820 
C     4.3231780   -0.0846468   -1.8350000 
C     3.5693568   -1.1262614   -1.2422409 
C     3.4513585   -2.3477316   -1.9454462 
C     4.0324510   -2.5041524   -3.2078289 
H     5.2004729   -1.5755538   -4.7867057 
H     5.4783790    0.5797535   -3.5402468 
H     4.4645438    0.8533760   -1.2858378 
H     2.9005714   -3.1844202   -1.5060702 
H     3.9293316   -3.4575627   -3.7361523 
C    -1.2147449    1.3180823    3.0521590 
C    -2.4964332   -0.8743466    1.9451200 
C    -0.3061230   -0.1373448   -3.1072184 
C     1.4106667    1.8825373   -2.3188641 
C    -2.2055114    0.5326680    3.9521040 
C    -3.2578768   -0.1644422    3.0805074 
C     0.9862853    0.0160161   -3.9322717 
C     1.4027078    1.4888085   -3.8160810 
C    -1.9667323    1.6049612    0.2028688 
C    -1.4053557    1.7282095   -1.0938457 
C     0.1753311    1.5445415    3.6923622 
C    -3.3542009   -1.6524721    0.9165276 
C    -0.9373255   -1.5409193   -2.9774245 
C     1.3551992    3.3969666   -2.0168084 
C     1.1189553    2.3338477    2.7764436 
C     0.0391142    2.2429997    5.0594700 
C    -2.5066303   -2.7072549    0.1879120 
C    -4.1522082   -0.7866656   -0.0720675 
C     0.0350891   -2.5969866   -2.4349073 
C    -1.5456974   -1.9868676   -4.3210801 
C     2.5098844    4.1266944   -2.7319785 
C     1.3900887    3.6757298   -0.5075332 
C    -3.0858010    2.3934114    0.5417865 
C    -2.0027800    2.5941946   -2.0325524 
C    -3.6598786    3.2631043   -0.3933992 
C    -3.1257789    3.3559156   -1.6872500 
H    -1.6421998    2.3091756    2.8073030 
H    -1.8239786   -1.6145074    2.4286426 
H    -1.0705562    0.5232771   -3.5625305 
H     2.3443689    1.4864545   -1.8779191 
H    -1.6418190   -0.2372857    4.5116197 
H    -2.6679092    1.2060760    4.6931977 
H    -3.9862213    0.5605378    2.6728419 
H    -3.8376765   -0.9021988    3.6637408 
H     1.7854143   -0.6342287   -3.5312441 
H     0.8197355   -0.2780570   -4.9829455 
H     0.6830333    2.1268554   -4.3649863 
H     2.3983028    1.6599958   -4.2592319 
H     0.6143040    0.5452021    3.8660992 
H    -4.0927910   -2.1968214    1.5385665 
H    -1.7728868   -1.4410972   -2.2591246 
H     0.4040721    3.7964073   -2.4190720 
H     1.2642433    1.8121991    1.8106714 
H     2.1110187    2.4577539    3.2445829 
H     0.7178104    3.3404899    2.5604975 
H     1.0360187    2.4193244    5.4992160 
H    -0.5411411    1.6414514    5.7788767 
H    -0.4590524    3.2241799    4.9517335 
H    -2.1624012   -3.4869330    0.8860919 
H    -3.0801802   -3.1960397   -0.6182552 
H    -1.6106604   -2.2434565   -0.2604931 
H    -3.4945006   -0.3070221   -0.8174818 
H    -4.8736480   -1.4168632   -0.6200686 
H    -4.7220125    0.0104013    0.4349648 
H     0.8476777   -2.7981869   -3.1531105 
H    -0.4911951   -3.5470477   -2.2411386 
H     0.4944662   -2.2618969   -1.4847206 
H    -2.2713378   -1.2459004   -4.7007820 
H    -2.0729771   -2.9494819   -4.2043534 
H    -0.7646503   -2.1263336   -5.0897238 
H     3.4881315    3.7291937   -2.4030082 
H     2.4866637    5.2041262   -2.4942977 
H     2.4506302    4.0248581   -3.8284346 
H     2.3049113    3.2555101   -0.0505108 
H     1.3800870    4.7606587   -0.3065499 
H     0.5194435    3.2339328    0.0055666 
H    -3.5262407    2.3261110    1.5408717 
H    -1.5849729    2.6817779   -3.0411293 
H    -4.5301766    3.8648220   -0.1128120 
H    -3.5768912    4.0286578   -2.4234849 
