101
Energy =
C     1.7686464   -1.2229719    2.2037155 
C     2.3909471   -1.6219447    0.9826445 
C     3.0218967   -0.6725315    0.1448465 
H     2.2355566   -2.6450439    0.6173360 
Pd    0.8209667   -0.1631913    0.4866428 
P     0.0832137    0.8242210   -1.4796163 
P    -1.2370596    0.4622610    1.3446502 
H     2.2112107   -0.3638694    2.7290696 
H     3.3307592    0.2751232    0.6128837 
C    -0.5890999   -3.8445456    4.6867505 
C     0.1656957   -2.8083834    5.2575356 
C     0.9359984   -1.9662426    4.4448525 
C     0.9694287   -2.1412306    3.0430738 
C     0.2097351   -3.1962823    2.4833598 
C    -0.5588796   -4.0379153    3.2958974 
H    -1.1936226   -4.5005679    5.3211613 
H     0.1584640   -2.6572072    6.3419605 
H     1.5300934   -1.1674320    4.9023679 
H     0.2055275   -3.3458450    1.3975182 
H    -1.1440023   -4.8439787    2.8407600 
C     4.8525234   -1.3559417   -3.6916574 
C     4.1670596   -2.4043391   -3.0542637 
C     3.5769995   -2.2063048   -1.8020463 
C     3.6546303   -0.9502295   -1.1553306 
C     4.3723572    0.0861610   -1.7979729 
C     4.9598709   -0.1110991   -3.0539161 
H     5.3124433   -1.5151084   -4.6721641 
H     4.0948794   -3.3842976   -3.5372387 
H     3.0480642   -3.0373094   -1.3259417 
H     4.4720263    1.0563241   -1.2986878 
H     5.5088687    0.7070104   -3.5316529 
C    -1.4914951    1.0914116    3.1061770 
C    -2.4272410   -0.9749733    1.5159680 
C    -0.5613011   -0.3025736   -2.8459436 
C     1.2732908    1.7115448   -2.6219426 
C    -2.3145533   -0.0297130    3.7902674 
C    -3.2795670   -0.6248283    2.7512901 
C    -0.5458839    0.6422347   -4.0671574 
C     0.7610548    1.4698876   -4.0773979 
C    -1.9372587    1.7516928    0.2215467 
C    -1.3262163    1.9366567   -1.0464933 
C    -0.1921531    1.5273337    3.8178850 
C    -3.1213348   -1.4724312    0.2212420 
C     0.3306031   -1.5767736   -2.9422856 
C     1.6387780    3.1717143   -2.2572355 
C     0.5080685    2.6590520    3.0491143 
C    -0.4674447    1.9326507    5.2772015 
C    -4.4179719   -0.7228643   -0.1261324 
C    -3.3710674   -2.9899293    0.3113767 
C     0.2763517   -2.2424737   -4.3286562 
C    -0.0604042   -2.5890912   -1.8525159 
C     2.8227253    3.6494148   -3.1205647 
C     1.9530362    3.3340916   -0.7609656 
C    -3.0335197    2.5595232    0.5859336 
C    -1.8156138    2.9413152   -1.9068991 
C    -3.5129584    3.5491129   -0.2813176 
C    -2.8988388    3.7442212   -1.5266205 
H    -2.1348261    1.9859660    2.9993911 
H    -1.7200503   -1.7659463    1.8357261 
H    -1.5988053   -0.5982245   -2.6062005 
H     2.1872292    1.1048935   -2.4707365 
H    -1.6310069   -0.8180948    4.1561452 
H    -2.8552156    0.3709200    4.6643735 
H    -4.0612470    0.1125009    2.4895806 
H    -3.7944321   -1.5206729    3.1412035 
H    -0.6784749    0.0810706   -5.0069880 
H    -1.4176624    1.3144570   -3.9944688 
H     0.5937812    2.4335560   -4.5897560 
H     1.5437837    0.9414541   -4.6479377 
H     0.4797448    0.6502180    3.8306705 
H    -2.4039512   -1.3082512   -0.6063085 
H     1.3815827   -1.2767709   -2.7650605 
H     0.7678058    3.8138171   -2.4915359 
H     0.7547016    2.3459181    2.0166477 
H     1.4504642    2.9504410    3.5441606 
H    -0.1348523    3.5562001    2.9863110 
H     0.4636151    2.2709614    5.7641433 
H    -0.8679668    1.0915008    5.8678227 
H    -1.1939829    2.7646759    5.3268833 
H    -4.2622458    0.3654721   -0.2018608 
H    -4.8084814   -1.0743882   -1.0968464 
H    -5.2012083   -0.9071474    0.6305194 
H    -4.0473012   -3.2313370    1.1512852 
H    -3.8397765   -3.3662825   -0.6145434 
H    -2.4273450   -3.5422979    0.4655486 
H    -0.7598704   -2.5088014   -4.6067500 
H     0.8724144   -3.1714907   -4.3192498 
H     0.6920686   -1.5956259   -5.1192845 
H    -0.0287309   -2.1253296   -0.8454976 
H     0.6263778   -3.4527714   -1.8508116 
H    -1.0839722   -2.9711543   -2.0184215 
H     3.7244933    3.0442175   -2.9152381 
H     3.0629067    4.7035588   -2.8995362 
H     2.6041034    3.5730386   -4.1992408 
H     2.7787752    2.6666756   -0.4538634 
H     2.2540343    4.3710816   -0.5340300 
H     1.0761539    3.0967937   -0.1326926 
H    -3.5230770    2.4201587    1.5548864 
H    -1.3430543    3.1137034   -2.8773711 
H    -4.3612240    4.1720897    0.0193406 
H    -3.2595589    4.5257525   -2.2028214 
