89
Energy =
C     1.6441923    2.4170479   -0.6628486 
C     1.3467606    2.5426072    0.7132879 
C     1.8458065    1.5855160    1.6514307 
H     0.5994967    3.2763178    1.0403893 
Pd    0.5893662    0.5516952    0.1487572 
P     0.2492087   -1.4840069    1.1950219 
P    -0.7107141   -0.2526693   -1.6027786 
H     2.5188927    1.8013359   -0.9259064 
H     2.8272332    1.1424793    1.4301207 
C     0.2680311    4.8676799   -3.9195198 
C     1.2124059    3.8518173   -4.1318850 
C     1.6603945    3.0763046   -3.0559196 
C     1.1655460    3.2887497   -1.7469491 
C     0.2349737    4.3347338   -1.5454597 
C    -0.2095564    5.1113295   -2.6203937 
H    -0.0826012    5.4784566   -4.7574922 
H     1.6081391    3.6699327   -5.1363872 
H     2.4124358    2.2967011   -3.2239990 
H    -0.1429478    4.5480306   -0.5412994 
H    -0.9299538    5.9168883   -2.4447063 
C     0.6377084    1.2972633    5.7791362 
C     1.8978935    0.8364560    5.3694155 
C     2.2897798    0.9535398    4.0289566 
C     1.4290169    1.5292428    3.0678166 
C     0.1624215    1.9925020    3.4970494 
C    -0.2255981    1.8814294    4.8368466 
H     0.3306000    1.2064356    6.8258868 
H     2.5829013    0.3902705    6.0979252 
H     3.2813393    0.6027318    3.7212844 
H    -0.5372783    2.4175877    2.7690555 
H    -1.2112636    2.2436900    5.1472802 
C     1.7446136   -2.5298711    1.7241832 
C    -0.5878553   -1.5647684    2.8846562 
C    -2.2914541    0.6249842   -2.1403774 
C     0.0582364   -0.1899149   -3.3413449 
C     1.5737384   -2.7258945    3.2524687 
C     0.0818687   -2.7540206    3.6029639 
C    -1.7916358    1.5154921   -3.2944290 
C    -0.9521270    0.6088118   -4.2048470 
C    -0.7385251   -2.5403329    0.0407961 
C    -1.2088756   -1.9762802   -1.1737069 
C     3.1232828   -1.9573662    1.3543603 
C    -2.1215171   -1.5762809    2.8813613 
C    -3.1587788    1.2884475   -1.0591314 
C     0.5076601   -1.5141189   -3.9803406 
C    -1.0692887   -3.8750702    0.3528052 
C    -2.0229804   -2.7481769   -2.0275616 
C     3.3828914   -1.7910145   -0.1429974 
C    -2.7370289   -0.3179807    2.2664105 
C    -2.4982080    2.4191269   -0.2654272 
C     1.6184230   -2.2495475   -3.2275061 
C    -1.8666596   -4.6361763   -0.5119025 
C    -2.3510078   -4.0698061   -1.7001692 
H     1.6023945   -3.4958383    1.2028724 
H    -0.2369658   -0.6296376    3.3641232 
H    -2.8920536   -0.1913821   -2.5882465 
H     0.9504910    0.4401668   -3.1744849 
H     2.0973064   -3.6415589    3.5785842 
H     2.0477032   -1.8740873    3.7736624 
H    -0.0804410   -2.6770892    4.6928331 
H    -0.3822744   -3.7050330    3.2799708 
H    -2.6462650    1.9629601   -3.8322841 
H    -1.1767512    2.3482104   -2.9076143 
H    -0.4127044    1.1853012   -4.9761712 
H    -1.6182231   -0.1011631   -4.7313545 
H     3.8832570   -2.6334803    1.7905765 
H     3.2507340   -0.9888112    1.8712435 
H    -2.4538336   -1.6826928    3.9315430 
H    -2.4838061   -2.4770822    2.3509344 
H    -3.5217235    0.5053906   -0.3703766 
H    -4.0612947    1.6787789   -1.5674468 
H     0.8527137   -1.2706359   -5.0039367 
H    -0.3651795   -2.1798798   -4.1108765 
H    -0.7060855   -4.3293503    1.2796268 
H    -2.4043262   -2.3182953   -2.9599702 
H     4.3965015   -1.3959395   -0.3278292 
H     2.6573549   -1.0834542   -0.5904780 
H     3.2895032   -2.7514854   -0.6786414 
H    -2.4030185   -0.1948692    1.2213411 
H    -3.8389498   -0.3653384    2.2668893 
H    -2.4291903    0.5866238    2.8182668 
H    -3.1763339    2.7892105    0.5220268 
H    -2.2347658    3.2678562   -0.9168585 
H    -1.5691635    2.0662131    0.2260790 
H     1.9250497   -3.1598693   -3.7696900 
H     1.2845504   -2.5566515   -2.2211132 
H     2.5106243   -1.6098112   -3.1083724 
H    -2.1140702   -5.6708516   -0.2541596 
H    -2.9801672   -4.6587617   -2.3750491 
