89
Energy =
C     1.5478450    2.4633173   -0.7643028 
C     1.3291967    2.5732537    0.6277270 
C     1.8697943    1.5959731    1.5213739 
H     0.6123213    3.3123418    1.0068607 
Pd    0.5139267    0.6000088    0.0807081 
P     0.1930106   -1.4522633    1.0928338 
P    -0.8562934   -0.1671138   -1.6242154 
H     2.3971091    1.8370791   -1.0815682 
H     2.8301163    1.1439415    1.2349986 
C     0.0366213    4.9632557   -3.9222080 
C     0.9802320    3.9594852   -4.1877532 
C     1.4732943    3.1686266   -3.1428485 
C     1.0248664    3.3526497   -1.8125975 
C     0.0959599    4.3882713   -1.5582739 
C    -0.3933924    5.1803809   -2.6017411 
H    -0.3495889    5.5860305   -4.7353479 
H     1.3409053    3.7994218   -5.2090232 
H     2.2280350    2.4016205   -3.3523249 
H    -0.2464557    4.5798846   -0.5372130 
H    -1.1118313    5.9776355   -2.3848612 
C     0.9180573    1.2506783    5.7099205 
C     0.0131675    1.8789676    4.8376353 
C     0.3176833    2.0094189    3.4780594 
C     1.5406862    1.5216929    2.9588845 
C     2.4439138    0.9000947    3.8500196 
C     2.1353562    0.7636593    5.2101827 
H     0.6764387    1.1457345    6.7724029 
H    -0.9397253    2.2609901    5.2185890 
H    -0.4141423    2.4710352    2.8058666 
H     3.4011566    0.5262670    3.4691756 
H     2.8514615    0.2811409    5.8835360 
C     1.6964927   -2.5443523    1.4485525 
C    -0.4833110   -1.5371267    2.8475595 
C    -2.4645903    0.6829522   -2.1258871 
C    -0.1102315   -0.0657200   -3.3596133 
C     1.7131001   -2.6966175    2.9896841 
C     0.2655846   -2.7176577    3.5021602 
C    -2.0385808    1.5198194   -3.3496614 
C    -1.2026318    0.5851689   -4.2397832 
C    -0.8876534   -2.4687415   -0.0099767 
C    -1.3427596   -1.9013219   -1.2267994 
C     3.0076687   -2.0313618    0.8268081 
C    -2.0115764   -1.5493825    2.9806330 
C    -3.2829830    1.3735790   -1.0227130 
C     0.5328824   -1.3458060   -3.9110547 
C    -1.2516733   -3.7919899    0.3139082 
C    -2.1522148   -2.6674061   -2.0904377 
C     4.1814851   -3.0035416    1.0106296 
C    -2.6828560   -0.3127143    2.3759340 
C    -2.5929026    2.5247235   -0.2869018 
C     1.6861183   -1.8764745   -3.0509237 
C    -2.0574087   -4.5424661   -0.5519918 
C    -2.5070320   -3.9804762   -1.7564421 
H     1.4418677   -3.5188212    0.9889042 
H    -0.0966237   -0.5984204    3.2904229 
H    -3.0772363   -0.1582388   -2.5048402 
H     0.6864279    0.6861886   -3.2114018 
H     2.2641435   -3.6062250    3.2840564 
H     2.2421655   -1.8328869    3.4322343 
H     0.2229412   -2.6303002    4.6023504 
H    -0.2257921   -3.6738698    3.2392456 
H    -2.9284163    1.9083098   -3.8761345 
H    -1.4333634    2.3920062   -3.0398176 
H    -0.7357448    1.1255202   -5.0819898 
H    -1.8524713   -0.1994926   -4.6731092 
H     3.2555426   -1.0542002    1.2810997 
H     2.8494324   -1.8407643   -0.2502525 
H    -2.2504873   -1.6166444    4.0590674 
H    -2.4186432   -2.4674915    2.5167669 
H    -3.6063808    0.6056152   -0.2972287 
H    -4.2116985    1.7461142   -1.4960113 
H     0.9018222   -1.1163385   -4.9290972 
H    -0.2362110   -2.1305129   -4.0361584 
H    -0.9039303   -4.2455617    1.2473439 
H    -2.5093057   -2.2396127   -3.0335235 
H     5.0896063   -2.6158736    0.5183121 
H     3.9525494   -3.9902741    0.5693238 
H     4.4194514   -3.1573946    2.0775490 
H    -2.4682923   -0.2407809    1.2944433 
H    -3.7782235   -0.3477532    2.5002943 
H    -2.3104104    0.6129274    2.8479317 
H    -3.2427349    2.9195326    0.5124192 
H    -2.3521278    3.3532947   -0.9717489 
H    -1.6484820    2.1832265    0.1821081 
H     2.1653191   -2.7508362   -3.5221941 
H     1.3261999   -2.1904588   -2.0543819 
H     2.4612278   -1.1028174   -2.9006463 
H    -2.3336142   -5.5678015   -0.2863474 
H    -3.1331596   -4.5659303   -2.4371687 
