89
Energy =
C     1.7230703    2.4268624   -0.7270283 
C     1.3361941    2.5514962    0.6287567 
C     1.8161694    1.6337772    1.6119138 
H     0.5337835    3.2502796    0.8963592 
Pd    0.7004613    0.5410119    0.0038822 
P     0.1851254   -1.5047431    0.9711888 
P    -0.6205343   -0.1161116   -1.7723389 
H     2.6447371    1.8580408   -0.9283015 
H     2.8212244    1.2173488    1.4625492 
C     0.4671497    4.8015214   -4.0910009 
C     1.4353926    3.7967739   -4.2387621 
C     1.8391357    3.0443909   -3.1287699 
C     1.2761458    3.2693909   -1.8498328 
C     0.3176206    4.3008054   -1.7142802 
C    -0.0816282    5.0554422   -2.8224730 
H     0.1516545    5.3946998   -4.9551435 
H     1.8851574    3.6060095   -5.2185547 
H     2.6118733    2.2753524   -3.2446668 
H    -0.1109914    4.5288805   -0.7333799 
H    -0.8218207    5.8521665   -2.6961888 
C     0.3799093    1.4238304    5.6694683 
C     1.6619102    0.9592783    5.3384586 
C     2.1246080    1.0480605    4.0191372 
C     1.3137580    1.5947739    2.9985712 
C     0.0201097    2.0529981    3.3471798 
C    -0.4361549    1.9756298    4.6678354 
H     0.0183154    1.3581703    6.7005354 
H     2.3088017    0.5344295    6.1130593 
H     3.1339589    0.6997403    3.7720277 
H    -0.6466634    2.4489333    2.5733575 
H    -1.4388580    2.3386013    4.9165409 
C     1.5366354   -2.7392037    1.4257457 
C    -0.5569971   -1.4566868    2.7065424 
C    -2.1266489    0.9540170   -2.1798653 
C     0.0548549   -0.1017321   -3.5302556 
C     1.7013510   -2.5063374    2.9415259 
C     0.2872863   -2.4522542    3.5402201 
C    -1.7998613    1.5456838   -3.5701069 
C    -1.0909241    0.4626901   -4.3972718 
C    -0.9381155   -2.4100056   -0.1776433 
C    -1.2990302   -1.7906948   -1.3994183 
C     2.8167216   -2.7715454    0.5718378 
C    -2.0838175   -1.6212313    2.7968185 
C    -2.4917591    1.9881510   -1.1047587 
C     0.7147890   -1.3993528   -4.0137367 
C    -1.4379883   -3.6937389    0.1232976 
C    -2.1633044   -2.4621719   -2.2886353 
C     3.6062680   -1.4636936    0.4649520 
C    -2.6193585   -1.3348271    4.2076119 
C    -2.8766905    1.3826913    0.2490666 
C     1.8889563   -1.8454250   -3.1354109 
C    -2.2894881   -4.3538393   -0.7712146 
C    -2.6543487   -3.7363558   -1.9775192 
H     1.0346787   -3.7179064    1.2971149 
H    -0.3024699   -0.4326118    3.0371471 
H    -2.9584835    0.2301295   -2.2831646 
H     0.8312161    0.6847702   -3.4606032 
H     2.3117386   -3.3112566    3.3884024 
H     2.2245129   -1.5516753    3.1323339 
H     0.3060410   -2.1440586    4.5992549 
H    -0.1729585   -3.4586775    3.4972391 
H    -2.7229000    1.9049463   -4.0581247 
H    -1.1319878    2.4188604   -3.4514331 
H    -0.6887270    0.8674944   -5.3430296 
H    -1.7992759   -0.3437714   -4.6677589 
H     2.5555757   -3.1249024   -0.4418801 
H     3.4657660   -3.5572748    1.0037639 
H    -2.3689315   -2.6443785    2.4909515 
H    -2.5673532   -0.9393241    2.0741773 
H    -3.3302471    2.5948755   -1.4962276 
H    -1.6410186    2.6819724   -0.9795483 
H     1.0627456   -1.2316491   -5.0507907 
H    -0.0407327   -2.2049234   -4.0702245 
H    -1.1639312   -4.1850609    1.0631322 
H    -2.4581415   -1.9897357   -3.2313153 
H     4.5286529   -1.6158580   -0.1202176 
H     3.8968198   -1.0728199    1.4560041 
H     3.0069509   -0.6851083   -0.0468258 
H    -3.7191624   -1.4196567    4.2308795 
H    -2.2128218   -2.0460064    4.9475529 
H    -2.3449937   -0.3161963    4.5337966 
H    -3.1787892    2.1664661    0.9647671 
H    -2.0173516    0.8421594    0.6913210 
H    -3.7140339    0.6687089    0.1524626 
H     2.3660697   -2.7560197   -3.5346018 
H     1.5480946   -2.0677333   -2.1079201 
H     2.6606292   -1.0574274   -3.0653303 
H    -2.6713729   -5.3498100   -0.5255216 
H    -3.3219534   -4.2485191   -2.6776653 
