89
Energy =
C     1.4940633    2.5195054   -0.4916251 
C     1.2668838    2.5615000    0.9021930 
C     1.8315350    1.5774456    1.7688665 
H     0.5258824    3.2631848    1.3048895 
Pd    0.5239945    0.5845210    0.2717685 
P     0.1823495   -1.4582728    1.2952949 
P    -0.6807281   -0.2699350   -1.5286844 
H     2.3666960    1.9435797   -0.8381193 
H     2.7989349    1.1490831    1.4687737 
C    -0.0590284    5.2154157   -3.4629324 
C     0.8597576    4.2133848   -3.8107181 
C     1.3630360    3.3526371   -2.8278407 
C     0.9508957    3.4659464   -1.4795110 
C     0.0428379    4.4964297   -1.1412662 
C    -0.4566278    5.3579875   -2.1227374 
H    -0.4525136    5.8919857   -4.2281992 
H     1.1905574    4.1071030   -4.8490215 
H     2.0879937    2.5775144   -3.1022091 
H    -0.2831685    4.6253082   -0.1048937 
H    -1.1594838    6.1490686   -1.8419183 
C     0.9656399    1.2437251    5.9768905 
C     2.1908992    0.7952480    5.4610531 
C     2.4667448    0.9179995    4.0926239 
C     1.5230636    1.4894156    3.2102913 
C     0.2919222    1.9378710    3.7455991 
C     0.0190378    1.8197191    5.1129785 
H     0.7497443    1.1489918    7.0458682 
H     2.9383744    0.3531963    6.1279794 
H     3.4306404    0.5756385    3.6992558 
H    -0.4692109    2.3606833    3.0804863 
H    -0.9404512    2.1709735    5.5066063 
C     1.6497793   -2.5492709    1.7765570 
C    -0.6007181   -1.4795172    3.0056542 
C    -2.1860719    0.5412416   -2.3340198 
C     0.3390701   -0.4189171   -3.1200196 
C     1.5935160   -2.6070006    3.3216861 
C     0.1209004   -2.6181692    3.7598187 
C    -1.9574129    0.2892349   -3.8471197 
C    -0.4551388    0.4351886   -4.1432810 
C    -0.8537692   -2.4983328    0.1814506 
C    -1.2732411   -1.9570810   -1.0575719 
C     3.0022005   -2.1135476    1.1923226 
C    -2.1353839   -1.5020861    3.0413371 
C    -2.3409035    2.0368570   -1.9929852 
C     0.6329954   -1.8661156   -3.5712117 
C    -1.2644881   -3.7964997    0.5498833 
C    -2.1249282   -2.7165287   -1.8865748 
C     3.0520067   -2.1099227   -0.3398787 
C    -2.7881729   -0.3320214    2.2956093 
C    -2.6194706    2.3307794   -0.5162500 
C     1.7643181   -1.9359705   -4.6064771 
C    -2.1011447   -4.5434161   -0.2878755 
C    -2.5388842   -3.9980037   -1.5042264 
H     1.3916624   -3.5452308    1.3674955 
H    -0.2544218   -0.5177367    3.4310124 
H    -3.0727866   -0.0045793   -1.9634072 
H     1.3018381    0.0677283   -2.8811003 
H     2.1439416   -3.4902536    3.6906698 
H     2.0894110   -1.7121605    3.7385900 
H     0.0198496   -2.4752189    4.8501976 
H    -0.3474554   -3.5918117    3.5199267 
H    -2.2952212   -0.7269371   -4.1212865 
H    -2.5588706    0.9940178   -4.4485450 
H    -0.1647558    1.4954576   -4.0459659 
H    -0.2142158    0.1291540   -5.1764193 
H     3.7746932   -2.7994793    1.5886810 
H     3.2549791   -1.1096609    1.5817029 
H    -2.4397024   -1.4836295    4.1052055 
H    -2.5041958   -2.4614512    2.6328702 
H    -3.1796678    2.4178694   -2.6059479 
H    -1.4453380    2.5908360   -2.3246482 
H    -0.2858575   -2.3204287   -3.9849938 
H     0.9061074   -2.4786500   -2.6927418 
H    -0.9362682   -4.2280427    1.5006850 
H    -2.4700418   -2.3097473   -2.8414513 
H     4.0559985   -1.8354586   -0.7054964 
H     2.3322352   -1.3768611   -0.7544157 
H     2.7980451   -3.1022956   -0.7536380 
H    -2.5595504   -0.3692094    1.2147725 
H    -3.8855078   -0.3533973    2.4051874 
H    -2.4241998    0.6379041    2.6780023 
H    -2.7741437    3.4111128   -0.3576960 
H    -1.7711621    2.0123989    0.1216513 
H    -3.5214882    1.8007180   -0.1614114 
H     1.9377186   -2.9780333   -4.9245360 
H     2.7087496   -1.5480803   -4.1837044 
H     1.5318079   -1.3454078   -5.5100952 
H    -2.4171655   -5.5476321    0.0117837 
H    -3.2003515   -4.5735579   -2.1595032 
