89
Energy =
C     1.5813506    2.5411935   -0.6751431 
C     1.2330352    2.6670404    0.6906833 
C     1.7304513    1.7211892    1.6415569 
H     0.4498512    3.3751187    0.9896482 
Pd    0.5539933    0.6649334    0.0894888 
P     0.2036544   -1.3970868    1.0881325 
P    -0.7555093   -0.0824803   -1.6680039 
H     2.4798386    1.9435229   -0.8989654 
H     2.7302608    1.3072499    1.4474156 
C     0.2971706    4.9277199   -4.0177824 
C     1.2068503    3.8732336   -4.1915895 
C     1.6222764    3.1182353   -3.0882904 
C     1.1302058    3.3913511   -1.7899891 
C     0.2334352    4.4729428   -1.6282718 
C    -0.1786799    5.2292402   -2.7307622 
H    -0.0271401    5.5232061   -4.8771027 
H     1.6004767    3.6449793   -5.1874155 
H     2.3468477    2.3070664   -3.2254430 
H    -0.1401980    4.7339238   -0.6329394 
H    -0.8712014    6.0646245   -2.5853591 
C     0.4054282    1.2947370    5.7185963 
C     1.6874873    0.8735021    5.3345170 
C     2.1163174    1.0403001    4.0108540 
C     1.2716583    1.6269263    3.0417541 
C    -0.0177973    2.0488027    3.4443996 
C    -0.4427255    1.8876800    4.7678436 
H     0.0687127    1.1650168    6.7520492 
H     2.3592934    0.4182654    6.0696496 
H     3.1224174    0.7172742    3.7198331 
H    -0.7060706    2.4786680    2.7085405 
H    -1.4457220    2.2171314    5.0585742 
C     1.7657873   -2.4334149    1.3608533 
C    -0.4308392   -1.5979439    2.8593774 
C    -2.2293605    0.9769409   -2.2182288 
C    -0.0438203   -0.2678784   -3.4114373 
C     1.8538921   -2.6048594    2.8961177 
C     0.4355402   -2.7271394    3.4614155 
C    -1.9023291    1.3571719   -3.6833273 
C    -1.1801290    0.1836982   -4.3532192 
C    -0.9032166   -2.3682056   -0.0261308 
C    -1.4115659   -1.7443587   -1.1951501 
C     3.0363397   -1.8445797    0.7193163 
C    -1.9405686   -1.7948743    3.0655621 
C    -2.5230613    2.2070906   -1.3436546 
C     0.5858094   -1.6232429   -3.7631975 
C    -1.2913605   -3.6881902    0.2802245 
C    -2.3309048   -2.4417100   -2.0047715 
C     4.2419616   -2.7921671    0.7934672 
C    -2.8186293   -0.6946018    2.4695686 
C    -2.8766145    1.9149408    0.1140418 
C     1.7444131   -2.0382348   -2.8530156 
C    -2.1964747   -4.3739212   -0.5402626 
C    -2.7266594   -3.7452123   -1.6765945 
H     1.5393364   -3.4109790    0.8919750 
H    -0.1307125   -0.6392502    3.3243303 
H    -3.0973460    0.2897667   -2.1953855 
H     0.7429424    0.5112521   -3.4259880 
H     2.4745529   -3.4795580    3.1554814 
H     2.3451938   -1.7137399    3.3288178 
H     0.4280828   -2.6599093    4.5638251 
H     0.0020444   -3.7116493    3.1992776 
H    -2.8267663    1.6380061   -4.2177604 
H    -1.2424710    2.2451829   -3.6844956 
H    -0.7685588    0.4639036   -5.3394753 
H    -1.8798608   -0.6559071   -4.5275373 
H     3.2753838   -0.8917864    1.2282638 
H     2.8349332   -1.5879737   -0.3347941 
H    -2.1039117   -1.8546924    4.1585335 
H    -2.2452255   -2.7771988    2.6594811 
H    -3.3531998    2.7564018   -1.8276031 
H    -1.6482573    2.8786445   -1.3890656 
H     0.9379109   -1.5572411   -4.8103897 
H    -0.1965021   -2.4047401   -3.7529756 
H    -0.8881272   -4.1868571    1.1674171 
H    -2.7392885   -1.9702885   -2.9044367 
H     5.1208890   -2.3435953    0.2998558 
H     4.0232700   -3.7504391    0.2888228 
H     4.5229265   -3.0158201    1.8372109 
H    -3.8786271   -0.8461927    2.7345327 
H    -2.5130081    0.3014694    2.8339751 
H    -2.7483984   -0.6913479    1.3683023 
H    -3.1092045    2.8471819    0.6573928 
H    -2.0257901    1.4299367    0.6297057 
H    -3.7508799    1.2462445    0.2001127 
H     2.2102438   -2.9752448   -3.2015878 
H     1.3901726   -2.2072791   -1.8206423 
H     2.5282587   -1.2599976   -2.8191051 
H    -2.4924501   -5.3972657   -0.2886204 
H    -3.4417338   -4.2738524   -2.3148844 
