89
Energy =
C     1.6362635    2.3836879   -0.5437718 
C     1.3205497    2.5266359    0.8264201 
C     1.8004229    1.5753515    1.7808602 
H     0.5769252    3.2715178    1.1362636 
Pd    0.5505937    0.5372180    0.2765485 
P     0.1863792   -1.4954049    1.3120595 
P    -0.6880948   -0.2914484   -1.5015196 
H     2.5097273    1.7573590   -0.7857416 
H     2.7798809    1.1203323    1.5744120 
C     0.3354220    4.7987179   -3.8573885 
C     1.2982234    3.7934617   -4.0333391 
C     1.7215673    3.0304860   -2.9384513 
C     1.1828489    3.2444723   -1.6468939 
C     0.2343860    4.2806852   -1.4818009 
C    -0.1850267    5.0451520   -2.5751627 
H     0.0033841    5.3995487   -4.7099950 
H     1.7277403    3.6098535   -5.0235448 
H     2.4898820    2.2611199   -3.0779665 
H    -0.1785974    4.4943803   -0.4916298 
H    -0.9196207    5.8434730   -2.4274474 
C     0.5715018    1.3522387    5.9050278 
C     1.8284105    0.8730813    5.5061494 
C     2.2262130    0.9688763    4.1658426 
C     1.3749379    1.5416817    3.1945871 
C     0.1109111    2.0221318    3.6123669 
C    -0.2830610    1.9318629    4.9520604 
H     0.2598626    1.2784058    6.9517738 
H     2.5055260    0.4282468    6.2427986 
H     3.2138392    0.6020238    3.8638886 
H    -0.5817499    2.4447549    2.8760855 
H    -1.2664223    2.3071464    5.2541463 
C     1.6783263   -2.5643764    1.7821713 
C    -0.5879461   -1.5516913    3.0277154 
C    -2.2520958    0.5478558   -2.1301009 
C     0.1850650   -0.2333653   -3.1758491 
C     1.6216640   -2.6471555    3.3258946 
C     0.1503484   -2.6911914    3.7626251 
C    -1.7192171    1.3921249   -3.3057387 
C    -0.8123198    0.4658218   -4.1338554 
C    -0.8119256   -2.5476930    0.1679823 
C    -1.1905748   -2.0164384   -1.0899388 
C     3.0272252   -2.0936366    1.2172822 
C    -2.1209555   -1.5951785    3.0732109 
C    -3.1580298    1.2357314   -1.0955032 
C     0.7925285   -1.5568145   -3.6716025 
C    -1.1953992   -3.8616550    0.5080252 
C    -1.9493892   -2.8074717   -1.9771405 
C     3.0907838   -2.0470978   -0.3130706 
C    -2.7826176   -0.3938960    2.3907023 
C    -2.5319786    2.3917062   -0.3106573 
C     1.6993758   -1.3626558   -4.8957792 
C    -1.9492320   -4.6369018   -0.3820307 
C    -2.3266289   -4.1094782   -1.6265690 
H     1.4423417   -3.5587585    1.3562997 
H    -0.2499487   -0.5906568    3.4625768 
H    -2.8300839   -0.2918246   -2.5635566 
H     1.0115840    0.4720099   -2.9742134 
H     2.1887603   -3.5252770    3.6816234 
H     2.1013522   -1.7495338    3.7563905 
H     0.0455452   -2.5678770    4.8550857 
H    -0.3018233   -3.6682130    3.5057847 
H    -2.5579951    1.7902541   -3.9040014 
H    -1.1413837    2.2587920   -2.9354469 
H    -0.2685418    1.0249693   -4.9143336 
H    -1.4289192   -0.2987164   -4.6450865 
H     3.8059266   -2.7792188    1.6020268 
H     3.2635499   -1.0972955    1.6358733 
H    -2.4199299   -1.6332954    4.1379821 
H    -2.4817559   -2.5364647    2.6178874 
H    -3.5327765    0.4672416   -0.3953156 
H    -4.0490791    1.6032397   -1.6397610 
H    -0.0171202   -2.2681739   -3.9171249 
H     1.3719011   -2.0223707   -2.8531211 
H    -0.9049543   -4.2873449    1.4737137 
H    -2.2497074   -2.4072469   -2.9516271 
H     4.0961940   -1.7560548   -0.6615952 
H     2.3693582   -1.3059063   -0.7113778 
H     2.8458980   -3.0285135   -0.7572025 
H    -2.5124077   -0.3533063    1.3201623 
H    -3.8821281   -0.4485828    2.4581852 
H    -2.4546331    0.5548091    2.8498288 
H    -3.2427712    2.7834792    0.4364847 
H    -2.2439554    3.2211840   -0.9761921 
H    -1.6238225    2.0560187    0.2296722 
H     2.1415846   -2.3230491   -5.2105696 
H     2.5272928   -0.6661514   -4.6698307 
H     1.1392963   -0.9539289   -5.7547188 
H    -2.2424183   -5.6541886   -0.1038861 
H    -2.9142622   -4.7136407   -2.3250276 
