89
Energy =
C     1.5835197    2.5006534   -0.6198575 
C     1.3064775    2.5802168    0.7630816 
C     1.8439274    1.6212079    1.6757399 
H     0.5444804    3.2849357    1.1184992 
Pd    0.6015501    0.5796276    0.1632212 
P     0.2817009   -1.4550313    1.2138107 
P    -0.6704065   -0.2609801   -1.5964826 
H     2.4661788    1.9136566   -0.9194045 
H     2.8322134    1.2050779    1.4331791 
C     0.1313193    5.0986985   -3.7272671 
C     1.0338542    4.0643287   -4.0178395 
C     1.5037520    3.2354933   -2.9919496 
C     1.0732433    3.4132037   -1.6563982 
C     0.1814857    4.4752023   -1.3765576 
C    -0.2845684    5.3049066   -2.4010025 
H    -0.2349847    5.7512085   -4.5261902 
H     1.3785985    3.9078871   -5.0451443 
H     2.2179633    2.4365829   -3.2224650 
H    -0.1542465    4.6561585   -0.3511176 
H    -0.9738980    6.1219865   -2.1645987 
C     0.7331067    1.3203906    5.8298067 
C    -0.1718210    1.8620154    4.9013856 
C     0.1824960    1.9714193    3.5520953 
C     1.4556519    1.5493851    3.0996151 
C     2.3570317    1.0144452    4.0465027 
C     1.9991709    0.8990129    5.3965696 
H     0.4533606    1.2315953    6.8843702 
H    -1.1628623    2.1920374    5.2299195 
H    -0.5475735    2.3637040    2.8354001 
H     3.3532387    0.6952093    3.7199954 
H     2.7150516    0.4846939    6.1140874 
C     1.7669339   -2.4788994    1.7940325 
C    -0.6019595   -1.5056807    2.8789733 
C    -2.2745453    0.5739634   -2.1637874 
C     0.1397400   -0.2903856   -3.3199413 
C     1.5877498   -2.5935761    3.3284683 
C     0.0909013   -2.6427620    3.6598652 
C    -2.2504700    0.3798642   -3.7004664 
C    -0.8053345    0.5925360   -4.1775761 
C    -0.6877489   -2.5332640    0.0725941 
C    -1.1886677   -1.9764432   -1.1316858 
C     3.1441456   -1.9366614    1.3786995 
C    -2.1345142   -1.5789823    2.8303820 
C    -2.3655915    2.0637995   -1.7726677 
C     0.4190087   -1.6766682   -3.9363839 
C    -1.0121217   -3.8631279    0.4099547 
C    -2.0524055   -2.7470495   -1.9369448 
C     3.3738812   -1.8518800   -0.1317470 
C    -2.7907184   -0.4150071    2.0825068 
C    -2.4964308    2.3419295   -0.2737476 
C     1.4657135   -2.5116382   -3.1936027 
C    -1.8456260   -4.6274659   -0.4162846 
C    -2.3801938   -4.0618764   -1.5827194 
H     1.6165881   -3.4713333    1.3270119 
H    -0.3043400   -0.5413710    3.3347170 
H    -3.1066521    0.0183305   -1.6943904 
H     1.1084573    0.2201327   -3.1750208 
H     2.1283902   -3.4777202    3.7092934 
H     2.0340191   -1.7037700    3.8081712 
H    -0.0896940   -2.5233451    4.7429244 
H    -0.3420769   -3.6194409    3.3712441 
H    -2.5898797   -0.6370692   -3.9690143 
H    -2.9484576    1.0840560   -4.1874344 
H    -0.5290991    1.6544696   -4.0571087 
H    -0.6884859    0.3484358   -5.2480264 
H     3.9075838   -2.5949987    1.8352458 
H     3.2863888   -0.9427637    1.8408798 
H    -2.4936575   -1.6005252    3.8769282 
H    -2.4445856   -2.5402456    2.3794360 
H    -3.2489068    2.4763700   -2.2963026 
H    -1.4931227    2.6061684   -2.1768600 
H     0.7704899   -1.4911073   -4.9693817 
H    -0.5206369   -2.2484313   -4.0397929 
H    -0.6210133   -4.3077434    1.3302566 
H    -2.4760177   -2.3228950   -2.8516136 
H     4.3889481   -1.4837041   -0.3586807 
H     2.6499904   -1.1571039   -0.6014711 
H     3.2536224   -2.8375051   -0.6139119 
H    -2.4985279   -0.4126065    1.0170854 
H    -3.8908307   -0.4819732    2.1267396 
H    -2.4880608    0.5561528    2.5112495 
H    -2.5623433    3.4268409   -0.0855184 
H    -1.6196548    1.9527816    0.2818029 
H    -3.3986230    1.8669813    0.1494286 
H     1.6531985   -3.4614620   -3.7222021 
H     1.1387265   -2.7589581   -2.1692042 
H     2.4250082   -1.9692138   -3.1215238 
H    -2.0886032   -5.6587175   -0.1413768 
H    -3.0488997   -4.6463701   -2.2225063 
