89
Energy =
C     1.5411289    2.5450978   -0.5936927 
C     1.3476752    2.5795185    0.8071340 
C     1.9338054    1.5920311    1.6545452 
H     0.6070651    3.2696603    1.2303464 
Pd    0.6043786    0.6097333    0.1670933 
P     0.2340871   -1.4303724    1.1963447 
P    -0.6617480   -0.1881678   -1.6130470 
H     2.4143644    1.9861346   -0.9654960 
H     2.8967978    1.1694171    1.3327372 
C    -0.1862798    5.1917873   -3.5148122 
C     0.7111759    4.1837597   -3.8997820 
C     1.2796776    3.3454829   -2.9330100 
C     0.9491524    3.4820380   -1.5640348 
C     0.0624717    4.5185329   -1.1901526 
C    -0.4969822    5.3622042   -2.1551421 
H    -0.6289972    5.8522922   -4.2670886 
H     0.9783364    4.0589581   -4.9542713 
H     1.9994635    2.5758898   -3.2355003 
H    -0.1992538    4.6674535   -0.1382648 
H    -1.1805966    6.1595409   -1.8460307 
C     1.1360355    1.2356248    5.8753180 
C     0.1565943    1.7705988    5.0217606 
C     0.4066375    1.8921134    3.6502187 
C     1.6469815    1.4886802    3.1004458 
C     2.6228433    0.9566236    3.9721412 
C     2.3700533    0.8306697    5.3448073 
H     0.9384552    1.1385794    6.9476342 
H    -0.8103869    2.0867402    5.4267695 
H    -0.3788304    2.2816193    2.9925976 
H     3.5944873    0.6497249    3.5690059 
H     3.1426934    0.4207215    6.0034747 
C     1.6698351   -2.5127818    1.7927270 
C    -0.6662144   -1.4459295    2.8549511 
C    -2.1920544    0.6511793   -2.3496053 
C     0.2153625   -0.2792703   -3.2700566 
C     1.4919021   -2.5829781    3.3286742 
C    -0.0068005   -2.5900371    3.6542138 
C    -2.0330291    0.5437371   -3.9025092 
C    -0.9195223   -0.4461858   -4.2951707 
C    -0.7673498   -2.4661030    0.0444773 
C    -1.2563979   -1.8811879   -1.1515497 
C     3.0682516   -2.0563221    1.3498086 
C    -2.1994143   -1.4825778    2.7953909 
C    -2.4043303    2.1143944   -1.9156185 
C     1.4493433   -1.1848515   -3.4236719 
C    -1.1280719   -3.7895255    0.3700998 
C    -2.1545940   -2.6153944   -1.9542660 
C     3.2712864   -2.0225502   -0.1661293 
C    -2.8214418   -0.3065047    2.0377512 
C    -2.6393883    2.3469069   -0.4223674 
C     1.2227610   -2.6954647   -3.2802847 
C    -1.9861983   -4.5215120   -0.4600762 
C    -2.5144188   -3.9254197   -1.6141394 
H     1.4638092   -3.5076618    1.3527275 
H    -0.3481790   -0.4852066    3.3047444 
H    -3.0437032    0.0417137   -1.9960504 
H     0.5642130    0.7713828   -3.3428571 
H     2.0105605   -3.4708675    3.7309185 
H     1.9594753   -1.6927963    3.7874001 
H    -0.1903100   -2.4524090    4.7345983 
H    -0.4623276   -3.5590991    3.3741895 
H    -2.9985580    0.2827785   -4.3685841 
H    -1.7556623    1.5448747   -4.2786230 
H    -0.5463729   -0.2383809   -5.3144841 
H    -1.2816929   -1.4887571   -4.3037694 
H     3.8025154   -2.7430268    1.8122044 
H     3.2698387   -1.0592294    1.7821309 
H    -2.5664763   -1.4917515    3.8394524 
H    -2.5295256   -2.4377992    2.3458098 
H    -3.2758323    2.4896123   -2.4862539 
H    -1.5417647    2.7120633   -2.2576910 
H     2.2183226   -0.8550235   -2.7015015 
H     1.8704731   -0.9748612   -4.4256532 
H    -0.7476353   -4.2538232    1.2853541 
H    -2.5803713   -2.1698011   -2.8570537 
H     4.2978679   -1.7135433   -0.4263352 
H     2.5737793   -1.3006063   -0.6325956 
H     3.0859187   -3.0106516   -0.6227071 
H    -2.5238532   -0.3185676    0.9742194 
H    -3.9231527   -0.3442812    2.0762372 
H    -2.4969560    0.6602747    2.4613895 
H    -2.8028797    3.4191438   -0.2210362 
H    -1.7643736    2.0210109    0.1734499 
H    -3.5219157    1.7935692   -0.0561644 
H     2.1562167   -3.2397778   -3.5027635 
H     0.4493874   -3.0632525   -3.9765957 
H     0.9109520   -2.9687809   -2.2587853 
H    -2.2568072   -5.5485454   -0.1953929 
H    -3.2057827   -4.4822326   -2.2546268 
