89
Energy =
C     1.5972780    2.4257180   -0.6742869 
C     1.3815657    2.5139404    0.7198698 
C     1.9279030    1.5478596    1.6197127 
H     0.6553066    3.2404419    1.1059794 
Pd    0.5948969    0.5409759    0.1446507 
P     0.1589732   -1.4879473    1.1753102 
P    -0.7276422   -0.1926029   -1.6122621 
H     2.4579569    1.8263131   -1.0096621 
H     2.8906179    1.0919925    1.3449585 
C     0.0620284    5.0420622   -3.7296225 
C     0.9896713    4.0372036   -4.0421764 
C     1.4873268    3.2041558   -3.0321776 
C     1.0580149    3.3449451   -1.6914658 
C     0.1360657    4.3752027   -1.3909057 
C    -0.3533450    5.2128506   -2.3979767 
H    -0.3245016    5.6995219   -4.5148745 
H     1.3370744    3.9104114   -5.0727338 
H     2.2327738    2.4394695   -3.2771430 
H    -0.2080135    4.5232607   -0.3623455 
H    -1.0641263    6.0059458   -2.1440900 
C     1.0457229    1.5097647    5.8386288 
C     0.0676147    1.9334270    4.9236751 
C     0.3445633    1.9470838    3.5517267 
C     1.6106203    1.5438783    3.0635012 
C     2.5841271    1.1224586    3.9963172 
C     2.3047254    1.1056752    5.3693133 
H     0.8275647    1.4972199    6.9113038 
H    -0.9187952    2.2469654    5.2812110 
H    -0.4380163    2.2514516    2.8466506 
H     3.5740999    0.8173533    3.6386270 
H     3.0756439    0.7814355    6.0760310 
C     1.5780158   -2.6047853    1.7117543 
C    -0.6328506   -1.4315000    2.8972323 
C    -2.2967727    0.7121340   -2.1819475 
C     0.0372547   -0.2059336   -3.3256980 
C     1.6875854   -2.3151947    3.2206267 
C     0.2591344   -2.3377760    3.7803836 
C    -2.1521916    0.8652307   -3.7261210 
C    -1.1606401   -0.1637418   -4.2926670 
C    -0.8824578   -2.4844741    0.0284300 
C    -1.2928832   -1.9103333   -1.2026191 
C     2.8659832   -2.4885292    0.8842993 
C    -2.1369119   -1.7256175    2.9953753 
C    -2.5411652    2.0717875   -1.5026146 
C     1.1229212   -1.2599978   -3.5918649 
C    -1.2897435   -3.7922175    0.3619754 
C    -2.1326371   -2.6581207   -2.0548585 
C     2.7760483   -3.2473771   -0.4453494 
C    -3.0214675   -0.7397184    2.2293742 
C    -2.7690414    2.0363304    0.0088193 
C     2.4813287   -0.8793077   -2.9888229 
C    -2.1075047   -4.5275908   -0.5043509 
C    -2.5339844   -3.9556582   -1.7116955 
H     1.1796304   -3.6325407    1.5964239 
H    -0.4584474   -0.3814873    3.1986239 
H    -3.1232919    0.0199147   -1.9356086 
H     0.5034227    0.8000859   -3.3542306 
H     2.3361221   -3.0657306    3.7064721 
H     2.1458622   -1.3243018    3.3893256 
H     0.2197073   -1.9950604    4.8288411 
H    -0.1317062   -3.3735380    3.7582485 
H    -3.1420449    0.7995967   -4.2093936 
H    -1.7582397    1.8778775   -3.9313723 
H    -0.8201825    0.1261187   -5.3032587 
H    -1.6165084   -1.1647537   -4.3938725 
H     3.7003225   -2.8965576    1.4853764 
H     3.1003366   -1.4200161    0.7116133 
H    -2.3981154   -1.7011397    4.0709222 
H    -2.3410287   -2.7589477    2.6588895 
H    -3.4216648    2.5248625   -1.9978756 
H    -1.6897637    2.7339739   -1.7366865 
H     1.2300293   -1.3681050   -4.6875105 
H     0.7903156   -2.2484349   -3.2207935 
H    -0.9683741   -4.2429222    1.3071123 
H    -2.4856382   -2.2290901   -2.9960472 
H     3.6881301   -3.1126533   -1.0493950 
H     1.9148240   -2.9042528   -1.0453633 
H     2.6425495   -4.3292071   -0.2670653 
H    -2.8160542   -0.7796499    1.1449748 
H    -4.0905849   -0.9685023    2.3753820 
H    -2.8448367    0.2963820    2.5672226 
H    -2.9267428    3.0555468    0.4021248 
H    -1.8911755    1.6058016    0.5303094 
H    -3.6517664    1.4302182    0.2756865 
H     3.2312791   -1.6694377   -3.1551910 
H     2.4037546   -0.7084744   -1.8987761 
H     2.8636940    0.0502930   -3.4469509 
H    -2.4174492   -5.5419178   -0.2338327 
H    -3.1820801   -4.5199932   -2.3897302 
