89
Energy =
C     1.6105245    2.4913621   -0.5636452 
C     1.3139109    2.5557339    0.8161566 
C     1.8272442    1.5800991    1.7247221 
H     0.5546884    3.2643437    1.1698858 
Pd    0.5969027    0.5704872    0.1799100 
P     0.2292462   -1.4667145    1.2077701 
P    -0.6330390   -0.2457152   -1.6195538 
H     2.4922463    1.9005103   -0.8582209 
H     2.8132798    1.1541838    1.4899249 
C     0.2316731    5.1517374   -3.6518138 
C    -0.2061018    5.3385321   -2.3297274 
C     0.2361734    4.4884248   -1.3115047 
C     1.1248014    3.4244297   -1.5937616 
C     1.5770503    3.2657419   -2.9244970 
C     1.1317080    4.1156708   -3.9441030 
H    -0.1158003    5.8203770   -4.4458106 
H    -0.8935756    6.1566617   -2.0915038 
H    -0.1163482    4.6545619   -0.2892415 
H     2.2891129    2.4652112   -3.1561246 
H     1.4935080    3.9741112   -4.9677082 
C     0.6709188    1.2719747    5.8658649 
C     1.9409266    0.8493234    5.4456206 
C     2.3128487    0.9646331    4.0993378 
C     1.4220838    1.5016448    3.1436516 
C     0.1445058    1.9242680    3.5828973 
C    -0.2240673    1.8144411    4.9283626 
H     0.3803437    1.1833591    6.9175263 
H     2.6489449    0.4341490    6.1704110 
H     3.3121747    0.6447110    3.7832237 
H    -0.5771689    2.3179663    2.8583700 
H    -1.2182335    2.1450444    5.2467582 
C     1.6842837   -2.5115736    1.8259883 
C    -0.7025793   -1.5131645    2.8465573 
C    -2.2102760    0.6062274   -2.2354339 
C     0.2321735   -0.2765074   -3.3164747 
C     1.4595273   -2.6295224    3.3542004 
C    -0.0467461   -2.6620826    3.6418797 
C    -2.1370395    0.4195478   -3.7714918 
C    -0.6749808    0.6214761   -4.1989610 
C    -0.7212843   -2.5273443    0.0346578 
C    -1.1822068   -1.9582504   -1.1797615 
C     3.0799479   -1.9861239    1.4529868 
C    -2.2338745   -1.5665289    2.7537112 
C    -2.3027622    2.0950447   -1.8407145 
C     0.5125677   -1.6632941   -3.9314260 
C    -1.0687005   -3.8556797    0.3546654 
C    -2.0311015   -2.7148887   -2.0135469 
C     3.3541878   -1.8957151   -0.0496138 
C    -2.8534746   -0.3908845    1.9929910 
C    -2.4774742    2.3684902   -0.3454505 
C     1.5257498   -2.5155164   -3.1623599 
C    -1.8860607   -4.6065230   -0.4996050 
C    -2.3818135   -4.0284512   -1.6770265 
H     1.5344323   -3.5002089    1.3508482 
H    -0.4058240   -0.5547800    3.3152522 
H    -3.0618863    0.0553238   -1.7963967 
H     1.2022095    0.2210151   -3.1385079 
H     1.9784423   -3.5214512    3.7469170 
H     1.9023561   -1.7467366    3.8500595 
H    -0.2572839   -2.5452305    4.7198080 
H    -0.4829292   -3.6321135    3.3361199 
H    -2.4764620   -0.5928078   -4.0568333 
H    -2.8120146    1.1326861   -4.2775183 
H    -0.3934360    1.6799521   -4.0617752 
H    -0.5246038    0.3833565   -5.2665748 
H     3.8208489   -2.6576497    1.9271532 
H     3.2225523   -0.9972369    1.9254412 
H    -2.6230466   -1.5881771    3.7894476 
H    -2.5432955   -2.5216797    2.2894500 
H    -3.1669999    2.5154128   -2.3894001 
H    -1.4149036    2.6332435   -2.2161055 
H     0.8971997   -1.4771865   -4.9524557 
H    -0.4308235   -2.2222992   -4.0659482 
H    -0.7078215   -4.3099144    1.2826126 
H    -2.4249965   -2.2807636   -2.9367974 
H     4.3803002   -1.5401559   -0.2449321 
H     2.6536990   -1.1884098   -0.5356863 
H     3.2347824   -2.8768068   -0.5411647 
H    -2.5325531   -0.3887064    0.9359183 
H    -3.9552026   -0.4426367    2.0071686 
H    -2.5494666    0.5747439    2.4333074 
H    -2.5465636    3.4529476   -0.1559505 
H    -1.6185420    1.9758224    0.2347894 
H    -3.3931033    1.8944689    0.0489968 
H     1.7157514   -3.4655062   -3.6897861 
H     1.1657618   -2.7628066   -2.1491300 
H     2.4897083   -1.9864802   -3.0598690 
H    -2.1468455   -5.6369732   -0.2383164 
H    -3.0379865   -4.6022557   -2.3390909 
