89
Energy =
C     1.7022320    2.4358422   -0.7437440 
C     1.3145514    2.5655381    0.6113629 
C     1.8046103    1.6588182    1.5996112 
H     0.5058959    3.2585188    0.8751376 
Pd    0.6972874    0.5456596   -0.0010183 
P     0.1980216   -1.4975445    0.9799694 
P    -0.6224577   -0.1318885   -1.7706624 
H     2.6290211    1.8739825   -0.9411209 
H     2.8130628    1.2505240    1.4506137 
C     0.4267405    4.7767053   -4.1238867 
C     1.4014027    3.7772443   -4.2652405 
C     1.8112171    3.0358159   -3.1501375 
C     1.2481477    3.2666949   -1.8722857 
C     0.2829397    4.2926964   -1.7433374 
C    -0.1222907    5.0365306   -2.8566751 
H     0.1069647    5.3618112   -4.9919469 
H     1.8513200    3.5820640   -5.2440940 
H     2.5886716    2.2708230   -3.2611820 
H    -0.1464830    4.5248531   -0.7637494 
H    -0.8672360    5.8296018   -2.7354501 
C     0.3793857    1.4613200    5.6615298 
C     1.6636603    1.0035317    5.3299189 
C     2.1223322    1.0877074    4.0089093 
C     1.3053556    1.6234141    2.9873745 
C     0.0095711    2.0749987    3.3366550 
C    -0.4428948    2.0018803    4.6588500 
H     0.0208973    1.3992815    6.6939030 
H     2.3152947    0.5873358    6.1052413 
H     3.1335658    0.7452611    3.7612818 
H    -0.6616477    2.4624423    2.5623956 
H    -1.4472796    2.3597783    4.9081084 
C     1.5597545   -2.7196550    1.4382377 
C    -0.5401866   -1.4450181    2.7167786 
C    -2.1370701    0.9253540   -2.1811666 
C     0.0485308   -0.1235842   -3.5303396 
C     1.7256174   -2.4778113    2.9524831 
C     0.3124162   -2.4306134    3.5537341 
C    -1.8173467    1.5110257   -3.5755507 
C    -1.1028942    0.4281423   -4.3980131 
C    -0.9212319   -2.4177425   -0.1608118 
C    -1.2883902   -1.8088757   -1.3859816 
C     2.8385644   -2.7456246    0.5821641 
C    -2.0657561   -1.6182398    2.8118687 
C    -2.5072050    1.9632995   -1.1115098 
C     0.7161478   -1.4195204   -4.0077085 
C    -1.4115439   -3.7029897    0.1492717 
C    -2.1492252   -2.4922576   -2.2694712 
C     3.6168178   -1.4317139    0.4676275 
C    -2.5993964   -1.3259678    4.2221644 
C    -2.8851308    1.3634883    0.2467557 
C     1.8956486   -1.8521126   -3.1298389 
C    -2.2597049   -4.3748964   -0.7395992 
C    -2.6304298   -3.7680014   -1.9494927 
H     1.0651730   -3.7028058    1.3152461 
H    -0.2910870   -0.4176036    3.0411306 
H    -2.9638581    0.1948715   -2.2784127 
H     0.8196878    0.6685565   -3.4671006 
H     2.3426452   -3.2760125    3.4022807 
H     2.2423434   -1.5184591    3.1373182 
H     0.3311901   -2.1170537    4.6112005 
H    -0.1410480   -3.4403489    3.5167045 
H    -2.7438902    1.8612122   -4.0635441 
H    -1.1551918    2.3894065   -3.4634661 
H    -0.7054071    0.8302317   -5.3469163 
H    -1.8063742   -0.3845518   -4.6624875 
H     2.5785709   -3.1059546   -0.4293871 
H     3.4949391   -3.5238747    1.0165611 
H    -2.3453733   -2.6450228    2.5131792 
H    -2.5552598   -0.9438894    2.0861532 
H    -3.3506289    2.5618706   -1.5049563 
H    -1.6610818    2.6637951   -0.9923355 
H     1.0602620   -1.2556495   -5.0466640 
H    -0.0339004   -2.2306043   -4.0574317 
H    -1.1323680   -4.1863346    1.0917392 
H    -2.4485457   -2.0283255   -3.2149600 
H     4.5391260   -1.5785073   -0.1190383 
H     3.9063064   -1.0338559    1.4562227 
H     3.0096247   -0.6604914   -0.0461239 
H    -3.6985674   -1.4176537    4.2490766 
H    -2.1863051   -2.0295700    4.9657169 
H    -2.3306438   -0.3034804    4.5408255 
H    -3.1912808    2.1494813    0.9583017 
H    -2.0211165    0.8317473    0.6905613 
H    -3.7176428    0.6430709    0.1563250 
H     2.3780285   -2.7618439   -3.5246583 
H     1.5591132   -2.0703817   -2.1000471 
H     2.6620336   -1.0584045   -3.0666426 
H    -2.6341960   -5.3719079   -0.4868600 
H    -3.2951222   -4.2895834   -2.6454445 
