89
Energy =
C     1.7241519    2.4590866   -0.6250775 
C     1.3505305    2.6157688    0.7316687 
C     1.8172044    1.6910883    1.7170714 
H     0.5667971    3.3359407    0.9979259 
Pd    0.6761690    0.6092850    0.1540541 
P     0.1955913   -1.4037293    1.1946230 
P    -0.5666975   -0.1601512   -1.6390932 
H     2.6372003    1.8737159   -0.8194720 
H     2.8149999    1.2567788    1.5583424 
C     0.4740298    4.7640671   -4.0388406 
C     1.4659939    3.7789288   -4.1575950 
C     1.8669364    3.0493694   -3.0315051 
C     1.2791249    3.2795176   -1.7649118 
C     0.2941847    4.2891123   -1.6588816 
C    -0.1028147    5.0205442   -2.7832530 
H     0.1600956    5.3391577   -4.9156796 
H     1.9355036    3.5847773   -5.1274175 
H     2.6567848    2.2949699   -3.1257008 
H    -0.1607921    4.5146238   -0.6891836 
H    -0.8645616    5.8001315   -2.6803048 
C     0.3933504    1.4437939    5.7769739 
C     1.6667669    0.9648812    5.4343011 
C     2.1272951    1.0694909    4.1149789 
C     1.3228012    1.6485779    3.1078805 
C     0.0385090    2.1228679    3.4677178 
C    -0.4160777    2.0275338    4.7877014 
H     0.0328771    1.3646402    6.8074882 
H     2.3080079    0.5141225    6.1988786 
H     3.1276528    0.7033836    3.8571921 
H    -0.6232804    2.5435165    2.7025797 
H    -1.4124332    2.4013072    5.0456655 
C     1.6396824   -2.5178806    1.6991174 
C    -0.6235548   -1.4221277    2.8883522 
C    -2.0598744    0.8552861   -2.1922447 
C     0.2212584   -0.2389812   -3.3472347 
C     1.5458651   -2.5837543    3.2418989 
C     0.0666784   -2.5755066    3.6514988 
C    -1.6400148    1.3954830   -3.5783266 
C    -0.8626290    0.2930994   -4.3126160 
C    -0.8385153   -2.4018627    0.0362425 
C    -1.2071328   -1.8343356   -1.2080672 
C     3.0156638   -2.0827305    1.1706760 
C    -2.1610399   -1.4186461    2.8881410 
C    -2.5108834    1.9317392   -1.1938006 
C     0.8835369   -1.5766317   -3.7174015 
C    -1.2853403   -3.6987078    0.3652218 
C    -2.0326041   -2.5657353   -2.0872313 
C     3.1259377   -2.0435238   -0.3567227 
C    -2.7496784   -1.2344310    4.2948370 
C    -2.9507036    1.3862134    0.1681417 
C     1.7110060   -1.4902217   -5.0083044 
C    -2.0976458   -4.4181866   -0.5196864 
C    -2.4761282   -3.8490121   -1.7456528 
H     1.3874689   -3.5084380    1.2735571 
H    -0.2722383   -0.4674715    3.3256540 
H    -2.8730148    0.1144341   -2.3218659 
H     1.0080139    0.5361936   -3.2695687 
H     2.0775775   -3.4750231    3.6189114 
H     2.0457733   -1.6970471    3.6731259 
H    -0.0456075   -2.4386195    4.7408448 
H    -0.4125816   -3.5406191    3.3974639 
H    -2.5288662    1.7240575   -4.1452055 
H    -0.9923492    2.2818598   -3.4459134 
H    -0.4024669    0.6753716   -5.2403424 
H    -1.5429623   -0.5302525   -4.6049295 
H     3.7664294   -2.7842541    1.5813558 
H     3.2618079   -1.0892824    1.5918099 
H    -2.5355202   -2.3594374    2.4440163 
H    -2.5189739   -0.6048334    2.2327573 
H    -3.3420881    2.4934204   -1.6607857 
H    -1.6859709    2.6550014   -1.0611385 
H     0.1066559   -2.3560036   -3.8222155 
H     1.5337260   -1.9026165   -2.8851709 
H    -1.0013918   -4.1524904    1.3201383 
H    -2.3308013   -2.1338204   -3.0484091 
H     4.1480049   -1.7786479   -0.6763761 
H     2.4355346   -1.2849568   -0.7771739 
H     2.8691394   -3.0195085   -0.8059510 
H    -3.8506692   -1.1781848    4.2510080 
H    -2.4847460   -2.0745659    4.9599425 
H    -2.3761767   -0.3046629    4.7595307 
H    -3.3135850    2.1960070    0.8241518 
H    -2.0996438    0.8979533    0.6816165 
H    -3.7594845    0.6404964    0.0678243 
H     2.2008895   -2.4551956   -5.2225091 
H     2.5000223   -0.7209562   -4.9240815 
H     1.0817041   -1.2343280   -5.8782845 
H    -2.4389297   -5.4229249   -0.2509755 
H    -3.1144651   -4.4072996   -2.4377772 
