89
Energy =
C     1.7511694    2.4691245   -0.7422631 
C     1.4434519    2.6167709    0.6321457 
C     1.9465154    1.6805375    1.5878798 
H     0.6788324    3.3406549    0.9406638 
Pd    0.7229893    0.6218613    0.0677657 
P     0.2459513   -1.3774151    1.1395289 
P    -0.6309614   -0.1076105   -1.6632973 
H     2.6482486    1.8778059   -0.9859039 
H     2.9327297    1.2397790    1.3826840 
C     0.3671951    4.8310763   -4.0642021 
C     1.3337032    3.8298816   -4.2440103 
C     1.7780332    3.0802892   -3.1478512 
C     1.2605466    3.3070577   -1.8503974 
C     0.3000560    4.3318065   -1.6834980 
C    -0.1406766    5.0827601   -2.7783397 
H     0.0199523    5.4219885   -4.9176504 
H     1.7497556    3.6391929   -5.2385888 
H     2.5468799    2.3118871   -3.2901490 
H    -0.1005181    4.5546229   -0.6895531 
H    -0.8819960    5.8743141   -2.6282993 
C     0.6626041    1.3891051    5.6920448 
C    -0.1857062    1.9683799    4.7331849 
C     0.2278100    2.0830472    3.4016817 
C     1.5064630    1.6295045    2.9974193 
C     2.3521717    1.0589198    3.9753656 
C     1.9336497    0.9364815    5.3072929 
H     0.3349738    1.2947539    6.7322354 
H    -1.1809633    2.3205793    5.0235792 
H    -0.4637928    2.4970603    2.6595095 
H     3.3520326    0.7152543    3.6876838 
H     2.6062466    0.4927473    6.0487103 
C     1.6524790   -2.5307794    1.6834837 
C    -0.5403710   -1.3374429    2.8471144 
C    -2.1320776    0.9479870   -2.1211751 
C     0.0354027   -0.1934978   -3.4334086 
C     1.3558354   -2.8828258    3.1708395 
C    -0.1327227   -2.6775558    3.4891167 
C    -1.7757811    1.5133055   -3.5133265 
C    -1.0866579    0.4013296   -4.3132333 
C    -0.7946649   -2.3857501   -0.0130422 
C    -1.2628030   -1.7784394   -1.2069901 
C     3.0692167   -1.9541807    1.5021768 
C    -2.0016340   -0.8894422    3.0226371 
C    -2.5123812    2.0092941   -1.0796658 
C     0.5894452   -1.5438246   -3.9102484 
C    -1.1638811   -3.7170784    0.2693189 
C    -2.1415273   -2.4884450   -2.0504144 
C     3.4952336   -1.6882307    0.0578166 
C    -3.0889853   -1.7391552    2.3537095 
C    -2.9400398    1.4298622    0.2696500 
C     1.7416934   -2.0874726   -3.0619034 
C    -2.0209143   -4.4191137   -0.5870720 
C    -2.5260681   -3.7987739   -1.7393969 
H     1.5425459   -3.4268807    1.0448172 
H     0.0886558   -0.5555255    3.3182179 
H    -2.9645205    0.2246239   -2.2267406 
H     0.8639234    0.5399562   -3.3986852 
H     1.6937004   -3.9096413    3.3930344 
H     1.9459125   -2.2005083    3.8101098 
H    -0.3071714   -2.6397520    4.5794909 
H    -0.7491044   -3.5080003    3.1006986 
H    -2.6848656    1.8864432   -4.0169611 
H    -1.0906357    2.3733302   -3.3981110 
H    -0.6651067    0.7773760   -5.2623782 
H    -1.8155798   -0.3896958   -4.5753404 
H     3.7724986   -2.6706312    1.9685440 
H     3.1457204   -1.0263227    2.0983816 
H    -2.0877847    0.1583993    2.6876416 
H    -2.1785163   -0.8623659    4.1149183 
H    -3.3297258    2.6211838   -1.5060942 
H    -1.6537466    2.6917190   -0.9437897 
H     0.9263004   -1.4052371   -4.9554835 
H    -0.2288211   -2.2862402   -3.9516625 
H    -0.7910919   -4.2135834    1.1695350 
H    -2.5235754   -2.0200864   -2.9636354 
H     4.5232767   -1.2892969    0.0173271 
H     2.8257483   -0.9458218   -0.4209265 
H     3.4633713   -2.6089047   -0.5503144 
H    -3.0145668   -2.8038260    2.6362061 
H    -4.0869463   -1.3832914    2.6615044 
H    -3.0385901   -1.6799073    1.2538462 
H    -3.2167664    2.2269859    0.9808193 
H    -2.1088125    0.8551786    0.7190574 
H    -3.8033539    0.7488754    0.1675308 
H     2.1440027   -3.0207439   -3.4903450 
H     1.4057651   -2.3100768   -2.0337124 
H     2.5697727   -1.3594024   -2.9954411 
H    -2.3010376   -5.4502860   -0.3495903 
H    -3.2070188   -4.3400321   -2.4038273 
