89
Energy =
C     1.7052166    2.4114321   -0.6532726 
C     1.3095917    2.5537270    0.6975683 
C     1.7870250    1.6472316    1.6950008 
H     0.5044061    3.2541995    0.9531037 
Pd    0.6757403    0.5349875    0.1038111 
P     0.2309427   -1.5215321    1.0850759 
P    -0.6831441   -0.1344951   -1.6440409 
H     2.6238026    1.8331054   -0.8399003 
H     2.7974917    1.2380468    1.5596162 
C     0.4744236    4.7155153   -4.0739383 
C     1.4061532    3.6740054   -4.2028344 
C     1.8032228    2.9462845   -3.0744745 
C     1.2697583    3.2334880   -1.7952432 
C     0.3514668    4.3030165   -1.6788012 
C    -0.0420363    5.0322185   -2.8061704 
H     0.1645727    5.2898776   -4.9527273 
H     1.8317853    3.4348343   -5.1827974 
H     2.5459427    2.1462765   -3.1758595 
H    -0.0480253    4.5813177   -0.6985018 
H    -0.7506549    5.8593202   -2.6951565 
C     0.3015005    1.4819317    5.7377527 
C    -0.5258252    1.9600273    4.7077510 
C    -0.0495893    2.0279060    3.3937143 
C     1.2709847    1.6256342    3.0780998 
C     2.0923175    1.1533129    4.1264996 
C     1.6127851    1.0804329    5.4409920 
H    -0.0735526    1.4256732    6.7646137 
H    -1.5517492    2.2726517    4.9289582 
H    -0.7208371    2.3674185    2.5976847 
H     3.1227989    0.8520874    3.9067193 
H     2.2687007    0.7154102    6.2381973 
C     1.6799428   -2.6750735    1.4388581 
C    -0.3875857   -1.5417302    2.8819686 
C    -2.1735183    0.9644378   -2.0556834 
C    -0.0542177   -0.1918472   -3.4246821 
C     2.0101523   -2.3217240    2.9012063 
C     0.6814986   -2.3483603    3.6669834 
C    -1.8869169    1.4748903   -3.4871256 
C    -1.2180091    0.3473897   -4.2818490 
C    -0.9075160   -2.4414189   -0.0362623 
C    -1.3565607   -1.8024786   -1.2213207 
C     2.8567648   -2.7129994    0.4496341 
C    -1.8245777   -2.0121477    3.1650858 
C    -2.4522640    2.0895703   -1.0476628 
C     0.5689916   -1.5118216   -3.8942147 
C    -1.3490172   -3.7473902    0.2580104 
C    -2.2678437   -2.4719450   -2.0629938 
C     3.5912508   -1.3912227    0.2069643 
C    -2.9283980   -1.1523852    2.5468233 
C    -2.8247234    1.6140863    0.3563767 
C     1.7749455   -1.9464004   -3.0582652 
C    -2.2465929   -4.4047978   -0.5930432 
C    -2.7141189   -3.7625659   -1.7492939 
H     1.2133415   -3.6803043    1.4363957 
H    -0.3083357   -0.4775788    3.1681781 
H    -3.0354891    0.2695329   -2.0795506 
H     0.7325187    0.5873331   -3.4061669 
H     2.7421095   -3.0375327    3.3159148 
H     2.4639137   -1.3158554    2.9599810 
H     0.7822978   -1.9359163    4.6852840 
H     0.3426704   -3.3971024    3.7666318 
H    -2.8221155    1.8222822   -3.9602900 
H    -1.2055176    2.3445968   -3.4337355 
H    -0.8388146    0.7014142   -5.2571322 
H    -1.9424718   -0.4620508   -4.4942744 
H     2.4980493   -3.1189851   -0.5124139 
H     3.5728705   -3.4616556    0.8393589 
H    -1.9350663   -2.0135698    4.2667968 
H    -1.9443534   -3.0660205    2.8534003 
H    -3.2683522    2.7104617   -1.4638214 
H    -1.5635383    2.7435288   -1.0023244 
H     0.8695546   -1.3797510   -4.9511341 
H    -0.1987537   -2.3077671   -3.8912545 
H    -0.9930189   -4.2590642    1.1583591 
H    -2.6324339   -1.9868389   -2.9742099 
H     4.4224885   -1.5348277   -0.5035024 
H     4.0118598   -0.9744695    1.1386921 
H     2.9054435   -0.6342493   -0.2249672 
H    -2.8877071   -1.1779472    1.4443227 
H    -3.9242486   -1.5157015    2.8521014 
H    -2.8372862   -0.0999936    2.8677546 
H    -3.0362138    2.4679008    1.0230117 
H    -1.9926384    1.0377696    0.8032903 
H    -3.7175918    0.9648463    0.3442365 
H     2.2182770   -2.8796579   -3.4438871 
H     1.4755345   -2.1239367   -2.0104253 
H     2.5615749   -1.1705300   -3.0514212 
H    -2.5839586   -5.4176764   -0.3513631 
H    -3.4215007   -4.2700926   -2.4127900 
