89
Energy =
C     1.5546646    2.5427658   -0.5841110 
C     1.3633163    2.5701140    0.8168833 
C     1.9452302    1.5745192    1.6581920 
H     0.6263847    3.2614288    1.2445414 
Pd    0.6093328    0.6065337    0.1691423 
P     0.2456938   -1.4431479    1.1814426 
P    -0.6770940   -0.1708186   -1.6052330 
H     2.4229550    1.9793213   -0.9606764 
H     2.9070850    1.1506409    1.3348199 
C    -0.1648528    5.2110351   -3.4899168 
C     0.7225631    4.1967913   -3.8817631 
C     1.2888649    3.3514712   -2.9198553 
C     0.9659146    3.4871863   -1.5489821 
C     0.0895557    4.5299362   -1.1681539 
C    -0.4676584    5.3805399   -2.1283430 
H    -0.6057456    5.8770611   -4.2383927 
H     0.9837705    4.0726416   -4.9378205 
H     2.0009681    2.5768375   -3.2276265 
H    -0.1655590    4.6784224   -0.1145817 
H    -1.1431750    6.1827053   -1.8139725 
C     1.1334169    1.1790267    5.8729529 
C     0.1628927    1.7364269    5.0235544 
C     0.4182012    1.8721649    3.6543497 
C     1.6553057    1.4612727    3.1027550 
C     2.6227833    0.9079877    3.9705727 
C     2.3643481    0.7669708    5.3407389 
H     0.9314726    1.0703466    6.9433343 
H    -0.8014838    2.0588225    5.4298297 
H    -0.3613268    2.2782201    2.9997765 
H     3.5921786    0.5954727    3.5662953 
H     3.1301877    0.3394547    5.9961831 
C     1.6870297   -2.5355028    1.7453164 
C    -0.6325930   -1.4767992    2.8512704 
C    -2.2122033    0.6842612   -2.3126065 
C     0.1772107   -0.2499183   -3.2745086 
C     1.5258885   -2.6307320    3.2819465 
C     0.0311981   -2.6352589    3.6258532 
C    -2.0759127    0.5896452   -3.8685749 
C    -0.9721190   -0.4012743   -4.2858729 
C    -0.7730261   -2.4639171    0.0312558 
C    -1.2747899   -1.8649883   -1.1524725 
C     3.0811743   -2.0719583    1.2958129 
C    -2.1666576   -1.5050011    2.8110766 
C    -2.4074445    2.1448817   -1.8621413 
C     1.4045332   -1.1599423   -3.4536058 
C    -1.1341350   -3.7895349    0.3473925 
C    -2.1863673   -2.5872080   -1.9509380 
C     3.2689070   -2.0102607   -0.2212568 
C    -2.7924667   -0.3167799    2.0757065 
C    -2.6203321    2.3646359   -0.3635624 
C     1.1730836   -2.6705501   -3.3179568 
C    -2.0058766   -4.5095131   -0.4791005 
C    -2.5471816   -3.8992064   -1.6195855 
H     1.4760925   -3.5227887    1.2908807 
H    -0.3041410   -0.5237239    3.3096913 
H    -3.0629178    0.0774998   -1.9522205 
H     0.5301968    0.7997455   -3.3417814 
H     2.0445210   -3.5277554    3.6634087 
H     2.0034076   -1.7506964    3.7498255 
H    -0.1379986   -2.5121342    4.7103159 
H    -0.4326554   -3.5980431    3.3380965 
H    -3.0490174    0.3364407   -4.3230055 
H    -1.7999751    1.5928687   -4.2400979 
H    -0.6116585   -0.1847816   -5.3079307 
H    -1.3390949   -1.4420860   -4.3001866 
H     3.8196420   -2.7675487    1.7377851 
H     3.2882527   -1.0830917    1.7442762 
H    -2.5203367   -1.5248555    3.8596065 
H    -2.5073510   -2.4530880    2.3543454 
H    -3.2837325    2.5322632   -2.4170940 
H    -1.5449477    2.7392687   -2.2102034 
H     2.1859480   -0.8392112   -2.7407685 
H     1.8113585   -0.9442749   -4.4603018 
H    -0.7432637   -4.2650779    1.2523809 
H    -2.6218128   -2.1306569   -2.8435744 
H     4.2934293   -1.6982019   -0.4859243 
H     2.5680906   -1.2783586   -0.6671045 
H     3.0771213   -2.9893483   -0.6943292 
H    -2.5086584   -0.3173686    1.0083073 
H    -3.8937683   -0.3497540    2.1279906 
H    -2.4576102    0.6430570    2.5068795 
H    -2.7711378    3.4362326   -0.1492587 
H    -1.7404613    2.0245380    0.2171683 
H    -3.5028770    1.8156528    0.0091000 
H     2.0997100   -3.2176339   -3.5612009 
H     0.3855667   -3.0292658   -4.0030743 
H     0.8781511   -2.9502160   -2.2931557 
H    -2.2767898   -5.5383355   -0.2217649 
H    -3.2493928   -4.4465005   -2.2564650 
