89
Energy =
C     1.5642534    2.5459995   -0.7028222 
C     1.2378820    2.6690956    0.6685831 
C     1.7541880    1.7245330    1.6105573 
H     0.4566743    3.3736831    0.9806103 
Pd    0.5558557    0.6650872    0.0776437 
P     0.2239766   -1.3964212    1.0850254 
P    -0.7803722   -0.0874687   -1.6583974 
H     2.4607004    1.9515061   -0.9426745 
H     2.7522172    1.3143142    1.4000496 
C     0.2131742    4.9339058   -4.0180525 
C     1.1156427    3.8765929   -4.2113595 
C     1.5537863    3.1214111   -3.1170279 
C     1.0912975    3.3965550   -1.8083636 
C     0.2014587    4.4807939   -1.6274529 
C    -0.2327420    5.2377945   -2.7209561 
H    -0.1283812    5.5298561   -4.8703459 
H     1.4860720    3.6464016   -5.2156099 
H     2.2730134    2.3082620   -3.2697311 
H    -0.1494912    4.7431406   -0.6242591 
H    -0.9191978    6.0754648   -2.5606664 
C     0.4962571    1.2890340    5.7079112 
C    -0.3670084    1.8850529    4.7728073 
C     0.0361171    2.0492779    3.4429238 
C     1.3184775    1.6276453    3.0179671 
C     2.1787162    1.0383378    3.9716062 
C     1.7715884    0.8681174    5.3016778 
H     0.1766157    1.1570047    6.7464808 
H    -1.3648574    2.2143942    5.0808487 
H    -0.6639435    2.4816112    2.7197471 
H     3.1796589    0.7153710    3.6632253 
H     2.4551030    0.4104727    6.0244258 
C     1.7898041   -2.4310477    1.3432201 
C    -0.3912256   -1.5937206    2.8632541 
C    -2.2654494    0.9651512   -2.1916713 
C    -0.0932559   -0.2777090   -3.4108913 
C     1.8908897   -2.6069270    2.8774120 
C     0.4775934   -2.7257939    3.4561146 
C    -1.9674325    1.3314027   -3.6668215 
C    -1.2477661    0.1570771   -4.3381102 
C    -0.8957440   -2.3722125   -0.0122661 
C    -1.4247142   -1.7505727   -1.1732609 
C     3.0544489   -1.8380561    0.6937750 
C    -1.8994640   -1.7850044    3.0847031 
C    -2.5431962    2.2047914   -1.3250586 
C     0.5437066   -1.6297558   -3.7620075 
C    -1.2752450   -3.6930696    0.3012175 
C    -2.3556608   -2.4509288   -1.9669344 
C     4.2627262   -2.7829736    0.7578044 
C    -2.7787409   -0.6816922    2.4961509 
C    -2.8691711    1.9296423    0.1423609 
C     1.7184705   -2.0271095   -2.8646915 
C    -2.1916872   -4.3819346   -0.5038901 
C    -2.7423443   -3.7553202   -1.6316049 
H     1.5616007   -3.4075434    0.8730242 
H    -0.0826288   -0.6359694    3.3245519 
H    -3.1322181    0.2777327   -2.1445229 
H     0.6858852    0.5085188   -3.4425574 
H     2.5109305   -3.4843867    3.1287898 
H     2.3891790   -1.7186510    3.3078718 
H     0.4810131   -2.6592730    4.5585918 
H     0.0387304   -3.7088945    3.1977730 
H    -2.9033150    1.5998506   -4.1874946 
H    -1.3144929    2.2242758   -3.6888277 
H    -0.8543278    0.4316658   -5.3333267 
H    -1.9437294   -0.6891742   -4.4941392 
H     3.2949426   -0.8857366    1.2029024 
H     2.8450273   -1.5798861   -0.3584363 
H    -2.0525333   -1.8433717    4.1792452 
H    -2.2115782   -2.7664645    2.6821512 
H    -3.3827327    2.7482237   -1.7993662 
H    -1.6700046    2.8763761   -1.3946401 
H     0.8807677   -1.5684117   -4.8144141 
H    -0.2312997   -2.4181331   -3.7351307 
H    -0.8565205   -4.1898913    1.1822187 
H    -2.7804892   -1.9811478   -2.8597466 
H     5.1372470   -2.3313162    0.2591994 
H     4.0429159   -3.7407585    0.2527123 
H     4.5512303   -3.0080847    1.7991722 
H    -2.7180345   -0.6789057    1.3942865 
H    -3.8369748   -0.8291996    2.7703172 
H    -2.4662053    0.3133669    2.8574144 
H    -3.0903702    2.8684976    0.6790579 
H    -2.0092724    1.4494839    0.6474630 
H    -3.7423838    1.2632049    0.2527771 
H     2.1883561   -2.9624871   -3.2121965 
H     1.3798008   -2.1910641   -1.8262843 
H     2.4952853   -1.2413267   -2.8471395 
H    -2.4806716   -5.4059106   -0.2467391 
H    -3.4664043   -4.2862715   -2.2577342 
