89
Energy =
C     1.6339647    2.5431166   -0.8052234 
C     1.3141049    2.6644245    0.5687734 
C     1.8209920    1.7165236    1.5107797 
H     0.5399911    3.3753486    0.8836052 
Pd    0.6219448    0.6696536   -0.0356392 
P     0.1689197   -1.3627093    0.9770943 
P    -0.6806636   -0.0564113   -1.8004183 
H     2.5377772    1.9621555   -1.0504672 
H     2.8118408    1.2889024    1.3000074 
C     0.2558703    4.9413419   -4.1038829 
C     1.2437886    3.9620867   -4.2872489 
C     1.6865674    3.2012452   -3.1980939 
C     1.1463715    3.3943653   -1.9044452 
C     0.1662301    4.3996436   -1.7331301 
C    -0.2735561    5.1613879   -2.8208376 
H    -0.0908866    5.5405309   -4.9517479 
H     1.6775727    3.7971014   -5.2788500 
H     2.4729840    2.4512233   -3.3427756 
H    -0.2515327    4.5975881   -0.7409291 
H    -1.0313810    5.9365066   -2.6673932 
C     0.5651618    1.3571098    5.6174916 
C     1.8200195    0.8817452    5.2078036 
C     2.2257198    1.0228676    3.8739785 
C     1.3836560    1.6355898    2.9186965 
C     0.1185008    2.1055575    3.3458331 
C    -0.2810685    1.9739062    4.6804644 
H     0.2477222    1.2499363    6.6595622 
H     2.4897042    0.4053618    5.9313852 
H     3.2121183    0.6593358    3.5639723 
H    -0.5719975    2.5523932    2.6220459 
H    -1.2631313    2.3455967    4.9909075 
C     1.6213055   -2.4880001    1.4176849 
C    -0.6062709   -1.4073922    2.6897123 
C    -2.1917254    0.9671924   -2.2928066 
C     0.0493002   -0.1017680   -3.5384922 
C     1.5552940   -2.6124156    2.9599431 
C     0.0848776   -2.5923564    3.4015559 
C    -1.8288020    1.5171936   -3.6913638 
C    -1.0759581    0.4201901   -4.4581668 
C    -0.9051731   -2.3355809   -0.1676260 
C    -1.3129117   -1.7391535   -1.3866585 
C     2.9743922   -2.0061572    0.8627329 
C    -2.1429684   -1.3818060    2.7300875 
C    -2.6053029    2.0362977   -1.2706720 
C     0.7195789   -1.4160012   -3.9618403 
C    -1.3394236   -3.6406432    0.1435271 
C    -2.1625472   -2.4517049   -2.2578610 
C     4.1222941   -2.9880490    1.1363804 
C    -2.6926102   -1.2296694    4.1562491 
C    -2.9914208    1.4829365    0.1042256 
C     1.8592339   -1.8549345   -3.0353349 
C    -2.1763195   -4.3414461   -0.7338616 
C    -2.5921896   -3.7447061   -1.9339665 
H     1.3707228   -3.4642769    0.9593636 
H    -0.2278930   -0.4704844    3.1424301 
H    -3.0088206    0.2265388   -2.3953752 
H     0.8229335    0.6880052   -3.4772684 
H     2.0706124   -3.5274961    3.2986935 
H     2.0812985   -1.7518577    3.4133542 
H    -0.0005111   -2.4874298    4.4969505 
H    -0.4153825   -3.5421998    3.1309899 
H    -2.7408672    1.8440489   -4.2210358 
H    -1.1799616    2.4057349   -3.5796832 
H    -0.6500009    0.7995862   -5.4040730 
H    -1.7630119   -0.4061980   -4.7236360 
H     3.2074401   -1.0210667    1.3094440 
H     2.8833393   -1.8380337   -0.2255515 
H    -2.5423705   -2.3043244    2.2693937 
H    -2.5054661   -0.5446313    2.1076468 
H    -3.4552325    2.5984243   -1.7021024 
H    -1.7779483    2.7609450   -1.1663548 
H     1.1051080   -1.2754140   -4.9896424 
H    -0.0403235   -2.2167444   -4.0270274 
H    -1.0258527   -4.1163296    1.0782098 
H    -2.4914058   -1.9979852   -3.1986224 
H     5.0625453   -2.6228992    0.6892328 
H     3.9059496   -3.9816601    0.7042573 
H     4.2960175   -3.1204866    2.2184037 
H    -3.7933756   -1.1559984    4.1426842 
H    -2.4238464   -2.0923531    4.7902450 
H    -2.2931700   -0.3191912    4.6373014 
H    -3.3324654    2.2885690    0.7768674 
H    -2.1199931    0.9957195    0.5835885 
H    -3.8008236    0.7347059    0.0311587 
H     2.3586906   -2.7607084   -3.4179987 
H     1.4780399   -2.0864285   -2.0240196 
H     2.6220660   -1.0616976   -2.9331729 
H    -2.5070430   -5.3533106   -0.4790730 
H    -3.2489560   -4.2885230   -2.6203455 
