89
Energy =
C     1.6587104    2.4777474   -0.7573057 
C     1.2708481    2.6075997    0.5980907 
C     1.7577913    1.6893461    1.5790822 
H     0.4667810    3.3039679    0.8675179 
Pd    0.6454027    0.5926323   -0.0115675 
P     0.1918900   -1.4555061    0.9650127 
P    -0.6144077   -0.1406502   -1.8027495 
H     2.5851700    1.9146508   -0.9518863 
H     2.7672473    1.2845929    1.4238662 
C     0.4134090    4.8237102   -4.1445404 
C     1.3989981    3.8335217   -4.2756730 
C     1.7965982    3.0890002   -3.1583697 
C     1.2120620    3.3091211   -1.8883901 
C     0.2339981    4.3239394   -1.7696276 
C    -0.1604085    5.0697024   -2.8856116 
H     0.1023648    5.4107427   -5.0144774 
H     1.8661121    3.6476723   -5.2482632 
H     2.5816530    2.3306933   -3.2612894 
H    -0.2146895    4.5451808   -0.7961272 
H    -0.9164421    5.8534821   -2.7728298 
C     0.3891332    1.5434497    5.6615538 
C    -0.4685791    2.0160647    4.6530380 
C    -0.0376548    2.0625344    3.3236887 
C     1.2709074    1.6530057    2.9724144 
C     2.1197487    1.1737070    3.9960666 
C     1.6828884    1.1179977    5.3266441 
H     0.0474903    1.5044177    6.7007962 
H    -1.4842700    2.3379486    4.9052720 
H    -0.7311231    2.3991457    2.5448470 
H     3.1390432    0.8589053    3.7450575 
H     2.3594834    0.7513446    6.1055097 
C     1.6334635   -2.6504663    1.1523542 
C    -0.3135614   -1.5916013    2.7586075 
C    -2.0981769    0.9135129   -2.3122589 
C     0.1314343   -0.2069494   -3.5314285 
C     1.1267818   -3.6549662    2.2155658 
C     0.2527172   -2.9458372    3.2870469 
C    -1.6910930    1.4788029   -3.6908159 
C    -0.9618917    0.3665304   -4.4606863 
C    -1.0403309   -2.3364006   -0.0933643 
C    -1.3327298   -1.7827318   -1.3661048 
C     2.9250310   -1.8993047    1.5477698 
C    -1.8032556   -1.3114088    3.0364155 
C    -2.5275056    1.9540351   -1.2683686 
C     0.7515749   -1.5477321   -3.9479765 
C    -1.6724240   -3.5365813    0.2944327 
C    -2.2139635   -2.4585869   -2.2345943 
C     3.6370492   -1.2463633    0.3582706 
C    -2.1383579   -1.3044158    4.5345282 
C    -2.9912075    1.3477689    0.0607212 
C     1.8834002   -2.0120419   -3.0241614 
C    -2.5510323   -4.1952229   -0.5753868 
C    -2.8129477   -3.6634212   -1.8465636 
H     1.7915700   -3.1613176    0.1859924 
H     0.2674502   -0.7659470    3.2122725 
H    -2.9204949    0.1853032   -2.4535103 
H     0.9372254    0.5491443   -3.4587616 
H     0.5372585   -4.4367276    1.7078359 
H     1.9846452   -4.1735983    2.6789722 
H     0.8407440   -2.7505677    4.1992321 
H    -0.5759029   -3.6102692    3.5894302 
H    -2.5819084    1.8427734   -4.2324020 
H    -1.0165443    2.3436198   -3.5535190 
H    -0.5086954    0.7432113   -5.3948350 
H    -1.6729212   -0.4323849   -4.7466582 
H     3.6060087   -2.6300468    2.0232060 
H     2.6987266   -1.1461250    2.3270361 
H    -2.4306370   -2.0593442    2.5164908 
H    -2.0621009   -0.3296786    2.5989852 
H    -3.3419835    2.5586329   -1.7105828 
H    -1.6859086    2.6486635   -1.0947004 
H     1.1341937   -1.4324257   -4.9799914 
H    -0.0357872   -2.3226702   -3.9981646 
H    -1.4899690   -3.9617284    1.2848303 
H    -2.4475850   -2.0366071   -3.2177512 
H     4.5123023   -0.6592981    0.6855944 
H     2.9528876   -0.5660602   -0.1880735 
H     3.9853058   -2.0085209   -0.3606110 
H    -1.5274369   -0.5578262    5.0703633 
H    -3.2019239   -1.0566486    4.6925060 
H    -1.9533456   -2.2893555    4.9976515 
H    -3.3209944    2.1323326    0.7631668 
H    -2.1650944    0.7919922    0.5451473 
H    -3.8305189    0.6443091   -0.0836134 
H     2.3323584   -2.9528431   -3.3841520 
H     1.5110104   -2.1893232   -1.9985438 
H     2.6845965   -1.2539719   -2.9592377 
H    -3.0340859   -5.1246011   -0.2574357 
H    -3.4955755   -4.1783818   -2.5299208 
