89
Energy =
C     1.5431355    2.4501129   -0.8127888 
C     1.3022475    2.5999444    0.5719060 
C     1.8351563    1.6535385    1.5025716 
H     0.5747949    3.3449827    0.9177441 
Pd    0.5085267    0.6060050    0.0709424 
P     0.1855311   -1.4177979    1.1385726 
P    -0.8289395   -0.2212111   -1.6320751 
H     2.4016011    1.8210348   -1.0981680 
H     2.8027251    1.1998324    1.2446165 
C     0.0616866    4.8429415   -4.0663512 
C     1.0171432    3.8396227   -4.2875282 
C     1.5002114    3.0841957   -3.2121683 
C     1.0301539    3.3041100   -1.8948864 
C     0.0899372    4.3395851   -1.6855762 
C    -0.3897489    5.0960592   -2.7595188 
H    -0.3171825    5.4377794   -4.9035018 
H     1.3950304    3.6525629   -5.2979235 
H     2.2637662    2.3172776   -3.3873183 
H    -0.2690143    4.5591946   -0.6758916 
H    -1.1177224    5.8933696   -2.5774252 
C     0.8223536    1.4285843    5.6849631 
C     2.0515218    0.9380237    5.2189515 
C     2.3794718    1.0350052    3.8599634 
C     1.4843211    1.6199295    2.9364707 
C     0.2489857    2.1114882    3.4217361 
C    -0.0749709    2.0204467    4.7800194 
H     0.5655475    1.3544150    6.7464743 
H     2.7615918    0.4833878    5.9176271 
H     3.3460342    0.6591884    3.5054669 
H    -0.4768882    2.5443684    2.7244694 
H    -1.0369347    2.4051201    5.1346160 
C     1.6905502   -2.4872863    1.5519214 
C    -0.5198885   -1.4558686    2.8836423 
C    -2.4353103    0.6010775   -2.1838069 
C    -0.0563341   -0.1652121   -3.3578288 
C     1.6827423   -2.5922440    3.0970356 
C     0.2270408   -2.6100304    3.5857843 
C    -1.9962817    1.4043692   -3.4253823 
C    -1.1396795    0.4500770   -4.2739803 
C    -0.8692346   -2.4746868    0.0487719 
C    -1.3088461   -1.9467908   -1.1913469 
C     3.0082592   -1.9841453    0.9360452 
C    -2.0500298   -1.4768191    2.9914797 
C    -3.2757842    1.3179900   -1.1145997 
C     0.6058117   -1.4554678   -3.8608305 
C    -1.2294943   -3.7903687    0.4060447 
C    -2.0986834   -2.7442002   -2.0447761 
C     4.1845528   -2.9434855    1.1657769 
C    -2.7203450   -0.2633873    2.3404175 
C    -2.6061548    2.4971192   -0.4045912 
C     1.7493621   -1.9507793   -2.9674165 
C    -2.0163495   -4.5719101   -0.4496972 
C    -2.4500471   -4.0492960   -1.6775054 
H     1.4502765   -3.4772803    1.1184104 
H    -0.1480993   -0.5012202    3.3046508 
H    -3.0357933   -0.2557576   -2.5468685 
H     0.7317302    0.5975438   -3.2196206 
H     2.2360579   -3.4877022    3.4282414 
H     2.1973346   -1.7108718    3.5215199 
H     0.1650909   -2.4902483    4.6820012 
H    -0.2522507   -3.5777280    3.3434744 
H    -2.8806052    1.7700151   -3.9769538 
H    -1.4024451    2.2901425   -3.1325174 
H    -0.6637162    0.9685445   -5.1247849 
H    -1.7768189   -0.3523500   -4.6933372 
H     3.2434403   -0.9929172    1.3660145 
H     2.8658151   -1.8253827   -0.1483736 
H    -2.3067467   -1.5152063    4.0672425 
H    -2.4421023   -2.4110644    2.5474008 
H    -3.6034670    0.5697778   -0.3706516 
H    -4.2004738    1.6676777   -1.6125995 
H     0.9891509   -1.2529512   -4.8792995 
H    -0.1547820   -2.2500675   -3.9748247 
H    -0.8938897   -4.2135175    1.3580142 
H    -2.4431519   -2.3473455   -3.0059112 
H     5.0982349   -2.5641941    0.6772428 
H     3.9683757   -3.9436007    0.7488175 
H     4.4062165   -3.0659096    2.2402431 
H    -3.8174558   -0.3043518    2.4462146 
H    -2.3639878    0.6783044    2.7926515 
H    -2.4868430   -0.2198955    1.2613657 
H    -3.2700381    2.9092320    0.3741705 
H    -2.3638486    3.3071842   -1.1106990 
H    -1.6648513    2.1788099    0.0867375 
H     2.2432766   -2.8343034   -3.4052578 
H     1.3761043   -2.2387491   -1.9679487 
H     2.5155577   -1.1663779   -2.8275647 
H    -2.2902329   -5.5907289   -0.1578805 
H    -3.0609917   -4.6592619   -2.3504677 
