89
Energy =
C     1.6473861    2.4302957   -0.6357173 
C     1.3657713    2.5366564    0.7481322 
C     1.9340032    1.6077399    1.6736286 
H     0.5757586    3.2180468    1.0878848 
Pd    0.7263668    0.5190975    0.1620095 
P     0.3725399   -1.5195133    1.2036646 
P    -0.6321818   -0.2430094   -1.5531513 
H     2.5647531    1.8868037   -0.9127933 
H     2.9326178    1.2150915    1.4333414 
C     0.0578894    4.7792517   -3.8748495 
C     1.0603039    3.8235119   -4.1006967 
C     1.5720184    3.0785095   -3.0311550 
C     1.0890105    3.2649281   -1.7140976 
C     0.0928522    4.2463455   -1.5007073 
C    -0.4170111    4.9914150   -2.5694843 
H    -0.3427018    5.3656322   -4.7077907 
H     1.4504900    3.6640976   -5.1111355 
H     2.3663352    2.3445346   -3.2103871 
H    -0.2828398    4.4402751   -0.4912150 
H    -1.1860331    5.7480232   -2.3828198 
C     0.7933472    1.2042949    5.8113445 
C    -0.1008515    1.7791387    4.8924732 
C     0.2644346    1.9273575    3.5498484 
C     1.5385045    1.5122072    3.0938907 
C     2.4302375    0.9459957    4.0323067 
C     2.0609666    0.7904386    5.3752240 
H     0.5044817    1.0847330    6.8603921 
H    -1.0925124    2.1051852    5.2232170 
H    -0.4581786    2.3455979    2.8405603 
H     3.4279688    0.6327015    3.7048282 
H     2.7695126    0.3512795    6.0852509 
C     1.8710808   -2.5593432    1.7303227 
C    -0.4732216   -1.6105598    2.8900983 
C    -2.1709402    0.7927443   -1.9209487 
C    -0.0328204   -0.2798213   -3.3505058 
C     1.6948213   -2.7672935    3.2572600 
C     0.2034492   -2.7986107    3.6049669 
C    -1.8881345    1.3867117   -3.3198063 
C    -1.2056502    0.3074575   -4.1665329 
C    -0.6491837   -2.5521423    0.0581630 
C    -1.1879064   -1.9442867   -1.1060766 
C     3.2469825   -1.9612322    1.3863921 
C    -2.0073302   -1.6556741    2.8896536 
C    -2.4915443    1.8271824   -0.8267868 
C     0.5155735   -1.6081403   -3.8931069 
C    -0.9762058   -3.8921245    0.3488016 
C    -2.0757655   -2.6728686   -1.9230290 
C     3.5334143   -1.7624295   -0.1016286 
C    -2.6701130   -0.4612184    2.2012341 
C    -3.6586516    2.7566057   -1.1863370 
C     1.7125697   -2.1678520   -3.1224688 
C    -1.8418952   -4.6133904   -0.4844096 
C    -2.4036866   -3.9992982   -1.6134762 
H     1.7473310   -3.5222866    1.1987263 
H    -0.1394184   -0.6722992    3.3749499 
H    -3.0040490    0.0668353   -1.9994763 
H     0.7840102    0.4672055   -3.3367842 
H     2.2183603   -3.6845618    3.5787567 
H     2.1675218   -1.9185101    3.7847952 
H     0.0389547   -2.7277744    4.6949414 
H    -0.2578304   -3.7491500    3.2761713 
H    -2.8238847    1.7390930   -3.7862335 
H    -1.2223006    2.2636340   -3.2197925 
H    -0.8357209    0.7110485   -5.1259271 
H    -1.9259163   -0.4968152   -4.4124678 
H     4.0091550   -2.6336354    1.8245149 
H     3.3510297   -0.9997075    1.9216262 
H    -2.3309456   -1.7060564    3.9467201 
H    -2.3473418   -2.5972437    2.4190070 
H    -1.5832652    2.4277069   -0.6371102 
H    -2.7168197    1.2997804    0.1146852 
H     0.7990095   -1.4308089   -4.9483415 
H    -0.2958182   -2.3585936   -3.9208509 
H    -0.5589681   -4.3806723    1.2347315 
H    -2.5114201   -2.2055492   -2.8124291 
H     4.5485236   -1.3586992   -0.2570678 
H     2.8144088   -1.0470403   -0.5474158 
H     3.4554889   -2.7107380   -0.6609729 
H    -2.4156134   -0.4430575    1.1268427 
H    -3.7689952   -0.5097649    2.2831382 
H    -2.3322567    0.4930605    2.6417589 
H    -3.8985920    3.4209391   -0.3383242 
H    -4.5701009    2.1820393   -1.4316583 
H    -3.4150696    3.3959926   -2.0525061 
H     2.1019253   -3.0804385   -3.6042258 
H     1.4282055   -2.4316174   -2.0889508 
H     2.5362379   -1.4338397   -3.0703756 
H    -2.0851556   -5.6535891   -0.2455926 
H    -3.0907617   -4.5559650   -2.2586380 
