89
Energy =
C     1.7690475    2.4608920   -0.7339059 
C     1.3744089    2.6140882    0.6172059 
C     1.8364722    1.6945491    1.6100161 
H     0.5762204    3.3230213    0.8704632 
Pd    0.7310370    0.6001344    0.0295725 
P     0.2511264   -1.4096143    1.0815603 
P    -0.5673391   -0.1387888   -1.7414032 
H     2.6872796    1.8801424   -0.9168729 
H     2.8434273    1.2760488    1.4698743 
C     0.5275294    4.7428513   -4.1661702 
C     1.4813535    3.7204831   -4.2859765 
C     1.8815643    2.9998819   -3.1541569 
C     1.3298569    3.2755284   -1.8804144 
C     0.3857747    4.3232305   -1.7733473 
C    -0.0103748    5.0458921   -2.9040012 
H     0.2153006    5.3117110   -5.0476741 
H     1.9217553    3.4906782   -5.2616475 
H     2.6406694    2.2146464   -3.2489920 
H    -0.0345706    4.5884528   -0.7981027 
H    -0.7390009    5.8563829   -2.8001254 
C     0.3155142    1.4078520    5.6336963 
C    -0.4755164    1.9869073    4.6270141 
C     0.0117262    2.0956401    3.3198042 
C     1.3104491    1.6392962    2.9895814 
C     2.0971096    1.0677357    4.0148927 
C     1.6040741    0.9493554    5.3213220 
H    -0.0701531    1.3179988    6.6541605 
H    -1.4828147    2.3469149    4.8610115 
H    -0.6355596    2.5132670    2.5411485 
H     3.1103132    0.7198921    3.7838824 
H     2.2323484    0.5044912    6.0999997 
C     1.6827771   -2.4795330    1.7148853 
C    -0.7022012   -1.4383598    2.7070612 
C    -2.0702650    0.9277170   -2.1811172 
C     0.0874791   -0.2126706   -3.5169429 
C     1.4059091   -2.6466262    3.2320238 
C    -0.1043566   -2.6264526    3.4915534 
C    -1.7370936    1.4780187   -3.5864140 
C    -1.0489962    0.3678869   -4.3871741 
C    -0.7323436   -2.4274209   -0.1070438 
C    -1.1930989   -1.8179434   -1.3023583 
C     3.0931011   -1.9262717    1.4422110 
C    -2.2343700   -1.4270094    2.5807486 
C    -2.4200918    2.0234883   -1.1626611 
C     0.6517871   -1.5531849   -4.0101573 
C    -1.1084942   -3.7557346    0.1789485 
C    -2.0570555   -2.5327052   -2.1571976 
C     3.4678632   -1.7635138   -0.0308181 
C    -2.9354117   -1.2067018    3.9295973 
C    -2.8153337    1.5154495    0.2248284 
C     1.8076678   -2.1039127   -3.1725536 
C    -1.9477969   -4.4636128   -0.6910270 
C    -2.4346501   -3.8467942   -1.8532636 
H     1.5641575   -3.4505898    1.1971492 
H    -0.3752208   -0.4985402    3.1933269 
H    -2.9127212    0.2126189   -2.2579664 
H     0.9065576    0.5315309   -3.4872503 
H     1.8806589   -3.5706282    3.6057513 
H     1.8713528   -1.7998785    3.7692739 
H    -0.3211684   -2.5258425    4.5691300 
H    -0.5748295   -3.5714567    3.1590354 
H    -2.6556580    1.8406288   -4.0804574 
H    -1.0564903    2.3441704   -3.4878614 
H    -0.6408801    0.7424985   -5.3427759 
H    -1.7736998   -0.4305003   -4.6381209 
H     3.8098933   -2.6105803    1.9349710 
H     3.1936345   -0.9573296    1.9652804 
H    -2.5717094   -2.3790338    2.1305520 
H    -2.5369368   -0.6316335    1.8794150 
H    -3.2476314    2.6188340   -1.5931386 
H    -1.5590104    2.7108913   -1.0803873 
H     0.9857552   -1.3969068   -5.0538353 
H    -0.1615674   -2.3002625   -4.0619113 
H    -0.7516501   -4.2442734    1.0909603 
H    -2.4345639   -2.0643990   -3.0722488 
H     4.5023314   -1.3943858   -0.1366194 
H     2.7973569   -1.0342304   -0.5272829 
H     3.3899527   -2.7187700   -0.5784090 
H    -4.0294518   -1.1577339    3.7954239 
H    -2.7227903   -2.0254125    4.6387379 
H    -2.6044293   -0.2615277    4.3957007 
H    -3.1109838    2.3487759    0.8852751 
H    -1.9615738    0.9986331    0.7034233 
H    -3.6603548    0.8059139    0.1741489 
H     2.2192405   -3.0234824   -3.6213932 
H     1.4708316   -2.3534255   -2.1513005 
H     2.6291771   -1.3702393   -3.0880460 
H    -2.2297261   -5.4948587   -0.4559750 
H    -3.1019068   -4.3922499   -2.5281200 
