89
Energy =
C    -1.9970828    2.2460201   -0.3727983 
C    -2.0675095    1.9197214    0.9995997 
C    -0.9445940    2.1203691    1.8603740 
H    -2.9325141    1.3583577    1.3741270 
Pd   -0.3775420    0.7326751    0.2278533 
P     1.5539904   -0.1833235    1.1075505 
P    -0.0405595   -0.6315245   -1.6280210 
H    -1.2067907    2.9496742   -0.6787723 
H    -0.2884256    2.9717777    1.6302066 
C    -5.0696510    1.7373493   -3.3417837 
C    -3.8440625    2.3366296   -3.6701710 
C    -2.8601000    2.5034736   -2.6882113 
C    -3.0735053    2.0648035   -1.3605823 
C    -4.3237059    1.4851823   -1.0401954 
C    -5.3070041    1.3212337   -2.0207536 
H    -5.8424781    1.6084458   -4.1062433 
H    -3.6572220    2.6817581   -4.6922573 
H    -1.9091941    2.9831734   -2.9472671 
H    -4.5321802    1.1565690   -0.0175621 
H    -6.2683151    0.8705990   -1.7534646 
C    -0.7003797    0.7031582    5.9240422 
C    -1.5374378    0.0492133    5.0042731 
C    -1.6313932    0.5079535    3.6856253 
C    -0.8958059    1.6386258    3.2563569 
C    -0.0660339    2.2907395    4.1952562 
C     0.0328196    1.8268265    5.5140302 
H    -0.6241165    0.3405751    6.9540714 
H    -2.1131710   -0.8289496    5.3148021 
H    -2.2618381   -0.0344950    2.9725123 
H     0.5005532    3.1768813    3.8877280 
H     0.6800171    2.3496103    6.2259395 
C    -1.3231382   -1.9173509   -2.1694793 
C     0.0915694    0.2212114   -3.3257209 
C     2.9834562    0.9386575    1.6451891 
C     1.4745815   -1.1270201    2.7381292 
C    -1.2354248   -1.8755275   -3.7154560 
C    -1.0730524   -0.4065992   -4.1369131 
C     3.1529564    0.6591108    3.1594817 
C     2.8095425   -0.8083990    3.4448339 
C     1.4928499   -1.6204355   -1.3147725 
C     2.2448152   -1.3518663   -0.1425789 
C    -2.7489331   -1.6132805   -1.6643744 
C     1.4558465    0.1443901   -4.0414195 
C     2.8109714    2.4303931    1.3151738 
C     1.1212306   -2.6177290    2.6409659 
C     1.9398797   -2.6201487   -2.2031746 
C     3.4534558   -2.0428594    0.0799506 
C    -2.9497554   -1.7403697   -0.1528950 
C     2.5950783    0.8846157   -3.3350585 
C     2.6889458    2.7498750   -0.1763396 
C    -0.2273179   -2.8964494    1.9713162 
C     3.1346132   -3.3105789   -1.9630245 
C     3.9023133   -3.0094895   -0.8288428 
H    -0.9892098   -2.8909530   -1.7671827 
H    -0.1234170    1.2837003   -3.1141041 
H     3.8611363    0.5487724    1.0944735 
H     0.6626804   -0.6014368    3.2773563 
H    -0.3723479   -2.4668182   -4.0714770 
H    -2.1364078   -2.3310746   -4.1635212 
H    -2.0070229    0.1434410   -3.9278824 
H    -0.8786206   -0.3116575   -5.2196806 
H     4.1769208    0.9176031    3.4814887 
H     2.4579913    1.3079048    3.7226586 
H     2.7195854   -1.0012407    4.5285838 
H     3.6066806   -1.4771013    3.0679747 
H    -3.4270238   -2.3190617   -2.1808883 
H    -3.0511906   -0.6048993   -1.9964789 
H     1.3046326    0.5858874   -5.0450768 
H     1.7382970   -0.9088713   -4.2189331 
H     3.6825301    2.9636551    1.7401854 
H     1.9278120    2.8128760    1.8589615 
H     1.1163900   -3.0197449    3.6720198 
H     1.9268826   -3.1546897    2.1059293 
H     1.3548034   -2.8662367   -3.0937764 
H     4.0493926   -1.8343599    0.9738673 
H    -3.9934265   -1.5099368    0.1202248 
H    -2.2907957   -1.0384335    0.3965425 
H    -2.7217028   -2.7604575    0.2022340 
H     2.8122175    0.4503263   -2.3442166 
H     3.5215516    0.8337778   -3.9315348 
H     2.3436656    1.9501960   -3.1901461 
H     2.5978539    3.8367389   -0.3431849 
H     1.7919831    2.2653631   -0.6102662 
H     3.5685006    2.3915015   -0.7388916 
H    -1.0457412   -2.3630132    2.4852696 
H    -0.4613709   -3.9743498    1.9795368 
H    -0.2237958   -2.5631891    0.9180264 
H     3.4682619   -4.0801539   -2.6662753 
H     4.8430520   -3.5373181   -0.6430720 
