89
Energy =
C    -1.8830810    2.3379900   -0.4090261 
C    -2.0268828    2.0000557    0.9564478 
C    -0.9440869    2.1594432    1.8772221 
H    -2.9217877    1.4555581    1.2841274 
Pd   -0.3529953    0.7792103    0.2265882 
P     1.5264872   -0.2923842    1.0628668 
P    -0.1686385   -0.5941502   -1.6231894 
H    -1.0697195    3.0352399   -0.6658727 
H    -0.2498655    2.9944812    1.7012155 
C    -4.7466328    1.8565166   -3.5877637 
C    -3.5364790    2.5322414   -3.8039564 
C    -2.6260431    2.6925076   -2.7516693 
C    -2.8978518    2.1722372   -1.4639937 
C    -4.1348883    1.5178102   -1.2567772 
C    -5.0453752    1.3610095   -2.3068496 
H    -5.4625347    1.7313921   -4.4063649 
H    -3.3048520    2.9442631   -4.7915456 
H    -1.6917223    3.2396333   -2.9197612 
H    -4.3953052    1.1338906   -0.2652930 
H    -5.9980728    0.8530678   -2.1252839 
C    -1.0966808    0.7340593    5.9442274 
C    -1.7838609    0.0421085    4.9330927 
C    -1.7405553    0.4993819    3.6110426 
C    -1.0143546    1.6658751    3.2692808 
C    -0.3330219    2.3530176    4.2986081 
C    -0.3724677    1.8915738    5.6210874 
H    -1.1281960    0.3739489    6.9775027 
H    -2.3496067   -0.8636918    5.1753179 
H    -2.2539732   -0.0701265    2.8278959 
H     0.2206688    3.2679692    4.0592242 
H     0.1584100    2.4432760    6.4038708 
C    -1.5749464   -1.8036183   -2.0341089 
C    -0.1369705    0.1598604   -3.3427712 
C     3.0156568    0.7723383    1.4788280 
C     1.3983265   -1.0452347    2.7996280 
C    -2.0198072   -1.4222409   -3.4696685 
C    -0.8128789   -0.8856854   -4.2521389 
C     2.7612906    1.0823078    2.9641994 
C     2.4342767   -0.2536437    3.6471124 
C     1.3367352   -1.6451953   -1.3964750 
C     2.0855236   -1.5132905   -0.1982792 
C    -2.7347683   -1.8102101   -1.0253365 
C     1.1959817    0.7675480   -3.8061906 
C     3.2638799    1.9724446    0.5543328 
C     1.5318770   -2.5702531    2.9510777 
C     1.7641799   -2.5677558   -2.3737478 
C     3.2511479   -2.2849149   -0.0157259 
C    -2.3668729   -2.2909423    0.3786416 
C     1.4506586    2.1505605   -3.1917109 
C     3.9218410    1.5761056   -0.7735394 
C     0.4287640   -3.3900455    2.2787286 
C     2.9188216   -3.3361493   -2.1769419 
C     3.6658205   -3.1922603   -0.9981542 
H    -1.0886216   -2.7978501   -2.0465081 
H    -0.8721467    0.9810049   -3.2240835 
H     3.8854697    0.0871386    1.4165260 
H     0.3818463   -0.7488028    3.1160422 
H    -2.4879634   -2.2910678   -3.9641476 
H    -2.7884459   -0.6287514   -3.4055807 
H    -1.1218564   -0.4146813   -5.2026675 
H    -0.1111951   -1.6991529   -4.5145457 
H     3.6451695    1.5678691    3.4146157 
H     1.9147145    1.7850940    3.0633681 
H     2.0451739   -0.1083198    4.6691302 
H     3.3611686   -0.8525192    3.7275224 
H    -3.5315730   -2.4547657   -1.4434765 
H    -3.1589078   -0.7917714   -0.9788224 
H     1.1658474    0.8569442   -4.9083112 
H     2.0313700    0.0780974   -3.5797369 
H     3.9192466    2.6857746    1.0888483 
H     2.3073878    2.5034854    0.3765772 
H     1.5293213   -2.7754397    4.0392104 
H     2.5240692   -2.8981476    2.5900856 
H     1.1956520   -2.6897004   -3.3002715 
H     3.8467238   -2.1739824    0.8963194 
H    -3.2445808   -2.2701623    1.0476852 
H    -1.5893472   -1.6403243    0.8243021 
H    -1.9758214   -3.3229508    0.3651368 
H     1.3902627    2.1158093   -2.0883516 
H     2.4455942    2.5375813   -3.4654690 
H     0.6968179    2.8770961   -3.5434502 
H     4.0761466    2.4545876   -1.4210798 
H     3.3068610    0.8466585   -1.3288652 
H     4.9065936    1.1087567   -0.5949207 
H     0.5700341   -4.4673906    2.4691286 
H     0.4261377   -3.2414857    1.1848133 
H    -0.5659538   -3.1047815    2.6630128 
H     3.2378599   -4.0448746   -2.9477301 
H     4.5723731   -3.7861065   -0.8443373 
