89
Energy =
C    -2.0401363    2.3085127   -0.5532103 
C    -2.1560242    1.9615355    0.8146046 
C    -1.0460866    2.1385182    1.6974975 
H    -3.0312951    1.3953948    1.1570144 
Pd   -0.4740041    0.7830165    0.0367394 
P     1.4154551   -0.2599812    0.8755818 
P    -0.2509844   -0.5736689   -1.8200105 
H    -1.2491181    3.0306467   -0.8122701 
H    -0.3752940    2.9842307    1.4884494 
C    -4.9323218    1.8128436   -3.7033334 
C    -3.7326834    2.5050375   -3.9277323 
C    -2.8109094    2.6652682   -2.8856141 
C    -3.0617951    2.1301601   -1.5997561 
C    -4.2850064    1.4530760   -1.3851744 
C    -5.2066352    1.2957520   -2.4257327 
H    -5.6570380    1.6880875   -4.5141288 
H    -3.5187629    2.9297818   -4.9138972 
H    -1.8841917    3.2241697   -3.0607789 
H    -4.5264228    1.0529144   -0.3952676 
H    -6.1487552    0.7702819   -2.2390025 
C    -0.7819416    0.6059774    5.7164929 
C    -0.0027630    1.7015297    5.3149628 
C    -0.1129150    2.2046310    4.0117359 
C    -0.9985213    1.6194422    3.0788842 
C    -1.7743889    0.5117884    3.4970598 
C    -1.6717836    0.0172502    4.8020536 
H    -0.6989360    0.2133639    6.7348752 
H     0.6887881    2.1718343    6.0217666 
H     0.4909108    3.0676346    3.7088282 
H    -2.4435838    0.0134441    2.7869727 
H    -2.2821297   -0.8395141    5.1060055 
C    -1.6817707   -1.7182702   -2.2836717 
C    -0.1153419    0.2071604   -3.5311109 
C     2.9239661    0.8064300    1.2726762 
C     1.3579004   -1.1048066    2.5544317 
C    -2.1995319   -1.1426312   -3.6218002 
C    -0.9888253   -0.6796006   -4.4452280 
C     3.1302657    0.6261937    2.7970907 
C     2.7333556   -0.8037110    3.1914174 
C     1.2133135   -1.6637355   -1.5561647 
C     1.9770264   -1.4987839   -0.3739013 
C    -2.7542541   -1.8806507   -1.1964252 
C     1.3039118    0.5093936   -4.0315454 
C     2.7950820    2.2673691    0.8037554 
C     0.9088893   -2.5752175    2.5486616 
C     1.6048107   -2.6292281   -2.5064977 
C     3.1282647   -2.2893248   -0.1779058 
C    -2.2394369   -2.4762182    0.1174530 
C     2.1043420    1.4298520   -3.1028689 
C     4.0710662    3.0893484    1.0335792 
C     0.7042261   -3.1346972    3.9643739 
C     2.7464838   -3.4128477   -2.2966139 
C     3.5115061   -3.2393528   -1.1329405 
H    -1.2040110   -2.6995998   -2.4719187 
H    -0.6516216    1.1647058   -3.3842126 
H     3.7604514    0.3256481    0.7295220 
H     0.5957540   -0.5072430    3.0911878 
H    -2.8006180   -1.8996156   -4.1555822 
H    -2.8637564   -0.2818810   -3.4194290 
H    -1.2955921   -0.1151526   -5.3437917 
H    -0.4051277   -1.5518528   -4.7972120 
H     4.1731689    0.8523907    3.0777267 
H     2.4820960    1.3427715    3.3349585 
H     2.6829741   -0.9148408    4.2883148 
H     3.4866050   -1.5301332    2.8301880 
H    -3.5549289   -2.5218020   -1.6116421 
H    -3.2152986   -0.8946965   -1.0077888 
H     1.2106493    0.9749980   -5.0311886 
H     1.8533834   -0.4378323   -4.1852252 
H     1.9457129    2.7344429    1.3372658 
H     2.5326954    2.2842854   -0.2695429 
H     1.6515916   -3.1884349    2.0054141 
H    -0.0352209   -2.6609733    1.9820465 
H     1.0179064   -2.7712504   -3.4198910 
H     3.7317988   -2.1668479    0.7270640 
H    -3.0622663   -2.6226316    0.8381367 
H    -1.5019146   -1.7966997    0.5876248 
H    -1.7476830   -3.4526257   -0.0410952 
H     2.2849924    0.9446354   -2.1263951 
H     3.0868925    1.6785970   -3.5376077 
H     1.5654659    2.3759460   -2.9131447 
H     3.9478338    4.1163047    0.6494331 
H     4.9341290    2.6352642    0.5143630 
H     4.3214974    3.1613675    2.1062068 
H     0.3289369   -4.1713286    3.9220179 
H    -0.0273219   -2.5269262    4.5258654 
H     1.6468869   -3.1443234    4.5385600 
H     3.0415655   -4.1567694   -3.0434181 
H     4.4063971   -3.8475274   -0.9671908 
