89
Energy =
C    -1.9701026    2.3085452   -0.5082782 
C    -2.1129986    1.8968854    0.8387742 
C    -1.0356988    2.0648188    1.7624793 
H    -2.9836023    1.2972707    1.1330685 
Pd   -0.3905417    0.7839339    0.0545782 
P     1.5107673   -0.2636192    0.8563770 
P    -0.1484548   -0.5306681   -1.8289577 
H    -1.1890304    3.0576377   -0.7130315 
H    -0.3806538    2.9335694    1.6097064 
C    -4.7823506    1.9320660   -3.7454142 
C    -3.5704237    2.6179428   -3.9183887 
C    -2.6744865    2.7372590   -2.8488333 
C    -2.9636552    2.1659936   -1.5866471 
C    -4.1982393    1.4952274   -1.4237164 
C    -5.0943505    1.3792740   -2.4917567 
H    -5.4873349    1.8397959   -4.5776596 
H    -3.3271386    3.0696083   -4.8856003 
H    -1.7379093    3.2910049   -2.9830322 
H    -4.4702602    1.0704019   -0.4523359 
H    -6.0465495    0.8593780   -2.3448345 
C    -1.0069740    0.4960971    5.7747194 
C    -1.7667026   -0.1430909    4.7794887 
C    -1.7780119    0.3524346    3.4720615 
C    -1.0434539    1.5134891    3.1318276 
C    -0.2795433    2.1421101    4.1415569 
C    -0.2595068    1.6372301    5.4489061 
H    -0.9967103    0.1032340    6.7963805 
H    -2.3437490   -1.0409100    5.0239631 
H    -2.3451300   -0.1795652    2.7000072 
H     0.2896973    3.0468046    3.8995721 
H     0.3333345    2.1435980    6.2176422 
C    -1.6018692   -1.6414163   -2.3046719 
C     0.0091518    0.2592261   -3.5321250 
C     3.0676121    0.7835967    0.9989476 
C     1.6162658   -0.8793529    2.6171297 
C    -2.1231318   -1.0207594   -3.6194482 
C    -0.9065157   -0.5821327   -4.4494835 
C     3.9587641   -0.0333809    1.9657105 
C     3.1056260   -0.7355405    3.0585940 
C     1.2555207   -1.6925691   -1.5430704 
C     1.9471464   -1.6321108   -0.3061393 
C    -2.6482834   -1.8284918   -1.1972829 
C     1.4390694    0.5070629   -4.0322082 
C     2.7305008    2.2094985    1.4906726 
C     0.9510228   -2.2463088    2.8683829 
C     1.6042062   -2.6775470   -2.4895907 
C     2.9457651   -2.5899298   -0.0309597 
C    -2.1057483   -2.5108179    0.0635049 
C     2.2623325    1.4137819   -3.1100990 
C     2.2219232    3.1313266    0.3775353 
C     0.9497558   -2.6437913    4.3510775 
C     2.6170365   -3.6043957   -2.2135831 
C     3.2789805   -3.5673677   -0.9775317 
H    -1.1392072   -2.6217412   -2.5312953 
H    -0.4857017    1.2371345   -3.3741146 
H     3.5390491    0.8451618    0.0020149 
H     1.0161024   -0.1177061    3.1508916 
H    -2.7541206   -1.7474696   -4.1608577 
H    -2.7570556   -0.1444347   -3.3915940 
H    -1.2046712    0.0078901   -5.3342952 
H    -0.3569746   -1.4676162   -4.8227895 
H     4.5130116   -0.7866779    1.3809342 
H     4.7229201    0.6244680    2.4163402 
H     3.1406606   -0.1665134    4.0025623 
H     3.5321219   -1.7296808    3.2804431 
H    -3.4812352   -2.4232777   -1.6179243 
H    -3.0721395   -0.8408610   -0.9407890 
H     1.3664546    0.9630430   -5.0379617 
H     1.9578604   -0.4596331   -4.1711718 
H     3.6506907    2.6400996    1.9282465 
H     1.9974597    2.1582833    2.3186528 
H     1.4584386   -3.0275864    2.2721838 
H    -0.0904177   -2.2010132    2.5006663 
H     1.0736374   -2.7327241   -3.4458969 
H     3.4652616   -2.5853136    0.9308415 
H    -2.9029882   -2.6549121    0.8129333 
H    -1.3149671   -1.8931819    0.5316781 
H    -1.6692590   -3.4995787   -0.1644237 
H     2.3965715    0.9512769   -2.1151392 
H     3.2648253    1.6039402   -3.5285105 
H     1.7650180    2.3883912   -2.9575438 
H     1.9224392    4.1161622    0.7752403 
H     1.3439974    2.6871363   -0.1340960 
H     3.0008784    3.2939501   -0.3879634 
H     0.4256217   -3.6041326    4.4944099 
H     0.4406312   -1.8791000    4.9623662 
H     1.9755103   -2.7623269    4.7416140 
H     2.8784285   -4.3644631   -2.9566330 
H     4.0557803   -4.3033308   -0.7470036 
