89
Energy =
C    -2.0454189    2.2497164   -0.4262143 
C    -2.1742208    1.8770541    0.9329105 
C    -1.0689179    2.0465224    1.8249361 
H    -3.0498501    1.3013442    1.2586126 
Pd   -0.4798035    0.7102211    0.1589770 
P     1.4647569   -0.2425913    0.9857151 
P    -0.2370982   -0.6584967   -1.6926486 
H    -1.2391143    2.9619152   -0.6650752 
H    -0.4081919    2.9039752    1.6331898 
C    -4.9022281    1.8411565   -3.6187111 
C    -3.6517466    2.4380954   -3.8416492 
C    -2.7427244    2.5737630   -2.7855826 
C    -3.0567074    2.1062346   -1.4874368 
C    -4.3303477    1.5294838   -1.2741330 
C    -5.2397402    1.3974217   -2.3291404 
H    -5.6176085    1.7368552   -4.4406559 
H    -3.3882844    2.8070940   -4.8382359 
H    -1.7743167    3.0571336   -2.9598109 
H    -4.6195810    1.1881530   -0.2750072 
H    -6.2220108    0.9509148   -2.1438676 
C    -0.7584648    0.4337226    5.8076067 
C    -0.0224264    1.5687945    5.4353356 
C    -0.1514854    2.0996428    4.1448349 
C    -1.0144145    1.5045938    3.1972225 
C    -1.7523199    0.3620195    3.5879473 
C    -1.6278100   -0.1634191    4.8788400 
H    -0.6588893    0.0176554    6.8151741 
H     0.6510208    2.0468477    6.1543074 
H     0.4199007    2.9916183    3.8635081 
H    -2.4063535   -0.1385528    2.8657616 
H    -2.2046424   -1.0505678    5.1604602 
C    -1.6959233   -1.7544978   -2.2099416 
C     0.0266016    0.0679418   -3.4199499 
C     2.9076850    0.9610617    1.2267799 
C     1.5980193   -0.9984200    2.7151329 
C    -2.0657643   -1.2545946   -3.6279966 
C    -0.7842355   -0.8470242   -4.3622182 
C     3.1993440    0.9177084    2.7458154 
C     2.9603942   -0.5071692    3.2543512 
C     1.2048791   -1.7684410   -1.3697359 
C     2.0180994   -1.5133867   -0.2347610 
C    -2.8991776   -1.7499613   -1.2527946 
C     1.4783678    0.3163642   -3.8537738 
C     2.6508290    2.3760847    0.6753076 
C     1.3823392   -2.5128997    2.8581257 
C     1.5674235   -2.7989773   -2.2606722 
C     3.1956013   -2.2641813   -0.0426557 
C    -2.6217588   -2.2497097    0.1643501 
C     2.2591739    1.2641594   -2.9397899 
C     3.8983599    3.2701978    0.7099249 
C     0.0456989   -3.0247338    2.3211610 
C     2.7288492   -3.5530868   -2.0462460 
C     3.5504917   -3.2770410   -0.9432698 
H    -1.2752600   -2.7769280   -2.2721961 
H    -0.5008989    1.0388993   -3.3476741 
H     3.7511981    0.5017393    0.6753072 
H     0.7930302   -0.4715485    3.2622870 
H    -2.6274303   -2.0348402   -4.1709266 
H    -2.7331391   -0.3770238   -3.5359907 
H    -1.0028429   -0.3210153   -5.3088353 
H    -0.1854990   -1.7400349   -4.6255274 
H     4.2274600    1.2595406    2.9550105 
H     2.5110985    1.6116333    3.2629147 
H     2.9666908   -0.5531775    4.3578691 
H     3.7664299   -1.1795674    2.9025931 
H    -3.6864645   -2.3708338   -1.7215117 
H    -3.3050356   -0.7240894   -1.2150320 
H     1.4455450    0.7290138   -4.8801621 
H     2.0090615   -0.6508489   -3.9307179 
H     1.8395067    2.8398595    1.2673193 
H     2.2757859    2.3084593   -0.3602523 
H     1.4656791   -2.7421110    3.9376884 
H     2.2133898   -3.0537135    2.3686369 
H     0.9447346   -3.0144020   -3.1349621 
H     3.8418012   -2.0612363    0.8173747 
H    -3.5449341   -2.2505898    0.7695148 
H    -1.8896930   -1.5921014    0.6707755 
H    -2.2147042   -3.2759634    0.1672385 
H     2.3886743    0.8222322   -1.9360360 
H     3.2644570    1.4702342   -3.3439811 
H     1.7354873    2.2298424   -2.8199040 
H     3.6774953    4.2637486    0.2839366 
H     4.7203589    2.8248948    0.1210768 
H     4.2641151    3.4223296    1.7401901 
H    -0.0850710   -4.0976954    2.5412266 
H    -0.0094253   -2.9007844    1.2260342 
H    -0.8009879   -2.4767052    2.7695197 
H     2.9974729   -4.3499474   -2.7469929 
H     4.4656554   -3.8549839   -0.7801261 
