89
Energy =
C    -2.0458095    2.2250806   -0.3328253 
C    -2.0422639    1.9638462    1.0569167 
C    -0.8766376    2.2005881    1.8465689 
H    -2.8830889    1.4174764    1.5020545 
Pd   -0.4035298    0.7447414    0.2368360 
P     1.5313394   -0.2113773    1.0741989 
P    -0.1280598   -0.6107288   -1.6322130 
H    -1.2868749    2.9269571   -0.7130293 
H    -0.2248956    3.0297685    1.5353059 
C    -5.2469501    1.4731600   -3.1088209 
C    -4.0484433    2.0649805   -3.5366993 
C    -3.0262806    2.3220281   -2.6150103 
C    -3.1701935    1.9752272   -1.2508628 
C    -4.3937116    1.4029875   -0.8314646 
C    -5.4183628    1.1560473   -1.7507753 
H    -6.0503648    1.2752074   -3.8254506 
H    -3.9152577    2.3385372   -4.5885089 
H    -2.1017165    2.8073242   -2.9489703 
H    -4.5490233    1.1432995    0.2200271 
H    -6.3589106    0.7136427   -1.4069120 
C    -0.4597048    1.0422635    5.9774173 
C    -1.3253142    0.3251189    5.1344880 
C    -1.4708671    0.6956555    3.7929482 
C    -0.7601416    1.7996279    3.2639665 
C     0.1015952    2.5139926    4.1255225 
C     0.2517256    2.1385870    5.4673537 
H    -0.3441507    0.7494531    7.0258311 
H    -1.8835459   -0.5328346    5.5235158 
H    -2.1245460    0.1058416    3.1406301 
H     0.6513496    3.3797786    3.7394722 
H     0.9221971    2.7089514    6.1185610 
C    -1.4223476   -1.8141689   -2.3138854 
C     0.0758498    0.2684378   -3.2777370 
C     3.0135216    0.8533707    1.5839053 
C     1.4428760   -1.1430559    2.7125725 
C    -1.4034181   -1.6277539   -3.8669917 
C    -0.1715757   -0.8264992   -4.3297761 
C     3.1753790    0.5959357    3.1018870 
C     2.7927663   -0.8580647    3.4048600 
C     1.3589303   -1.6732907   -1.3282404 
C     2.1511754   -1.4132942   -0.1807035 
C    -2.8441425   -1.6259233   -1.7506379 
C     1.2800032    1.2009565   -3.4938673 
C     2.9140551    2.3419146    1.2160789 
C     1.0441619   -2.6229935    2.6307909 
C     1.7448274   -2.7083538   -2.2057546 
C     3.3430150   -2.1390214    0.0208457 
C    -3.0074352   -1.8496575   -0.2464566 
C     2.6705598    0.5529116   -3.4813795 
C     2.7954250    2.6172215   -0.2840913 
C    -0.3190225   -2.8657785    1.9772598 
C     2.9240591   -3.4316096   -1.9872258 
C     3.7355724   -3.1343988   -0.8828919 
H    -1.0507491   -2.8160042   -2.0311755 
H    -0.8339431    0.9027560   -3.2526039 
H     3.8695566    0.4083314    1.0409554 
H     0.6528360   -0.5895819    3.2566104 
H    -1.4700657   -2.6072779   -4.3704888 
H    -2.3103797   -1.0615259   -4.1456206 
H    -0.3455187   -0.3703697   -5.3212853 
H     0.7197052   -1.4689076   -4.4355410 
H     4.2065560    0.8307645    3.4191477 
H     2.4988199    1.2717576    3.6559727 
H     2.7072039   -1.0390716    4.4910124 
H     3.5667763   -1.5523746    3.0259379 
H    -3.4975445   -2.3320165   -2.2988263 
H    -3.1994032   -0.6164552   -2.0208160 
H     1.2399193    2.0064291   -2.7382420 
H     1.1203710    1.6982123   -4.4698642 
H     3.8139811    2.8432972    1.6200788 
H     2.0536919    2.7833924    1.7517516 
H     1.0391669   -3.0171672    3.6649268 
H     1.8272379   -3.1879045    2.0909941 
H     1.1269059   -2.9576555   -3.0723272 
H     3.9684301   -1.9373370    0.8961295 
H    -4.0605495   -1.7110505    0.0516673 
H    -2.3950110   -1.1296380    0.3312528 
H    -2.7006508   -2.8676052    0.0513838 
H     2.7469860   -0.2718625   -4.2108837 
H     3.4378946    1.3009136   -3.7437108 
H     2.9249293    0.1460659   -2.4886723 
H     2.7555532    3.7001769   -0.4908163 
H     1.8697288    2.1630199   -0.6870765 
H     3.6480534    2.1936862   -0.8434729 
H    -1.1163052   -2.3013674    2.4922378 
H    -0.5877865   -3.9353240    1.9998347 
H    -0.3145826   -2.5448304    0.9205023 
H     3.2109782   -4.2256962   -2.6838775 
H     4.6634111   -3.6898932   -0.7137283 
