89
Energy =
C    -1.9824373    2.2497397   -0.3590512 
C    -2.0413988    1.9327709    1.0164485 
C    -0.9077270    2.1243046    1.8645438 
H    -2.9092323    1.3850079    1.4044641 
Pd   -0.3742010    0.7223489    0.2323831 
P     1.5509867   -0.2151025    1.1029635 
P    -0.0465405   -0.6235885   -1.6378153 
H    -1.1902423    2.9455449   -0.6776495 
H    -0.2418763    2.9643884    1.6207515 
C    -5.1052795    1.7730486   -3.2807996 
C    -3.8845179    2.3736802   -3.6240769 
C    -2.8832075    2.5282842   -2.6576957 
C    -3.0745886    2.0767443   -1.3310469 
C    -4.3192229    1.4935734   -0.9958244 
C    -5.3197647    1.3418566   -1.9606592 
H    -5.8916222    1.6537528   -4.0329399 
H    -3.7150274    2.7298082   -4.6454173 
H    -1.9359694    3.0089555   -2.9283065 
H    -4.5098497    1.1524746    0.0261633 
H    -6.2765439    0.8886014   -1.6817698 
C    -0.6680607    0.7578583    5.9457856 
C    -1.5012225    0.0902441    5.0323192 
C    -1.5909870    0.5307169    3.7071538 
C    -0.8555668    1.6566265    3.2652886 
C    -0.0282181    2.3214394    4.1973011 
C     0.0663984    1.8757981    5.5226805 
H    -0.5955357    0.4100476    6.9811736 
H    -2.0772408   -0.7840459    5.3530988 
H    -2.2182560   -0.0217300    2.9987245 
H     0.5387873    3.2037161    3.8796542 
H     0.7112468    2.4084427    6.2293841 
C    -1.3356094   -1.8921460   -2.2053372 
C     0.0996733    0.2549976   -3.3215379 
C     2.9912403    0.8865175    1.6539874 
C     1.4587472   -1.1728788    2.7248938 
C    -1.2467046   -1.8203132   -3.7501555 
C    -1.0735810   -0.3443144   -4.1414594 
C     3.1499458    0.5947767    3.1670692 
C     2.7942774   -0.8723889    3.4382663 
C     1.4778528   -1.6287914   -1.3329064 
C     2.2308913   -1.3794640   -0.1571457 
C    -2.7612379   -1.5935368   -1.6966532 
C     1.4620268    0.1667401   -4.0397359 
C     2.8392556    2.3823829    1.3332208 
C     1.0917091   -2.6592165    2.6136711 
C     1.9173057   -2.6222389   -2.2320492 
C     3.4332011   -2.0833544    0.0590293 
C    -2.9631193   -1.7347181   -0.1866257 
C     2.6131327    0.8820209   -3.3270922 
C     2.7246617    2.7132618   -0.1563118 
C    -0.2569449   -2.9193378    1.9367939 
C     3.1059195   -3.3253818   -1.9984383 
C     3.8746388   -3.0438218   -0.8599059 
H    -1.0058988   -2.8746032   -1.8215650 
H    -0.0991777    1.3174603   -3.0942125 
H     3.8667249    0.4891993    1.1050353 
H     0.6502688   -0.6444308    3.2667033 
H    -0.3875829   -2.4103225   -4.1178303 
H    -2.1507619   -2.2601557   -4.2075932 
H    -2.0021259    0.2089030   -3.9170738 
H    -0.8821315   -0.2278336   -5.2226664 
H     4.1739829    0.8433354    3.4966493 
H     2.4564131    1.2443259    3.7313517 
H     2.6998076   -1.0745391    4.5199478 
H     3.5869979   -1.5439647    3.0571933 
H    -3.4383586   -2.2952051   -2.2200204 
H    -3.0643832   -0.5824116   -2.0195088 
H     1.3159617    0.6218900   -5.0380619 
H     1.7288047   -0.8883861   -4.2298873 
H     3.7169313    2.9011118    1.7635931 
H     1.9603984    2.7729739    1.8779828 
H     1.0794414   -3.0701225    3.6411681 
H     1.8940817   -3.1992009    2.0767576 
H     1.3311795   -2.8532247   -3.1260644 
H     4.0299458   -1.8898519    0.9557991 
H    -4.0089614   -1.5147031    0.0865132 
H    -2.3107030   -1.0322413    0.3700049 
H    -2.7280095   -2.7560232    0.1602738 
H     2.8242477    0.4345298   -2.3408485 
H     3.5382227    0.8226701   -3.9249275 
H     2.3784024    1.9498473   -3.1714843 
H     2.6475746    3.8022781   -0.3161061 
H     1.8228598    2.2429494   -0.5954796 
H     3.6011290    2.3478606   -0.7191491 
H    -0.5019981   -3.9948200    1.9361267 
H    -0.2459016   -2.5782432    0.8861162 
H    -1.0722483   -2.3816216    2.4514479 
H     3.4339414   -4.0897277   -2.7099913 
H     4.8105609   -3.5818053   -0.6790011 
