89
Energy =
C    -1.9027770    2.2976920   -0.3652217 
C    -2.0022180    1.9601190    1.0064070 
C    -0.8979330    2.1813046    1.8862370 
H    -2.8572910    1.3682554    1.3563641 
Pd   -0.2839726    0.8286105    0.2372837 
P     1.6307018   -0.1459937    1.1021552 
P    -0.0371172   -0.5658298   -1.5963284 
H    -1.1400584    3.0450592   -0.6359634 
H    -0.2545884    3.0458739    1.6682987 
C    -4.7884536    1.6507565   -3.4942241 
C    -3.6048044    2.3634287   -3.7400579 
C    -2.6850096    2.5728154   -2.7051890 
C    -2.9222963    2.0690168   -1.4041904 
C    -4.1295573    1.3703451   -1.1684552 
C    -5.0486594    1.1623185   -2.2026140 
H    -5.5110618    1.4871553   -4.2999579 
H    -3.4018214    2.7647471   -4.7382622 
H    -1.7693622    3.1437182   -2.8985281 
H    -4.3620393    0.9929778   -0.1676977 
H    -5.9781101    0.6207828   -1.9989097 
C    -0.5910348    0.6814694    5.9162335 
C     0.1400208    1.8098812    5.5154220 
C     0.0165397    2.3029115    4.2094004 
C    -0.8348669    1.6751418    3.2727287 
C    -1.5674781    0.5393310    3.6929230 
C    -1.4501182    0.0523057    4.9994513 
H    -0.4970382    0.2968591    6.9367554 
H     0.8043521    2.3140828    6.2249727 
H     0.5812585    3.1931453    3.9104877 
H    -2.2153644    0.0153581    2.9816671 
H    -2.0248742   -0.8290778    5.3026797 
C    -1.4838830   -1.7262369   -1.9647254 
C     0.0647696    0.1247967   -3.3581416 
C     3.0802829    0.9663886    1.6184522 
C     1.5812915   -1.0949818    2.7344688 
C    -2.0551001   -1.1886650   -3.2966941 
C    -0.8786350   -0.7751591   -4.1867037 
C     3.3237270    0.6353023    3.1142444 
C     2.9532547   -0.8257222    3.3869754 
C     1.4609377   -1.6025640   -1.3064216 
C     2.2634947   -1.3350127   -0.1663219 
C    -2.4999121   -1.8271948   -0.8125046 
C     1.4607048    0.3137104   -3.9708191 
C     2.8730548    2.4745435    1.3902763 
C     1.1909580   -2.5772473    2.6572211 
C     1.8597323   -2.6003212   -2.2186128 
C     3.4713656   -2.0411601    0.0057530 
C    -3.7419924   -2.6578348   -1.1626975 
C     2.3828479    1.2480306   -3.1856399 
C     2.6743802    2.9072987   -0.0619647 
C    -0.1825718   -2.8328704    2.0344527 
C     3.0555227   -3.3047081   -2.0267486 
C     3.8684827   -3.0145439   -0.9210262 
H    -1.0276805   -2.7197825   -2.1434400 
H    -0.4157796    1.1156794   -3.2461009 
H     3.9349910    0.6176451    1.0075735 
H     0.8068009   -0.5465367    3.3056468 
H    -2.6846857   -1.9530514   -3.7833126 
H    -2.7004287   -0.3141422   -3.0947857 
H    -1.2167265   -0.2391094   -5.0913695 
H    -0.3276379   -1.6716429   -4.5315191 
H     4.3696349    0.8592633    3.3875934 
H     2.6775239    1.2888888    3.7285628 
H     2.9048448   -1.0370188    4.4700513 
H     3.7129799   -1.5103398    2.9644188 
H    -2.8054055   -0.8044858   -0.5256576 
H    -2.0030431   -2.2614015    0.0706993 
H     1.3110292    0.7083659   -4.9941492 
H     1.9453277   -0.6720403   -4.0958414 
H     3.7572640    2.9886742    1.8130994 
H     2.0131703    2.8033353    2.0021296 
H     1.2136149   -2.9732052    3.6903207 
H     1.9669909   -3.1331692    2.0982056 
H     1.2367037   -2.8273220   -3.0901751 
H     4.1094648   -1.8377163    0.8713017 
H    -4.3954123   -2.7658694   -0.2799315 
H    -3.4654421   -3.6723166   -1.5024603 
H    -4.3364299   -2.1809752   -1.9613509 
H     2.6118383    0.8312290   -2.1893684 
H     3.3401626    1.3947495   -3.7134797 
H     1.9203071    2.2402513   -3.0394990 
H     2.5627412    4.0026819   -0.1350728 
H     1.7610905    2.4461651   -0.4872849 
H     3.5277940    2.6094946   -0.6953443 
H    -0.4402861   -3.9050830    2.0574040 
H    -0.1958900   -2.5085467    0.9788977 
H    -0.9734811   -2.2756849    2.5662839 
H     3.3566257   -4.0738476   -2.7450355 
H     4.8097488   -3.5535457   -0.7736995 
