89
Energy =
C    -1.9052826    2.2754511   -0.4215639 
C    -2.0202503    1.9509178    0.9492724 
C    -0.9046567    2.1166551    1.8285234 
H    -2.9102565    1.4173274    1.3057447 
Pd   -0.3571680    0.7079667    0.2100592 
P     1.5689545   -0.2277855    1.0858784 
P    -0.0572051   -0.6677511   -1.6394715 
H    -1.0891211    2.9601925   -0.7013118 
H    -0.2216944    2.9493616    1.6084407 
C    -4.8454969    1.8023607   -3.5261232 
C    -3.6237018    2.4428929   -3.7828338 
C    -2.6868605    2.6017463   -2.7547007 
C    -2.9433408    2.1130502   -1.4512978 
C    -4.1906506    1.4939604   -1.2027826 
C    -5.1275515    1.3387730   -2.2296702 
H    -5.5820507    1.6788677   -4.3263996 
H    -3.4044418    2.8285210   -4.7838050 
H    -1.7419579    3.1196606   -2.9558766 
H    -4.4349488    1.1335084   -0.1992311 
H    -6.0880062    0.8578511   -2.0177514 
C    -0.7029271    0.6507134    5.8770916 
C     0.0661028    1.7539541    5.4773204 
C    -0.0225572    2.2367738    4.1646124 
C    -0.8769627    1.6237554    3.2210829 
C    -1.6483503    0.5135674    3.6400048 
C    -1.5651402    0.0367706    4.9529064 
H    -0.6351754    0.2733588    6.9023890 
H     0.7331223    2.2463707    6.1926031 
H     0.5719295    3.1074022    3.8657007 
H    -2.2985278    0.0006341    2.9229532 
H    -2.1690842   -0.8250704    5.2556365 
C    -1.3703293   -1.9184388   -2.1581608 
C    -0.0180732    0.1785199   -3.3423604 
C     3.0191983    0.8968032    1.5787496 
C     1.5261881   -1.1395222    2.7377898 
C    -2.1618841   -1.1353467   -3.2235923 
C    -1.1208095   -0.5274553   -4.1733296 
C     3.2602949    0.6017333    3.0814817 
C     2.8982410   -0.8567269    3.3831342 
C     1.4854546   -1.6397575   -1.3594053 
C     2.2340468   -1.4062529   -0.1762917 
C    -2.1751606   -2.6266122   -1.0571720 
C     1.3339999    0.2793454   -4.0673373 
C     2.8272559    2.3965072    1.2964604 
C     1.1148583   -2.6161757    2.6865136 
C     1.9468782   -2.5862692   -2.2969679 
C     3.4434436   -2.1039111    0.0212203 
C    -3.0256109   -1.7245944   -0.1582911 
C     2.3973315    1.1035671   -3.3381879 
C     2.6426197    2.7671559   -0.1752156 
C    -0.3020986   -2.8341466    2.1527762 
C     3.1456989   -3.2781570   -2.0831672 
C     3.8987763   -3.0303753   -0.9260284 
H    -0.7826008   -2.6949695   -2.6867073 
H    -0.3627946    1.1997708   -3.0989303 
H     3.8720461    0.5224941    0.9806173 
H     0.7572519   -0.5719040    3.2981735 
H    -2.8610534   -1.8066822   -3.7532512 
H    -2.7666837   -0.3384509   -2.7542644 
H    -1.5754914    0.1894455   -4.8787928 
H    -0.6591858   -1.3330109   -4.7757513 
H     4.3043507    0.8378267    3.3517835 
H     2.6087352    1.2634827    3.6809241 
H     2.8504285   -1.0465234    4.4701838 
H     3.6611929   -1.5459224    2.9744096 
H    -1.4792827   -3.2243831   -0.4426421 
H    -2.8314917   -3.3609884   -1.5623712 
H     1.1296503    0.7316394   -5.0571744 
H     1.7204233   -0.7348163   -4.2775139 
H     3.7138813    2.9194034    1.7030941 
H     1.9673356    2.7578900    1.8894398 
H     1.1952512   -3.0177399    3.7145342 
H     1.8440077   -3.1825284    2.0768855 
H     1.3694614   -2.7859772   -3.2059758 
H     4.0387689   -1.9284888    0.9224469 
H    -3.5162596   -2.3156103    0.6333700 
H    -3.8090596   -1.2059312   -0.7337979 
H    -2.3985518   -0.9539138    0.3338247 
H     2.6638701    0.6463843   -2.3693591 
H     3.3197935    1.1746266   -3.9387389 
H     2.0412012    2.1303343   -3.1421365 
H     2.5330159    3.8582526   -0.2982160 
H     1.7341263    2.2870844   -0.5893576 
H     3.5025837    2.4407889   -0.7851771 
H    -0.5591611   -3.9059973    2.1149229 
H    -0.3981076   -2.4260399    1.1314405 
H    -1.0485196   -2.3209635    2.7828412 
H     3.4940486   -4.0068514   -2.8219605 
H     4.8397572   -3.5633793   -0.7567924 
