89
Energy =
C    -1.9743929    2.1953026   -0.5709159 
C    -2.0977575    1.9315212    0.8121473 
C    -0.9835569    2.1316348    1.6865564 
H    -2.9925934    1.4198088    1.1882836 
Pd   -0.4378036    0.6468756    0.1357351 
P     1.4837886   -0.2685191    1.0330126 
P    -0.1223321   -0.7716682   -1.6687449 
H    -1.1500923    2.8607097   -0.8736429 
H    -0.2954948    2.9492819    1.4290949 
C    -4.8853238    1.6085965   -3.6838207 
C    -3.6712564    2.2608393   -3.9468754 
C    -2.7448228    2.4575622   -2.9155564 
C    -3.0035814    1.9955315   -1.6024993 
C    -4.2444789    1.3662564   -1.3485372 
C    -5.1711023    1.1733746   -2.3781799 
H    -5.6137733    1.4547707   -4.4862776 
H    -3.4503741    2.6271828   -4.9547035 
H    -1.8083543    2.9890464   -3.1213487 
H    -4.4912778    1.0267255   -0.3383501 
H    -6.1269105    0.6852998   -2.1615058 
C    -0.7854555    0.8655274    5.8008061 
C    -0.0027567    1.9363179    5.3431873 
C    -0.0909532    2.3538979    4.0083689 
C    -0.9592067    1.7070945    3.1006025 
C    -1.7437650    0.6299292    3.5773813 
C    -1.6605150    0.2181899    4.9121753 
H    -0.7184119    0.5392797    6.8435470 
H     0.6752293    2.4536098    6.0300692 
H     0.5159276    3.1977964    3.6610998 
H    -2.4053733    0.0915403    2.8898471 
H    -2.2748893   -0.6187697    5.2603294 
C    -1.3921466   -2.0589627   -2.2072581 
C    -0.0729762    0.0763392   -3.3588994 
C     2.9500497    0.8671790    1.4069839 
C     1.4432185   -1.0453758    2.7474830 
C    -2.1224494   -1.3502359   -3.3665749 
C    -1.0264452   -0.7441087   -4.2587363 
C     3.1521828    0.7525274    2.9381090 
C     2.8024516   -0.6761980    3.3795281 
C     1.4275644   -1.7282755   -1.3767145 
C     2.1358145   -1.5140417   -0.1674020 
C    -2.2423362   -2.7261120   -1.1137271 
C     1.3152335    0.3784434   -3.9404348 
C     2.7869650    2.3014407    0.8733074 
C     1.0510995   -2.5273621    2.8060096 
C     1.9189087   -2.6603914   -2.3136066 
C     3.3217857   -2.2370588    0.0759808 
C    -3.1387818   -1.7971048   -0.2913934 
C     2.1717618    1.2897776   -3.0530937 
C     4.0461203    3.1597264    1.0592013 
C    -0.3398728   -2.8096828    2.2307317 
C     3.0979931   -3.3723094   -2.0593035 
C     3.7988650   -3.1615342   -0.8621489 
H    -0.7617856   -2.8513710   -2.6559211 
H    -0.5723609    1.0371710   -3.1366364 
H     3.8048994    0.3898434    0.8901936 
H     0.6574260   -0.4505610    3.2531474 
H    -2.7550422   -2.0690746   -3.9171263 
H    -2.7869725   -0.5529394   -2.9849269 
H    -1.4477407   -0.0981301   -5.0489963 
H    -0.4631951   -1.5537195   -4.7615297 
H     4.1851307    1.0245735    3.2147422 
H     2.4762684    1.4647802    3.4459141 
H     2.7438817   -0.7586227    4.4793544 
H     3.5830571   -1.3871973    3.0477335 
H    -1.5675210   -3.2868486   -0.4421981 
H    -2.8678832   -3.4904819   -1.6135207 
H     1.1617352    0.8561324   -4.9271409 
H     1.8535453   -0.5664721   -4.1405348 
H     1.9310692    2.7750370    1.3889028 
H     2.5198589    2.2627142   -0.1984910 
H     1.0889845   -2.8394292    3.8670171 
H     1.8106124   -3.1347010    2.2786938 
H     1.3806171   -2.8334412   -3.2518114 
H     3.8821758   -2.0790373    1.0027435 
H    -3.6696788   -2.3634404    0.4924142 
H    -3.8917714   -1.3004504   -0.9237768 
H    -2.5384856   -1.0098846    0.2073709 
H     2.4067361    0.8003962   -2.0906148 
H     3.1284789    1.5374983   -3.5425789 
H     1.6476878    2.2370028   -2.8299665 
H     3.8989988    4.1658917    0.6309751 
H     4.9164005    2.7016919    0.5557009 
H     4.2998906    3.2842850    2.1262403 
H    -0.5933851   -3.8810098    2.2975726 
H    -0.3896340   -2.5174532    1.1661953 
H    -1.1159997   -2.2362566    2.7665499 
H     3.4709644   -4.0904612   -2.7964212 
H     4.7196912   -3.7172605   -0.6585969 
