89
Energy =
C    -1.9189979    2.2813218   -0.3920058 
C    -2.0095542    1.9652298    0.9853073 
C    -0.9025298    2.2066382    1.8563156 
H    -2.8592803    1.3737239    1.3485873 
Pd   -0.2880399    0.8321930    0.2258707 
P     1.6377363   -0.1160668    1.0953759 
P    -0.0427855   -0.5907021   -1.5860497 
H    -1.1623188    3.0288655   -0.6787122 
H    -0.2656493    3.0718254    1.6224313 
C    -4.8159579    1.5638140   -3.4949196 
C    -3.6385976    2.2805141   -3.7584908 
C    -2.7151488    2.5133493   -2.7319450 
C    -2.9423701    2.0293358   -1.4216958 
C    -4.1438777    1.3270603   -1.1681295 
C    -5.0667109    1.0957486   -2.1939454 
H    -5.5410064    1.3811903   -4.2943300 
H    -3.4432542    2.6663616   -4.7642702 
H    -1.8046135    3.0874800   -2.9392590 
H    -4.3690236    0.9652446   -0.1599963 
H    -5.9916017    0.5517902   -1.9764841 
C    -0.5621486    0.7649676    5.9047590 
C    -1.4258381    0.1203112    5.0032314 
C    -1.5550086    0.5890468    3.6911568 
C    -0.8294334    1.7213213    3.2497635 
C     0.0254613    2.3658202    4.1717597 
C     0.1604982    1.8913059    5.4834628 
H    -0.4573719    0.3933731    6.9290259 
H    -1.9948169   -0.7590475    5.3227497 
H    -2.2069885    0.0534159    2.9924560 
H     0.5838131    3.2544756    3.8566856 
H     0.8269345    2.4086363    6.1814737 
C    -1.4846125   -1.7660360   -1.9249713 
C     0.0437664    0.0699062   -3.3601968 
C     3.0837999    1.0131818    1.5840306 
C     1.6039627   -1.0381322    2.7435852 
C    -2.0679260   -1.2547187   -3.2619933 
C    -0.9000489   -0.8493394   -4.1668749 
C     3.3362575    0.7107542    3.0843325 
C     2.9767205   -0.7474720    3.3850860 
C     1.4631143   -1.6136059   -1.2875964 
C     2.2704204   -1.3222556   -0.1567527 
C    -2.4924008   -1.8532391   -0.7644076 
C     1.4345005    0.2558731   -3.9854718 
C     2.8672175    2.5157817    1.3294504 
C     1.2240394   -2.5242755    2.6937284 
C     1.8628043   -2.6240462   -2.1852887 
C     3.4831002   -2.0187002    0.0206025 
C    -3.7318079   -2.6970118   -1.0920888 
C     2.3567523    1.2086463   -3.2229748 
C     2.6603066    2.9207498   -0.1296521 
C    -0.1497751   -2.8005890    2.0805255 
C     3.0634184   -3.3186512   -1.9879861 
C     3.8805755   -3.0055117   -0.8916960 
H    -1.0235740   -2.7597573   -2.0896753 
H    -0.4414780    1.0599538   -3.2619927 
H     3.9374714    0.6578892    0.9754595 
H     0.8280925   -0.4860251    3.3092393 
H    -2.6960486   -2.0310506   -3.7312714 
H    -2.7172724   -0.3808526   -3.0706150 
H    -1.2475212   -0.3306091   -5.0780189 
H    -0.3460754   -1.7482747   -4.5003299 
H     4.3819305    0.9463001    3.3485971 
H     2.6886865    1.3710883    3.6898518 
H     2.9342704   -0.9394065    4.4719966 
H     3.7393923   -1.4344046    2.9717360 
H    -2.8020304   -0.8275697   -0.4930409 
H    -1.9871527   -2.2693712    0.1227537 
H     1.2757493    0.6318455   -5.0144315 
H     1.9237480   -0.7292450   -4.0966478 
H     3.7502292    3.0424189    1.7391296 
H     2.0079319    2.8509156    1.9386990 
H     1.2532959   -2.9019266    3.7334914 
H     2.0019968   -3.0843281    2.1415939 
H     1.2367000   -2.8687257   -3.0498254 
H     4.1245801   -1.7973231    0.8792067 
H    -4.3787178   -2.7937936   -0.2032653 
H    -3.4514524   -3.7154849   -1.4163550 
H    -4.3343158   -2.2373469   -1.8947523 
H     2.5949190    0.8105938   -2.2212353 
H     3.3095386    1.3513199   -3.7600102 
H     1.8897638    2.2007604   -3.0909910 
H     2.5426391    4.0139884   -0.2224061 
H     1.7476847    2.4472449   -0.5425496 
H     3.5126698    2.6156906   -0.7609599 
H    -0.3998870   -3.8739661    2.1235937 
H    -0.1689294   -2.4955694    1.0192924 
H    -0.9427864   -2.2394829    2.6050780 
H     3.3649417   -4.0981574   -2.6948013 
H     4.8253057   -3.5371903   -0.7401124 
