89
Energy =
C    -1.9156063    2.3391732   -0.4987445 
C    -2.0591761    1.9302420    0.8486929 
C    -0.9906036    2.1020693    1.7800683 
H    -2.9292566    1.3276336    1.1379184 
Pd   -0.3313160    0.8194018    0.0635754 
P     1.5534707   -0.2701499    0.8687743 
P    -0.1603717   -0.5400132   -1.7950679 
H    -1.1342541    3.0870170   -0.7076700 
H    -0.3307690    2.9675613    1.6334880 
C    -4.7294599    1.9297138   -3.7312597 
C    -3.5118097    2.6022200   -3.9156489 
C    -2.6162038    2.7350823   -2.8472185 
C    -2.9102745    2.1886699   -1.5750965 
C    -4.1518343    1.5335984   -1.4006398 
C    -5.0482726    1.4055557   -2.4669986 
H    -5.4342911    1.8274550   -4.5624762 
H    -3.2638376    3.0337478   -4.8908471 
H    -1.6759190    3.2803639   -2.9901698 
H    -4.4300929    1.1324897   -0.4210273 
H    -6.0060134    0.8987856   -2.3105673 
C    -0.9284015    0.4622684    5.7645702 
C    -0.1558581    1.5881826    5.4411523 
C    -0.1966558    2.1224473    4.1467242 
C    -1.0038152    1.5391325    3.1435927 
C    -1.7726254    0.3997920    3.4838599 
C    -1.7406334   -0.1256404    4.7804472 
H    -0.8999556    0.0456377    6.7763790 
H     0.4745344    2.0585915    6.2029226 
H     0.3956280    3.0128695    3.9068017 
H    -2.3811044   -0.0971032    2.7202598 
H    -2.3455630   -1.0054384    5.0233073 
C    -1.6187982   -1.6842887   -2.1734297 
C    -0.0964295    0.1999170   -3.5254939 
C     3.1320843    0.6796667    1.2742592 
C     1.4130416   -1.0548798    2.5803163 
C    -2.1818387   -1.1438956   -3.5078272 
C    -0.9990460   -0.7096479   -4.3863577 
C     3.0472676    0.8244924    2.8075638 
C     2.6503954   -0.5516815    3.3639441 
C     1.2881696   -1.6583210   -1.5618017 
C     2.0519778   -1.5373695   -0.3749425 
C    -2.6473471   -1.8128702   -1.0402838 
C     1.2998404    0.5134097   -4.0781642 
C     3.4543138    1.9463157    0.4613958 
C     1.1600186   -2.5719364    2.6133523 
C     1.6489861   -2.6246649   -2.5233746 
C     3.1682881   -2.3766763   -0.1800850 
C    -2.0893048   -2.4126190    0.2545813 
C     2.0972105    1.4802369   -3.1956239 
C     2.4028343    3.0595818    0.4758900 
C     0.8295507   -3.0777578    4.0255839 
C     2.7595688   -3.4528893   -2.3177669 
C     3.5209945   -3.3278069   -1.1454513 
H    -1.1530241   -2.6728673   -2.3531079 
H    -0.6393000    1.1535255   -3.3763991 
H     3.9298152   -0.0576043    1.0584824 
H     0.5199187   -0.5493211    2.9920874 
H    -2.8044847   -1.9128257   -3.9981557 
H    -2.8344964   -0.2741344   -3.3076248 
H    -1.3360304   -0.1680201   -5.2880997 
H    -0.4306355   -1.5930644   -4.7353332 
H     4.0133828    1.1741292    3.2130018 
H     2.2833472    1.5737507    3.0842855 
H     2.4259222   -0.5042820    4.4430127 
H     3.4897586   -1.2620536    3.2320993 
H    -3.4803132   -2.4379379   -1.4145504 
H    -3.0768390   -0.8149251   -0.8392218 
H     1.1706548    0.9455751   -5.0887504 
H     1.8671290   -0.4256969   -4.2162453 
H     3.6609101    1.6519942   -0.5833533 
H     4.4108383    2.3403837    0.8549996 
H     2.0445488   -3.1080125    2.2233635 
H     0.3269176   -2.8174933    1.9302498 
H     1.0611363   -2.7342984   -3.4404477 
H     3.7693512   -2.2908100    0.7316329 
H    -2.8818961   -2.5286383    1.0137329 
H    -1.3108791   -1.7528789    0.6846233 
H    -1.6360825   -3.4050589    0.0814062 
H     2.2807472    1.0408938   -2.1983433 
H     3.0769640    1.7174133   -3.6428356 
H     1.5513549    2.4290998   -3.0439778 
H     2.7606425    3.9369120   -0.0886460 
H     2.1660914    3.3925071    1.5017392 
H     1.4618302    2.7153862    0.0030046 
H     0.6117864   -4.1592553    4.0105114 
H    -0.0520509   -2.5540261    4.4352025 
H     1.6708799   -2.9152831    4.7215456 
H     3.0316112   -4.1965389   -3.0735573 
H     4.3890569   -3.9742165   -0.9817179 
