89
Energy =
C    -1.8658906    2.2540136   -0.3242359 
C    -2.0035029    1.9277950    1.0439937 
C    -0.8975970    2.0842861    1.9377961 
H    -2.9038676    1.4035663    1.3882950 
Pd   -0.3448482    0.6673758    0.3293425 
P     1.5716634   -0.2845718    1.2007043 
P    -0.0117295   -0.6763936   -1.5327875 
H    -1.0384827    2.9315846   -0.5884908 
H    -0.2037360    2.9101283    1.7247013 
C    -4.7470918    1.8125439   -3.4880416 
C    -3.5263810    2.4670213   -3.7118533 
C    -2.6101165    2.6167199   -2.6638393 
C    -2.8858029    2.1039751   -1.3733887 
C    -4.1331163    1.4727866   -1.1577279 
C    -5.0495922    1.3270605   -2.2040793 
H    -5.4676068    1.6954575   -4.3037343 
H    -3.2916647    2.8708427   -4.7020856 
H    -1.6673139    3.1477649   -2.8392583 
H    -4.3925444    1.0941992   -0.1646963 
H    -6.0100793    0.8357575   -2.0176080 
C    -0.7561578    0.6452165    5.9970984 
C     0.0291325    1.7370677    5.5973856 
C    -0.0402323    2.2103768    4.2801554 
C    -0.8921623    1.5998258    3.3327666 
C    -1.6797851    0.5009336    3.7513193 
C    -1.6149598    0.0330742    5.0685439 
H    -0.7033293    0.2750427    7.0258903 
H     0.6943447    2.2271848    6.3159203 
H     0.5683503    3.0703551    3.9782207 
H    -2.3284209   -0.0099985    3.0312239 
H    -2.2308244   -0.8202249    5.3713856 
C    -1.2928309   -1.9210765   -2.1288611 
C     0.0649978    0.2460051   -3.1796240 
C     3.0403865    0.8367119    1.6205629 
C     1.5271409   -1.1165728    2.8895551 
C    -2.0308819   -1.1287043   -3.2273128 
C    -0.9453288   -0.4803177   -4.1032915 
C     3.2089567    0.6934710    3.1515902 
C     2.8730453   -0.7503169    3.5514851 
C     1.5292720   -1.6509171   -1.2628258 
C     2.2278769   -1.4847016   -0.0411676 
C    -2.1363672   -2.6422734   -1.0646076 
C     1.4696215    0.4848047   -3.7595792 
C     2.9223086    2.2857480    1.1243501 
C     1.1494970   -2.6036621    2.8970926 
C     2.0175061   -2.5609101   -2.2231279 
C     3.4038641   -2.2282607    0.1900840 
C    -3.0166524   -1.7526954   -0.1827512 
C     1.4556594    1.4621124   -4.9441363 
C     2.7919634    2.4252833   -0.3960458 
C    -0.2303841   -2.8824307    2.2933448 
C     3.1844404   -3.2956324   -1.9802828 
C     3.8781214   -3.1291631   -0.7717013 
H    -0.6779344   -2.6907338   -2.6354405 
H    -0.3681972    1.2260556   -2.9090254 
H     3.8996416    0.3562137    1.1141781 
H     0.7281369   -0.5475691    3.4040809 
H    -2.6851846   -1.7999580   -3.8114957 
H    -2.6762922   -0.3494001   -2.7819479 
H    -1.3810086    0.2276112   -4.8290126 
H    -0.4177775   -1.2630438   -4.6821645 
H     4.2318531    0.9817959    3.4509606 
H     2.5109141    1.3826698    3.6605102 
H     2.7989676   -0.8628511    4.6475928 
H     3.6672683   -1.4420414    3.2113601 
H    -1.4586138   -3.2436043   -0.4320295 
H    -2.7733629   -3.3735528   -1.5981961 
H     1.9087806   -0.4786715   -4.0767487 
H     2.1314377    0.8768234   -2.9654736 
H     3.8199981    2.8306827    1.4731452 
H     2.0601128    2.7668044    1.6233250 
H     1.1750356   -2.9466869    3.9488466 
H     1.9223902   -3.1880287    2.3635411 
H     1.4851006   -2.6991207   -3.1704057 
H     3.9569656   -2.1060746    1.1266846 
H    -3.5433262   -2.3568335    0.5751951 
H    -3.7726621   -1.2168120   -0.7786128 
H    -2.4046771   -0.9979143    0.3509218 
H     1.0366144    2.4404711   -4.6462693 
H     2.4780170    1.6327518   -5.3219241 
H     0.8490408    1.0758630   -5.7816682 
H     2.7657849    3.4859869   -0.6982755 
H     1.8557876    1.9510229   -0.7527511 
H     3.6358422    1.9413216   -0.9194754 
H    -0.4754447   -3.9571540    2.3298541 
H    -0.2671584   -2.5646931    1.2356489 
H    -1.0192599   -2.3291871    2.8318273 
H     3.5539857   -3.9972357   -2.7348465 
H     4.7903570   -3.7021763   -0.5775750 
