89
Energy =
C    -1.9399167    2.3061867   -0.2612522 
C    -2.1130676    1.8975184    1.0822239 
C    -1.0338013    2.0367462    2.0122811 
H    -3.0018294    1.3197741    1.3659561 
Pd   -0.4048189    0.7405782    0.3340159 
P     1.5284131   -0.2244711    1.1755212 
P    -0.1244275   -0.5939727   -1.5408469 
H    -1.1231086    3.0201174   -0.4543742 
H    -0.3670757    2.8994350    1.8692386 
C    -4.6849008    2.0019770   -3.5607464 
C    -3.4280416    2.6054593   -3.7211397 
C    -2.5555959    2.7055664   -2.6308631 
C    -2.9140976    2.1963152   -1.3601184 
C    -4.1934942    1.6126646   -1.2095245 
C    -5.0658932    1.5153885   -2.2989375 
H    -5.3716836    1.9248935   -4.4096394 
H    -3.1307058    3.0066278   -4.6954951 
H    -1.5814938    3.1924856   -2.7563922 
H    -4.5165893    1.2397310   -0.2323313 
H    -6.0533565    1.0627804   -2.1625356 
C    -0.8690804    0.3066284    5.9546290 
C    -0.1289584    1.4583348    5.6471720 
C    -0.2096042    2.0269655    4.3688275 
C    -1.0275526    1.4540701    3.3691969 
C    -1.7697235    0.2937590    3.6945932 
C    -1.6935876   -0.2695235    4.9732256 
H    -0.8070237   -0.1388380    6.9525956 
H     0.5097452    1.9199471    6.4074020 
H     0.3638879    2.9321633    4.1385939 
H    -2.3874077   -0.1906999    2.9304397 
H    -2.2728331   -1.1697001    5.2039053 
C    -1.5751632   -1.6571543   -2.1308348 
C     0.2029409    0.1883659   -3.2286036 
C     2.9700324    0.9681555    1.4934819 
C     1.6131900   -1.0246765    2.8905076 
C    -1.9176593   -1.0779662   -3.5252893 
C    -0.6200436   -0.6580894   -4.2252993 
C     3.1803902    0.9090367    3.0239251 
C     2.9446256   -0.5276056    3.4967195 
C     1.3083842   -1.7105285   -1.2081962 
C     2.1073563   -1.4654861   -0.0617441 
C    -2.7914990   -1.6946472   -1.1910771 
C     1.6837218    0.3945671   -3.5908059 
C     2.7834983    2.4006852    0.9676516 
C     1.4162851   -2.5454500    2.9860712 
C     1.6812126   -2.7330389   -2.1042034 
C     3.2835401   -2.2173245    0.1373849 
C    -2.5299187   -2.2595775    0.2045694 
C     1.8732370    1.2937174   -4.8210971 
C     2.6187872    2.5228992   -0.5485595 
C     0.1006214   -3.0620244    2.4036525 
C     2.8391219   -3.4895720   -1.8821577 
C     3.6486890   -3.2222020   -0.7676514 
H    -1.1600723   -2.6778468   -2.2417013 
H    -0.2861531    1.1768985   -3.1303284 
H     3.8357830    0.5016407    0.9842638 
H     0.7790953   -0.5252916    3.4196496 
H    -2.4868966   -1.8182730   -4.1144331 
H    -2.5703137   -0.1942366   -3.3960177 
H    -0.8262911   -0.0846318   -5.1458801 
H    -0.0357830   -1.5490109   -4.5267238 
H     4.1893360    1.2746311    3.2839625 
H     2.4523768    1.5807921    3.5148815 
H     2.9044229   -0.5952412    4.5982853 
H     3.7745547   -1.1809694    3.1651349 
H    -3.5743704   -2.2908167   -1.6974950 
H    -3.1950174   -0.6701062   -1.1101321 
H     2.1534368   -0.5899920   -3.7691541 
H     2.2163819    0.8339953   -2.7300615 
H     3.6651290    2.9849053    1.2931180 
H     1.9125534    2.8546748    1.4774166 
H     1.4763702   -2.8023226    4.0609868 
H     2.2671936   -3.0611152    2.5036884 
H     1.0699765   -2.9382379   -2.9892011 
H     3.9188492   -2.0228772    1.0076580 
H    -3.4601571   -2.2927549    0.7978114 
H    -1.8073350   -1.6232735    0.7497475 
H    -2.1178156   -3.2831164    0.1644931 
H     1.4262982    2.2910993   -4.6570306 
H     2.9455978    1.4355604   -5.0381834 
H     1.4053640    0.8577514   -5.7208857 
H     2.5482920    3.5798697   -0.8569850 
H     1.6927415    2.0141685   -0.8819185 
H     3.4700734    2.0675343   -1.0849008 
H    -0.0183003   -4.1424210    2.5918548 
H     0.0681454   -2.9093982    1.3113618 
H    -0.7645635   -2.5394780    2.8473090 
H     3.1154804   -4.2814027   -2.5856088 
H     4.5618897   -3.8016999   -0.5990475 
