89
Energy =
C    -1.9803070    2.2040224   -0.5226591 
C    -2.0585241    1.9509869    0.8656930 
C    -0.9150606    2.1524079    1.7010889 
H    -2.9425073    1.4460218    1.2750265 
Pd   -0.4285973    0.6538808    0.1445125 
P     1.5166075   -0.2673018    0.9848862 
P    -0.1828708   -0.7827837   -1.6573558 
H    -1.1639564    2.8636201   -0.8579964 
H    -0.2323203    2.9649669    1.4149396 
C    -4.9929630    1.5953259   -3.5327709 
C    -3.7868318    2.2420949   -3.8417765 
C    -2.8271821    2.4477380   -2.8430529 
C    -3.0440758    1.9996483   -1.5176306 
C    -4.2778872    1.3772148   -1.2167923 
C    -5.2376344    1.1754110   -2.2138288 
H    -5.7471257    1.4343695   -4.3096680 
H    -3.5977530    2.5968001   -4.8601713 
H    -1.8965079    2.9742519   -3.0847516 
H    -4.4925612    1.0492571   -0.1955335 
H    -6.1867948    0.6916176   -1.9612850 
C    -0.5843063    0.9134150    5.8150820 
C    -1.4941772    0.2664987    4.9618528 
C    -1.6206960    0.6696206    3.6278185 
C    -0.8451454    1.7374265    3.1164355 
C     0.0586177    2.3839602    3.9890500 
C     0.1898715    1.9750790    5.3229946 
H    -0.4833112    0.5936136    6.8570753 
H    -2.1023739   -0.5632412    5.3370806 
H    -2.3098863    0.1316404    2.9676514 
H     0.6589801    3.2210870    3.6150868 
H     0.8947978    2.4921963    5.9823333 
C    -1.4754441   -2.0695000   -2.1418985 
C    -0.1882249    0.0505960   -3.3553414 
C     3.0011568    0.8613426    1.3033074 
C     1.5272037   -1.0329867    2.7047190 
C    -2.2402797   -1.3685235   -3.2835242 
C    -1.1713479   -0.7759100   -4.2165438 
C     3.2548240    0.7535549    2.8273089 
C     2.9089529   -0.6695718    3.2895435 
C     1.3722233   -1.7436330   -1.4112000 
C     2.1219348   -1.5244304   -0.2280514 
C    -2.2922026   -2.7231989   -1.0153791 
C     1.1804273    0.3480731   -3.9834962 
C     2.8284522    2.2939820    0.7682080 
C     1.1278675   -2.5119794    2.7854697 
C     1.8268364   -2.6851043   -2.3572550 
C     3.3121662   -2.2515006   -0.0199017 
C    -3.1551914   -1.7826542   -0.1706587 
C     2.0638460    1.2670504   -3.1311202 
C     4.0985300    3.1451207    0.9064441 
C    -0.2827242   -2.7885235    2.2572752 
C     3.0102786   -3.4013165   -2.1377709 
C     3.7526384   -3.1851333   -0.9668555 
H    -0.8631258   -2.8685384   -2.6035418 
H    -0.6802135    1.0132501   -3.1244907 
H     3.8350075    0.3764388    0.7600336 
H     0.7622892   -0.4297493    3.2319346 
H    -2.8935129   -2.0898744   -3.8060003 
H    -2.8886782   -0.5645971   -2.8883342 
H    -1.6153175   -0.1367133   -4.9999002 
H    -0.6267934   -1.5926512   -4.7283055 
H     4.2988347    1.0184067    3.0668625 
H     2.6026818    1.4744940    3.3535170 
H     2.8856417   -0.7441070    4.3912351 
H     3.6729589   -1.3887867    2.9374340 
H    -1.5984636   -3.2828178   -0.3625361 
H    -2.9385482   -3.4875459   -1.4879973 
H     0.9953166    0.8175853   -4.9686858 
H     1.7127978   -0.5982432   -4.1927837 
H     1.9937017    2.7753359    1.3106086 
H     2.5243920    2.2518111   -0.2935636 
H     1.1980532   -2.8176746    3.8466973 
H     1.8660943   -3.1275071    2.2378172 
H     1.2562171   -2.8619522   -3.2754407 
H     3.9048401   -2.0891631    0.8857931 
H    -3.6626671   -2.3397867    0.6349518 
H    -3.9261444   -1.2863602   -0.7812710 
H    -2.5340421   -0.9952497    0.3018032 
H     2.3293538    0.7855587   -2.1725207 
H     3.0045180    1.5113157   -3.6524017 
H     1.5462915    2.2157127   -2.8990866 
H     3.9428322    4.1503744    0.4791229 
H     4.9479459    2.6794747    0.3750553 
H     4.3900435    3.2725536    1.9634379 
H    -0.5408915   -3.8577277    2.3387175 
H    -0.3649271   -2.5021255    1.1931589 
H    -1.0373960   -2.2067595    2.8142671 
H     3.3542279   -4.1270601   -2.8815358 
H     4.6772413   -3.7439214   -0.7906658 
