89
Energy =
C    -1.9841857    2.2066265   -0.4947063 
C    -2.0800322    1.9192800    0.8858225 
C    -0.9487602    2.1055551    1.7410693 
H    -2.9671666    1.4008500    1.2708298 
Pd   -0.4340802    0.6476625    0.1552888 
P     1.5043196   -0.2842353    0.9985538 
P    -0.1578513   -0.7431771   -1.6774657 
H    -1.1661638    2.8775467   -0.8023321 
H    -0.2663060    2.9279627    1.4838520 
C    -4.9511222    1.6614331   -3.5617541 
C    -3.7435832    2.3206493   -3.8371045 
C    -2.7993144    2.5051337   -2.8198052 
C    -3.0330405    2.0229181   -1.5093046 
C    -4.2682611    1.3881463   -1.2418727 
C    -5.2127062    1.2074925   -2.2574179 
H    -5.6934203    1.5170564   -4.3531871 
H    -3.5414164    2.7013742   -4.8435135 
H    -1.8679126    3.0418985   -3.0346732 
H    -4.4962001    1.0339620   -0.2323085 
H    -6.1631673    0.7135558   -2.0307759 
C    -0.6638477    0.7658187    5.8267851 
C     0.1116883    1.8426048    5.3710504 
C    -0.0050525    2.2844165    4.0462892 
C    -0.8950272    1.6561646    3.1465671 
C    -1.6719602    0.5726335    3.6213635 
C    -1.5603012    0.1368083    4.9464029 
H    -0.5745801    0.4206708    6.8617312 
H     0.8064869    2.3455848    6.0517171 
H     0.5960948    3.1331579    3.7009076 
H    -2.3500795    0.0480952    2.9392497 
H    -2.1694691   -0.7045079    5.2931726 
C    -1.4377657   -2.0233100   -2.2102275 
C    -0.1443035    0.1311018   -3.3546867 
C     2.9793514    0.8432561    1.3630230 
C     1.4970997   -1.0910449    2.6995332 
C    -2.1904498   -1.2988285   -3.3452535 
C    -1.1121025   -0.6783649   -4.2488561 
C     3.2134698    0.7002811    2.8872514 
C     2.8695239   -0.7353479    3.3103571 
C     1.3981316   -1.7032282   -1.4338743 
C     2.1312370   -1.5092991   -0.2360301 
C    -2.2665700   -2.7072800   -1.1108010 
C     1.2312150    0.4491269   -3.9572791 
C     2.8067968    2.2873682    0.8597277 
C     1.1035333   -2.5732452    2.7398551 
C     1.8701907   -2.6187571   -2.3966764 
C     3.3220171   -2.2359188   -0.0296719 
C    -3.1470840   -1.7910749   -0.2575591 
C     2.0998631    1.3499285   -3.0709750 
C     4.0701593    3.1413398    1.0366686 
C    -0.2989798   -2.8430963    2.1872358 
C     3.0543059   -3.3344213   -2.1790808 
C     3.7797272   -3.1439111   -0.9932076 
H    -0.8155653   -2.8085114   -2.6823140 
H    -0.6434824    1.0859357   -3.1074959 
H     3.8226877    0.3751327    0.8196040 
H     0.7228197   -0.5040436    3.2313957 
H    -2.8324780   -2.0105996   -3.8940384 
H    -2.8485736   -0.5079699   -2.9398613 
H    -1.5487870   -0.0220424   -5.0220720 
H    -0.5568790   -1.4797232   -4.7733444 
H     4.2527037    0.9650006    3.1468697 
H     2.5502659    1.4046759    3.4219947 
H     2.8329166   -0.8370054    4.4095114 
H     3.6417054   -1.4418470    2.9505110 
H    -1.5790331   -3.2779082   -0.4609748 
H    -2.9015710   -3.4641411   -1.6100883 
H     1.0570343    0.9422449   -4.9328725 
H     1.7700395   -0.4897469   -4.1829423 
H     1.9617143    2.7515057    1.4011195 
H     2.5183732    2.2689783   -0.2070669 
H     1.1617090   -2.9039884    3.7942616 
H     1.8513965   -3.1722856    2.1870373 
H     1.3126961   -2.7757451   -3.3264450 
H     3.9013925   -2.0936881    0.8879285 
H    -3.6627602   -2.3691883    0.5277980 
H    -3.9121454   -1.2854544   -0.8679034 
H    -2.5373655   -1.0111689    0.2412471 
H     2.3557779    0.8454093   -2.1217319 
H     3.0456853    1.6113929   -3.5742549 
H     1.5751121    2.2901595   -2.8214614 
H     3.9155047    4.1554905    0.6305317 
H     4.9298013    2.6923814    0.5073883 
H     4.3452541    3.2455414    2.1005728 
H    -0.5535877   -3.9148945    2.2407517 
H    -0.3687045   -2.5326828    1.1289996 
H    -1.0631781   -2.2772837    2.7476577 
H     3.4120177   -4.0396420   -2.9359701 
H     4.7045550   -3.7027002   -0.8182470 
