89
Energy =
C    -1.8704739    2.3657324   -0.4905842 
C    -1.9429816    2.0758359    0.8949270 
C    -0.8279337    2.3129725    1.7533636 
H    -2.7962712    1.5036170    1.2804155 
Pd   -0.2515149    0.9129693    0.1156759 
P     1.5820571   -0.1771929    1.0044815 
P    -0.0015220   -0.4595339   -1.7293004 
H    -1.1262642    3.1152411   -0.8036999 
H    -0.1676830    3.1543099    1.4959110 
C    -4.8531149    1.5862213   -3.4989142 
C    -3.7193896    2.3592217   -3.7912466 
C    -2.7670446    2.6126135   -2.7957510 
C    -2.9200864    2.0917251   -1.4891147 
C    -4.0771193    1.3278732   -1.2070494 
C    -5.0302452    1.0790737   -2.2002613 
H    -5.6009137    1.3887199   -4.2734498 
H    -3.5809879    2.7747651   -4.7946718 
H    -1.8940134    3.2348094   -3.0248645 
H    -4.2418706    0.9276350   -0.2017343 
H    -5.9197333    0.4875901   -1.9600430 
C    -0.6106704    1.0383370    5.8671894 
C    -1.4080664    0.3266155    4.9556297 
C    -1.4874998    0.7342855    3.6190240 
C    -0.7783592    1.8716535    3.1630521 
C     0.0136813    2.5803276    4.0939777 
C     0.0984175    2.1674338    5.4303608 
H    -0.5461632    0.7162428    6.9113678 
H    -1.9641050   -0.5568896    5.2866141 
H    -2.0879312    0.1481213    2.9138261 
H     0.5584067    3.4731962    3.7674981 
H     0.7150541    2.7348505    6.1351142 
C    -1.3865722   -1.6985912   -2.0503821 
C    -0.0277486    0.2673484   -3.4700424 
C     3.0385275    0.7413961    1.7830411 
C     1.2529024   -1.2633919    2.4992648 
C    -2.0517456   -1.1798412   -3.3456311 
C    -0.9384892   -0.6827207   -4.2792189 
C     3.0411665    0.2723918    3.2611462 
C     2.5478450   -1.1804295    3.3346380 
C     1.5316014   -1.4542986   -1.4996155 
C     2.2746718   -1.2821889   -0.3047540 
C    -2.3135682   -1.8906960   -0.8376897 
C     1.3253424    0.6069792   -4.1111052 
C     3.0085401    2.2701509    1.6211610 
C     0.7145370   -2.6643370    2.1722001 
C     1.9803697   -2.3692707   -2.4741349 
C     3.4686936   -2.0103584   -0.1246710 
C    -3.4865311   -2.8422690   -1.1075572 
C     2.1818306    1.5721218   -3.2855212 
C     3.0171986    2.7631419    0.1721627 
C     0.2575801   -3.4316238    3.4210918 
C     3.1675346   -3.0868065   -2.2818158 
C     3.9156224   -2.9013149   -1.1090255 
H    -0.8726261   -2.6542276   -2.2728815 
H    -0.5876753    1.2085158   -3.3082647 
H     3.9319161    0.3445727    1.2641213 
H     0.4666258   -0.6961514    3.0353614 
H    -2.6545216   -1.9746482   -3.8175150 
H    -2.7381267   -0.3478986   -3.1039954 
H    -1.3479135   -0.1574949   -5.1603842 
H    -0.3472799   -1.5381672   -4.6596208 
H     4.0482972    0.3931293    3.6969336 
H     2.3533811    0.9158576    3.8408710 
H     2.3586737   -1.4852177    4.3785796 
H     3.3067644   -1.8767835    2.9291879 
H    -2.6971097   -0.9011901   -0.5276240 
H    -1.7128266   -2.2694944    0.0103952 
H     1.1137917    1.0470060   -5.1043928 
H     1.8911679   -0.3226705   -4.3056704 
H     3.8860793    2.6748219    2.1604206 
H     2.1202266    2.6623017    2.1484861 
H     1.4896969   -3.2415245    1.6341057 
H    -0.1362726   -2.5630350    1.4713515 
H     1.4013609   -2.5233075   -3.3905965 
H     4.0566481   -1.8896863    0.7906711 
H    -4.0773595   -3.0022157   -0.1893204 
H    -3.1318620   -3.8288332   -1.4566483 
H    -4.1661787   -2.4339586   -1.8756709 
H     2.4894076    1.1103944   -2.3305537 
H     3.0993599    1.8539270   -3.8287377 
H     1.6285724    2.4990699   -3.0490407 
H     3.0560008    3.8648689    0.1280469 
H     2.1011476    2.4385418   -0.3579746 
H     3.8852929    2.3699156   -0.3862815 
H    -0.1683726   -4.4111348    3.1447465 
H    -0.5151786   -2.8660007    3.9723648 
H     1.0975490   -3.6160827    4.1130347 
H     3.5105701   -3.7891012   -3.0481676 
H     4.8458063   -3.4578634   -0.9566218 
