89
Energy =
C    -1.7530994    2.4334697   -0.5510922 
C    -1.8505663    2.1728990    0.8371826 
C    -0.7196872    2.3392486    1.6919792 
H    -2.7489359    1.6833495    1.2343119 
Pd   -0.2576540    0.8489982    0.1011318 
P     1.5220616   -0.3152911    1.0039856 
P    -0.0429072   -0.5836029   -1.7091073 
H    -0.9391580    3.1016709   -0.8736962 
H    -0.0024590    3.1270932    1.4186044 
C    -4.7975168    1.9041186   -3.5482490 
C    -3.6034366    2.5770549   -3.8464210 
C    -2.6296008    2.7499026   -2.8543934 
C    -2.8230932    2.2474635   -1.5454432 
C    -4.0400025    1.5861604   -1.2577820 
C    -5.0131375    1.4169536   -2.2476022 
H    -5.5626140    1.7702169   -4.3196343 
H    -3.4332014    2.9769063   -4.8513242 
H    -1.7060585    3.2916211   -3.0887458 
H    -4.2285506    1.1954412   -0.2531621 
H    -5.9488459    0.9031271   -2.0042254 
C    -0.6395986    1.1792727    5.8441612 
C    -1.4078050    0.4432440    4.9267554 
C    -1.4439974    0.8157520    3.5780993 
C    -0.7137176    1.9362322    3.1149947 
C     0.0476979    2.6706933    4.0512941 
C     0.0841144    2.2966168    5.4012377 
H    -0.6097064    0.8854651    6.8982294 
H    -1.9771955   -0.4294701    5.2637692 
H    -2.0296382    0.2185719    2.8696567 
H     0.6069546    3.5519391    3.7179813 
H     0.6770173    2.8831043    6.1106643 
C    -1.2260510   -2.0454813   -1.8399035 
C    -0.3857056    0.0273166   -3.4473032 
C     2.9356236    0.5252288    1.9285611 
C     1.0899430   -1.4995300    2.3960314 
C    -1.1411673   -2.4146460   -3.3394182 
C    -1.1227752   -1.1267622   -4.1965424 
C     2.7528783    0.0507617    3.3900790 
C     2.2857139   -1.4133651    3.3696418 
C     1.6221966   -1.3756753   -1.6014445 
C     2.2972265   -1.2974326   -0.3553081 
C    -2.6504062   -1.6874755   -1.3667399 
C     0.8004032    0.6696782   -4.1909925 
C     3.0242334    2.0464424    1.7408308 
C     0.6608706   -2.8992374    1.9299239 
C     2.2126564   -2.0954620   -2.6604939 
C     3.5243005   -1.9701870   -0.1880115 
C    -2.7969577   -1.5920802    0.1551892 
C     1.5014217    1.7802089   -3.4004583 
C     3.2015763    2.4869062    0.2842859 
C     0.0874089   -3.7559398    3.0673833 
C     3.4438363   -2.7414468   -2.4867865 
C     4.0955487   -2.6883095   -1.2464528 
H    -0.8221084   -2.8610232   -1.2133564 
H    -1.1182062    0.8309806   -3.2457601 
H     3.8528363    0.0666545    1.5126031 
H     0.2258663   -0.9990617    2.8758396 
H    -0.2229380   -3.0008270   -3.5147275 
H    -1.9844370   -3.0714187   -3.6190869 
H    -2.1547280   -0.8025846   -4.4141165 
H    -0.6392887   -1.3199766   -5.1699153 
H     3.6943115    0.1789367    3.9527053 
H     1.9868899    0.6758214    3.8853114 
H     1.9953396   -1.7579067    4.3771784 
H     3.1015755   -2.0766961    3.0222759 
H    -3.3307348   -2.4717059   -1.7498454 
H    -2.9797423   -0.7431793   -1.8381422 
H     0.4048933    1.0786240   -5.1401335 
H     1.5353781   -0.1041239   -4.4777200 
H     3.8739770    2.4085213    2.3501168 
H     2.1200889    2.5109276    2.1718657 
H     1.5237599   -3.4115893    1.4647772 
H    -0.1000229   -2.7909103    1.1341356 
H     1.7163824   -2.1527200   -3.6327911 
H     4.0474640   -1.9327329    0.7730882 
H    -3.8235990   -1.3044209    0.4385727 
H    -2.1016426   -0.8341463    0.5716528 
H    -2.5690531   -2.5572689    0.6414500 
H     1.9843105    1.3790313   -2.4908403 
H     2.2851603    2.2648569   -4.0064018 
H     0.7857339    2.5599679   -3.0830794 
H     3.3068443    3.5824963    0.2085709 
H     2.3242077    2.1917485   -0.3231329 
H     4.0959017    2.0263609   -0.1723426 
H    -0.2408806   -4.7393936    2.6900434 
H    -0.7839162   -3.2615356    3.5337730 
H     0.8368572   -3.9345239    3.8578447 
H     3.8924070   -3.2890477   -3.3217260 
H     5.0526751   -3.1998697   -1.1039186 
