89
Energy =
C    -2.0324274    2.1569716   -0.2101468 
C    -2.0625340    1.8370329    1.1657052 
C    -0.9168194    2.0390816    1.9930897 
H    -2.9199078    1.2846253    1.5697253 
Pd   -0.4047731    0.6378470    0.3470870 
P     1.5154776   -0.3270791    1.1957788 
P    -0.0089345   -0.6009041   -1.5852529 
H    -1.2571172    2.8657978   -0.5411494 
H    -0.2527345    2.8736688    1.7254648 
C    -5.2033167    1.6365715   -3.0706142 
C    -5.3790988    1.1847573   -1.7517100 
C    -4.3634038    1.3520486   -0.8054650 
C    -3.1424718    1.9726345   -1.1590266 
C    -2.9913569    2.4472159   -2.4828565 
C    -4.0074179    2.2763055   -3.4307767 
H    -6.0008476    1.5032852   -3.8084633 
H    -6.3166989    0.7007165   -1.4597489 
H    -4.5224728    0.9901985    0.2146979 
H    -2.0625071    2.9559846   -2.7658294 
H    -3.8689679    2.6491737   -4.4508493 
C    -0.6111653    0.7673562    6.0989464 
C     0.1376605    1.8571841    5.6300252 
C     0.0220591    2.2698611    4.2958278 
C    -0.8420094    1.6003525    3.4010333 
C    -1.5917664    0.5035341    3.8891143 
C    -1.4801347    0.0953590    5.2229045 
H    -0.5223958    0.4450615    7.1412968 
H     0.8106440    2.3929606    6.3074929 
H     0.6018735    3.1291116    3.9401519 
H    -2.2504707   -0.0506630    3.2113673 
H    -2.0680166   -0.7566239    5.5800025 
C    -1.2439032   -1.7546106   -2.4321484 
C     0.3405380    0.4691840   -3.1108678 
C     2.9960350    0.7451631    1.6813349 
C     1.4127781   -1.2162518    2.8499976 
C    -1.0132572   -1.4752308   -3.9401060 
C    -0.7510817    0.0294467   -4.1217072 
C     3.1261943    0.5497559    3.2107530 
C     2.7491111   -0.8990369    3.5566290 
C     1.4677623   -1.6695918   -1.2739858 
C     2.1661209   -1.5172776   -0.0519467 
C    -2.7053223   -1.5272005   -1.9972817 
C     1.7875998    0.3900761   -3.6434817 
C     2.9165004    2.2080942    1.2191040 
C     1.0032456   -2.6947424    2.7924377 
C     1.9170376   -2.6261566   -2.2081487 
C     3.3146648   -2.2976747    0.1964002 
C    -2.9904043   -1.8385188   -0.5253447 
C     2.1197699    1.5416543   -4.6026420 
C     2.8393021    2.3822298   -0.3019927 
C    -0.3421661   -2.9357141    2.0972500 
C     3.0493136   -3.4061802   -1.9448872 
C     3.7551334   -3.2363270   -0.7442088 
H    -0.9463295   -2.7841808   -2.1625946 
H     0.1554035    1.5050648   -2.7740870 
H     3.8562248    0.2610374    1.1798745 
H     0.6130635   -0.6513551    3.3670745 
H    -0.1453551   -2.0525753   -4.3079405 
H    -1.8858501   -1.8082047   -4.5299400 
H    -1.6825277    0.5886231   -3.9281424 
H    -0.4425922    0.2653177   -5.1552097 
H     4.1483807    0.8038371    3.5420073 
H     2.4325266    1.2378480    3.7264844 
H     2.6457915   -1.0430942    4.6466323 
H     3.5370328   -1.5970457    3.2148774 
H    -3.3321547   -2.1776676   -2.6363545 
H    -3.0074888   -0.4909582   -2.2285427 
H     1.9448469   -0.5800092   -4.1496014 
H     2.4951518    0.4083524   -2.7947224 
H     3.8097594    2.7316768    1.6093421 
H     2.0447638    2.6898586    1.7000615 
H     0.9567717   -3.0636355    3.8347470 
H     1.7958734   -3.2829366    2.2932812 
H     1.3831431   -2.7666896   -3.1523761 
H     3.8676460   -2.1794236    1.1334701 
H    -4.0626307   -1.7101260   -0.3017993 
H    -2.4211208   -1.1632881    0.1437704 
H    -2.7100311   -2.8761522   -0.2698896 
H     2.0343109    2.5170466   -4.0903650 
H     3.1511956    1.4472572   -4.9825462 
H     1.4428940    1.5586015   -5.4749910 
H     2.8297944    3.4495126   -0.5811626 
H     1.9150396    1.9221107   -0.7034785 
H     3.6990485    1.9056048   -0.8060560 
H    -1.1463593   -2.3434749    2.5686328 
H    -0.6286366   -3.9998637    2.1432807 
H    -0.2987514   -2.6473280    1.0310666 
H     3.3837687   -4.1443640   -2.6806776 
H     4.6444768   -3.8398943   -0.5371053 
