89
Energy =
C    -1.9352106    2.2696078   -0.3661771 
C    -2.0295030    1.9327258    1.0060723 
C    -0.9283944    2.1707102    1.8853113 
H    -2.8760369    1.3293258    1.3570248 
Pd   -0.2964521    0.8244871    0.2370501 
P     1.6334190   -0.1217270    1.1014106 
P    -0.0299538   -0.5675016   -1.5960628 
H    -1.1836614    3.0277130   -0.6382704 
H    -0.2970204    3.0437042    1.6660346 
C    -4.8139634    1.5777846   -3.4919853 
C    -3.6418355    2.3087737   -3.7391414 
C    -2.7243020    2.5326174   -2.7052822 
C    -2.9521681    2.0250875   -1.4040744 
C    -4.1480806    1.3076189   -1.1670261 
C    -5.0651090    1.0854641   -2.2000606 
H    -5.5349015    1.4030200   -4.2968651 
H    -3.4460814    2.7128910   -4.7376542 
H    -1.8180488    3.1179882   -2.8995840 
H    -4.3733326    0.9262459   -0.1661348 
H    -5.9857921    0.5295521   -1.9952868 
C    -0.5967780    0.6780913    5.9160097 
C     0.1188602    1.8157052    5.5134245 
C    -0.0127015    2.3060002    4.2071747 
C    -0.8571033    1.6665010    3.2720903 
C    -1.5743726    0.5216155    3.6941587 
C    -1.4487953    0.0370893    5.0008370 
H    -0.4960749    0.2952281    6.9365436 
H     0.7771469    2.3293409    6.2218328 
H     0.5399449    3.2032986    3.9068424 
H    -2.2165218   -0.0112421    2.9843152 
H    -2.0117155   -0.8513867    5.3055523 
C    -1.4598911   -1.7489582   -1.9629729 
C     0.0609175    0.1236643   -3.3582921 
C     3.0672603    1.0116299    1.6158867 
C     1.5983948   -1.0697775    2.7346045 
C    -2.0398868   -1.2199839   -3.2946061 
C    -0.8701679   -0.7900885   -4.1857122 
C     3.3162803    0.6853380    3.1118118 
C     2.9667800   -0.7805715    3.3860013 
C     1.4831100   -1.5822625   -1.3061519 
C     2.2822643   -1.3025421   -0.1665533 
C    -2.4733665   -1.8646782   -0.8098937 
C     1.4535339    0.3321234   -3.9722483 
C     2.8384466    2.5164867    1.3864997 
C     1.2288167   -2.5574293    2.6590213 
C     1.8954433   -2.5751752   -2.2175995 
C     3.4998277   -1.9917950    0.0057327 
C    -3.7042493   -2.7121230   -1.1594860 
C     2.3631418    1.2798341   -3.1884661 
C     2.6334518    2.9450987   -0.0661081 
C    -0.1410096   -2.8327790    2.0364696 
C     3.1005447   -3.2633213   -2.0250929 
C     3.9097779   -2.9608970   -0.9199364 
H    -0.9895805   -2.7358218   -2.1420576 
H    -0.4335970    1.1076838   -3.2464752 
H     3.9265607    0.6746174    1.0048633 
H     0.8165282   -0.5317036    3.3056154 
H    -2.6588834   -1.9934739   -3.7804141 
H    -2.6974540   -0.3546708   -3.0924890 
H    -1.2166203   -0.2593335   -5.0903263 
H    -0.3066858   -1.6787728   -4.5305591 
H     4.3590596    0.9243526    3.3843222 
H     2.6612380    1.3301662    3.7260149 
H     2.9220751   -0.9916325    4.4692782 
H     3.7359084   -1.4546573    2.9635124 
H    -2.7926719   -0.8465069   -0.5220201 
H    -1.9696991   -2.2926128    0.0725116 
H     1.2972910    0.7240869   -4.9956284 
H     1.9520310   -0.6466847   -4.0972337 
H     3.7152277    3.0435950    1.8087897 
H     1.9739405    2.8334050    1.9980698 
H     1.2569564   -2.9518808    3.6925555 
H     2.0125043   -3.1031052    2.1005973 
H     1.2756119   -2.8111109   -3.0890751 
H     4.1353954   -1.7786311    0.8707889 
H    -4.3552127   -2.8296109   -0.2761174 
H    -3.4142031   -3.7225308   -1.5001121 
H    -4.3059267   -2.2429413   -1.9572605 
H     2.5994304    0.8666242   -2.1923975 
H     3.3175521    1.4401531   -3.7176008 
H     1.8865583    2.2653305   -3.0420256 
H     2.5062769    4.0387190   -0.1401463 
H     1.7267871    2.4706934   -0.4909399 
H     3.4909910    2.6588986   -0.6992692 
H    -0.3841898   -3.9083352    2.0612400 
H    -0.1584351   -2.5105612    0.9803263 
H    -0.9394988   -2.2853995    2.5671698 
H     3.4116977   -4.0293450   -2.7424185 
H     4.8581559   -3.4871262   -0.7720768 
