89
Energy =
C    -1.9450446    2.3387041   -0.3754262 
C    -2.1126073    1.9113172    0.9630076 
C    -1.0326246    2.0546323    1.8912761 
H    -2.9921894    1.3157005    1.2384266 
Pd   -0.3892600    0.7816681    0.2011564 
P     1.5389650   -0.1812524    1.0641775 
P    -0.1413440   -0.5956483   -1.6536305 
H    -1.1344175    3.0609180   -0.5622341 
H    -0.3787620    2.9268732    1.7503699 
C    -4.6864479    2.0144549   -3.6753338 
C    -3.4038430    2.5565683   -3.8536366 
C    -2.5335592    2.6681117   -2.7631254 
C    -2.9191937    2.2286347   -1.4745764 
C    -4.2233511    1.7085478   -1.3063424 
C    -5.0944210    1.6013981   -2.3962657 
H    -5.3719800    1.9304154   -4.5246094 
H    -3.0852894    2.9013404   -4.8428137 
H    -1.5380943    3.1056770   -2.9022724 
H    -4.5673189    1.3957907   -0.3152251 
H    -6.1019173    1.2001400   -2.2463018 
C    -0.7844018    0.2725208    5.8073124 
C    -1.6402829   -0.2825530    4.8407345 
C    -1.7465987    0.2992480    3.5726367 
C    -1.0027707    1.4566727    3.2418470 
C    -0.1569477    2.0114492    4.2287212 
C    -0.0461765    1.4244976    5.4964969 
H    -0.6981734   -0.1880475    6.7965924 
H    -2.2215142   -1.1806463    5.0746063 
H    -2.3925273   -0.1676587    2.8220171 
H     0.4161241    2.9166930    3.9980778 
H     0.6143340    1.8725338    6.2461752 
C    -1.6343962   -1.6796244   -2.1150848 
C     0.1317006    0.0388073   -3.4240595 
C     2.9518794    1.0199259    1.4980221 
C     1.6186752   -1.1067434    2.7187044 
C    -1.9989298   -1.2382132   -3.5541849 
C    -0.7175922   -0.8943246   -4.3137228 
C     3.2779282    0.7346706    2.9874912 
C     2.9934656   -0.7310455    3.3126334 
C     1.3045973   -1.6938474   -1.3048276 
C     2.1458414   -1.3846297   -0.2020911 
C    -2.8527317   -1.5786986   -1.1806597 
C     1.5805573    0.1935214   -3.9115285 
C     2.6542337    2.5172668    1.2878996 
C     1.3720591   -2.6234334    2.7066021 
C     1.6643083   -2.7435793   -2.1738777 
C     3.3572402   -2.0867757   -0.0405792 
C    -2.6515795   -2.0465727    0.2580413 
C     2.4419133    1.1538485   -3.0926622 
C     2.3870950    2.9724595   -0.1450308 
C     0.0286337   -3.0614544    2.1287117 
C     2.8572991   -3.4537771   -1.9833696 
C     3.7152448   -3.1100417   -0.9286614 
H    -1.2483061   -2.7174138   -2.1236093 
H    -0.3537422    1.0334362   -3.3983026 
H     3.7971797    0.7122698    0.8528543 
H     0.8242873   -0.6122882    3.3107029 
H    -2.5826584   -2.0296949   -4.0561552 
H    -2.6462091   -0.3425879   -3.4980831 
H    -0.9313570   -0.4046169   -5.2807259 
H    -0.1438288   -1.8126660   -4.5433900 
H     4.3224337    1.0162153    3.2079493 
H     2.6292163    1.3734633    3.6144991 
H     2.9937564   -0.9130173    4.4021464 
H     3.7756586   -1.3856747    2.8834630 
H    -3.6632771   -2.1665889   -1.6524928 
H    -3.1998933   -0.5311103   -1.1869638 
H     1.5272705    0.5419980   -4.9608589 
H     2.0610343   -0.8015376   -3.9483293 
H     3.5223849    3.0718562    1.6927542 
H     1.7998730    2.7900294    1.9340810 
H     1.4563310   -2.9618381    3.7570900 
H     2.1943091   -3.1222658    2.1606899 
H     1.0151949   -3.0052990   -3.0157788 
H     4.0262469   -1.8426101    0.7905103 
H    -3.5882907   -1.9508702    0.8345005 
H    -1.8822816   -1.4306077    0.7604796 
H    -2.3300837   -3.1010027    0.3086235 
H     2.5739579    0.7827401   -2.0616451 
H     3.4447931    1.2636447   -3.5386551 
H     1.9832615    2.1565544   -3.0366991 
H     2.1869122    4.0572766   -0.1791274 
H     1.5032707    2.4521935   -0.5654894 
H     3.2466262    2.7646738   -0.8041673 
H    -0.1114189   -4.1506307    2.2338768 
H    -0.0303686   -2.8204978    1.0537934 
H    -0.8096376   -2.5567368    2.6387403 
H     3.1233531   -4.2653896   -2.6679674 
H     4.6581942   -3.6478468   -0.7879176 
