89
Energy =
C    -1.8801083    2.2326681   -0.3828833 
C    -2.0239210    1.9349390    0.9911226 
C    -0.9244581    2.1169955    1.8881619 
H    -2.9229728    1.4123968    1.3414478 
Pd   -0.3517135    0.6703681    0.3132799 
P     1.5658991   -0.2471168    1.2163718 
P     0.0040795   -0.7080721   -1.5182896 
H    -1.0552903    2.9095508   -0.6567939 
H    -0.2348660    2.9430820    1.6625370 
C    -4.7389334    1.7043855   -3.5536875 
C    -3.5207225    2.3611231   -3.7844196 
C    -2.6119676    2.5394804   -2.7343822 
C    -2.8925967    2.0535364   -1.4346474 
C    -4.1374781    1.4197295   -1.2127584 
C    -5.0465059    1.2453797   -2.2612494 
H    -5.4536869    1.5651471   -4.3709569 
H    -3.2822192    2.7443673   -4.7818902 
H    -1.6713898    3.0724859   -2.9156180 
H    -4.4010302    1.0618219   -0.2131604 
H    -6.0050886    0.7522600   -2.0698966 
C    -0.8064770    0.7660157    5.9783319 
C    -0.0343736    1.8620381    5.5646808 
C    -0.0955222    2.3062822    4.2369398 
C    -0.9269337    1.6626405    3.2933325 
C    -1.7023421    0.5606027    3.7261825 
C    -1.6452696    0.1213071    5.0535441 
H    -0.7583926    0.4172792    7.0148116 
H     0.6137287    2.3783929    6.2804547 
H     0.5034275    3.1689609    3.9236706 
H    -2.3343238    0.0245621    3.0095205 
H    -2.2510962   -0.7351770    5.3674305 
C    -1.2642261   -1.9744170   -2.0956671 
C     0.0842250    0.1801444   -3.1835817 
C     3.0214823    0.8948516    1.6251817 
C     1.5158173   -1.0465763    2.9208218 
C    -2.0017500   -1.2100336   -3.2141980 
C    -0.9162471   -0.5716257   -4.0974142 
C     3.1754924    0.7870109    3.1605044 
C     2.8510811   -0.6515375    3.5877517 
C     1.5511488   -1.6643001   -1.2184929 
C     2.2414122   -1.4654706    0.0029917 
C    -2.1093830   -2.6793508   -1.0218221 
C     1.4905693    0.4156699   -3.7607313 
C     2.8982290    2.3313508    1.0949210 
C     1.1553409   -2.5375246    2.9543520 
C     2.0525600   -2.5905818   -2.1561265 
C     3.4222790   -2.1936665    0.2569428 
C    -3.0008015   -1.7778505   -0.1635112 
C     1.4768377    1.3648984   -4.9678900 
C     2.7807551    2.4350415   -0.4294093 
C    -0.2153727   -2.8443032    2.3433330 
C     3.2234409   -3.3109036   -1.8901953 
C     3.9090299   -3.1119018   -0.6819321 
H    -0.6409996   -2.7499535   -2.5827699 
H    -0.3565804    1.1629027   -2.9361004 
H     3.8894929    0.4096204    1.1386469 
H     0.7055477   -0.4771731    3.4168843 
H    -2.6480241   -1.8978805   -3.7879189 
H    -2.6550684   -0.4265142   -2.7882175 
H    -1.3530874    0.1186044   -4.8392816 
H    -0.3803675   -1.3619932   -4.6578979 
H     4.1920321    1.0929025    3.4640014 
H     2.4647484    1.4793616    3.6471269 
H     2.7674665   -0.7418051    4.6852181 
H     3.6560554   -1.3414520    3.2698576 
H    -1.4317675   -3.2631993   -0.3730197 
H    -2.7383167   -3.4254440   -1.5443569 
H     1.9385175   -0.5517069   -4.0526798 
H     2.1446693    0.8308741   -2.9720905 
H     3.7891076    2.8902158    1.4390812 
H     2.0284200    2.8178592    1.5749581 
H     1.1747549   -2.8594562    4.0128775 
H     1.9399175   -3.1232597    2.4396996 
H     1.5281962   -2.7520102   -3.1042110 
H     3.9697091   -2.0453507    1.1931047 
H    -3.5283412   -2.3699517    0.6032729 
H    -3.7564684   -1.2588173   -0.7745363 
H    -2.3968756   -1.0085029    0.3585063 
H     1.0487440    2.3467677   -4.6955950 
H     2.5002831    1.5343139   -5.3432528 
H     0.8784242    0.9546231   -5.7998554 
H     2.7505089    3.4882960   -0.7562960 
H     1.8509112    1.9464800   -0.7833391 
H     3.6323710    1.9447098   -0.9339848 
H    -0.4479489   -3.9210282    2.3980002 
H    -0.2458079   -2.5470543    1.2795158 
H    -1.0159747   -2.2906558    2.8638168 
H     3.6020794   -4.0270818   -2.6263194 
H     4.8242955   -3.6735971   -0.4698607 
