89
Energy =
C    -1.7499142    2.3353783   -0.3182770 
C    -1.8999478    2.0269470    1.0536090 
C    -0.7913320    2.1459597    1.9476557 
H    -2.8177133    1.5363681    1.4015960 
Pd   -0.2878970    0.7092736    0.3359170 
P     1.5705252   -0.3363940    1.2317887 
P    -0.0183393   -0.6864762   -1.4967263 
H    -0.9023641    2.9843400   -0.5898096 
H    -0.0660700    2.9436791    1.7320528 
C    -4.6621116    1.9728732   -3.4637535 
C    -3.4021348    2.5389540   -3.7099564 
C    -2.4746595    2.6619681   -2.6681501 
C    -2.7801657    2.2118568   -1.3615383 
C    -4.0630337    1.6656949   -1.1251836 
C    -4.9903219    1.5468173   -2.1652507 
H    -5.3916792    1.8777594   -4.2743113 
H    -3.1437265    2.8929652   -4.7134237 
H    -1.4962055    3.1170430   -2.8607453 
H    -4.3417320    1.3314466   -0.1215200 
H    -5.9793352    1.1231502   -1.9626027 
C    -0.7665286    0.7580162    6.0276471 
C     0.0267079    1.8479167    5.6388404 
C     0.0019959    2.3004646    4.3126307 
C    -0.8147504    1.6718220    3.3467496 
C    -1.6087185    0.5728162    3.7534177 
C    -1.5873438    0.1248740    5.0790551 
H    -0.7483758    0.4047280    7.0635788 
H     0.6637221    2.3526209    6.3726278 
H     0.6166949    3.1590466    4.0193312 
H    -2.2276071    0.0471538    3.0176937 
H    -2.2076623   -0.7283041    5.3730585 
C    -1.2554782   -2.0753194   -1.7925254 
C    -0.2015715   -0.0226408   -3.2272287 
C     3.0446328    0.7273012    1.7676202 
C     1.4462453   -1.2607175    2.8672189 
C    -1.0133923   -2.4578981   -3.2746552 
C    -0.6602559   -1.2064419   -4.1292829 
C     3.1241168    0.5235535    3.2978505 
C     2.7591942   -0.9342793    3.6125547 
C     1.6153563   -1.5324257   -1.3213131 
C     2.2635230   -1.4583383   -0.0614449 
C    -2.7017197   -1.6197530   -1.4988924 
C     0.9823069    0.8195438   -3.7357736 
C     2.9981094    2.1917195    1.3088753 
C     1.0778857   -2.7472491    2.7698010 
C     2.2194999   -2.2708233   -2.3608016 
C     3.4620042   -2.1715917    0.1474369 
C    -3.0416694   -1.5367318   -0.0082803 
C     0.6828689    1.5207917   -5.0687469 
C     2.9461554    2.3710198   -0.2122714 
C    -0.2760183   -2.9967674    2.0980984 
C     3.4185456   -2.9620058   -2.1447372 
C     4.0317773   -2.9282793   -0.8838760 
H    -0.9965470   -2.9200628   -1.1299998 
H    -1.0640463    0.6588372   -3.0922602 
H     3.9161954    0.2371992    1.2929166 
H     0.6217110   -0.7233557    3.3760643 
H    -0.1895639   -3.1893505   -3.3218339 
H    -1.9036220   -2.9754178   -3.6733726 
H    -1.5304766   -0.8835893   -4.7248112 
H     0.1339602   -1.4583808   -4.8547324 
H     4.1305666    0.7896103    3.6661128 
H     2.4023247    1.1960233    3.7958577 
H     2.6304608   -1.0986433    4.6969413 
H     3.5651686   -1.6153233    3.2781832 
H    -3.3767392   -2.3501802   -1.9839994 
H    -2.9046295   -0.6497019   -1.9904265 
H     1.8773575    0.1779435   -3.8414466 
H     1.2350980    1.5768416   -2.9694507 
H     3.8958750    2.6961270    1.7140060 
H     2.1302292    2.6892679    1.7800633 
H     1.0654515   -3.1538959    3.7988847 
H     1.8750032   -3.2942082    2.2320175 
H     1.7614664   -2.3034314   -3.3524774 
H     3.9661820   -2.1267223    1.1181485 
H    -4.0801781   -1.1974130    0.1412608 
H    -2.3684054   -0.8265911    0.5131069 
H    -2.9298747   -2.5197872    0.4813632 
H    -0.1980666    2.1819287   -4.9816063 
H     1.5401695    2.1369308   -5.3887706 
H     0.4755555    0.7922405   -5.8718947 
H     2.9590638    3.4389740   -0.4887248 
H     2.0193421    1.9264651   -0.6271191 
H     3.8027822    1.8788114   -0.7062880 
H    -0.5217833   -4.0717888    2.0765672 
H    -0.2723262   -2.6314219    1.0554442 
H    -1.0871858   -2.4679844    2.6286253 
H     3.8741914   -3.5276261   -2.9636853 
H     4.9631979   -3.4757509   -0.7082914 
