89
Energy =
C    -1.9205371    2.4103240   -0.4832557 
C    -2.0887905    2.0002607    0.8614257 
C    -1.0153502    2.1400077    1.7957286 
H    -2.9723168    1.4129219    1.1412405 
Pd   -0.3729589    0.8643631    0.0998560 
P     1.4904154   -0.1999860    0.9783262 
P    -0.1359628   -0.4897331   -1.7650892 
H    -1.1222582    3.1438842   -0.6792631 
H    -0.3453854    3.0008624    1.6583994 
C    -4.6738380    2.0222229   -3.7695459 
C    -3.4392003    2.6684962   -3.9350910 
C    -2.5644138    2.7963859   -2.8492611 
C    -2.8973689    2.2717423   -1.5777660 
C    -4.1545874    1.6426570   -1.4225871 
C    -5.0300059    1.5189604   -2.5069713 
H    -5.3624445    1.9239104   -4.6147231 
H    -3.1615216    3.0827134   -4.9097991 
H    -1.6089969    3.3181495   -2.9785445 
H    -4.4609949    1.2575775   -0.4448463 
H    -6.0004911    1.0323309   -2.3658623 
C    -0.9022061    0.3833076    5.7310863 
C    -1.7400890   -0.1643912    4.7448823 
C    -1.7935189    0.4040034    3.4673358 
C    -1.0186863    1.5449726    3.1480876 
C    -0.1875630    2.0891673    4.1530484 
C    -0.1267950    1.5128773    5.4290694 
H    -0.8571641   -0.0667568    6.7278632 
H    -2.3484073   -1.0463464    4.9709319 
H    -2.4222119   -0.0617657    2.7007817 
H     0.4111372    2.9798292    3.9311117 
H     0.5227971    1.9530660    6.1927835 
C    -1.6021785   -1.6171951   -2.1741680 
C     0.0043450    0.2148400   -3.5175945 
C     2.9533329    0.8511216    1.5701670 
C     1.3623104   -1.2056121    2.5667387 
C    -2.1290543   -1.0676811   -3.5191241 
C    -0.9262391   -0.6671058   -4.3792374 
C     3.1393356    0.4609807    3.0600310 
C     2.7192278   -0.9972596    3.2737818 
C     1.3280369   -1.5743413   -1.4756303 
C     2.1166261   -1.3622185   -0.3154645 
C    -2.6826556   -1.7124180   -1.0860712 
C     1.4148797    0.4100677   -4.0932503 
C     2.7926479    2.3710589    1.3869186 
C     0.9175020   -2.6672150    2.3955281 
C     1.7184318   -2.5551346   -2.4103906 
C     3.3035165   -2.1036342   -0.1436899 
C    -2.2121911   -2.3062848    0.2427728 
C     2.3219502    1.3200531   -3.2625601 
C     2.6421571    2.8522286   -0.0561203 
C     0.6034251   -3.3487683    3.7356852 
C     2.8921984   -3.2952211   -2.2194312 
C     3.6927615   -3.0588155   -1.0917210 
H    -1.1541229   -2.6171078   -2.3371798 
H    -0.4760556    1.2055716   -3.4028414 
H     3.8170369    0.4998073    0.9736504 
H     0.5849051   -0.6581772    3.1346869 
H    -2.7638682   -1.8224564   -4.0158759 
H    -2.7639479   -0.1823944   -3.3290305 
H    -1.2342867   -0.1187157   -5.2871998 
H    -0.3794103   -1.5681040   -4.7181913 
H     4.1817480    0.6446530    3.3740066 
H     2.4929470    1.1123156    3.6767099 
H     2.6347411   -1.2328807    4.3488080 
H     3.4725714   -1.6909658    2.8541026 
H    -3.5090787   -2.3227372   -1.4973326 
H    -3.1004401   -0.7031591   -0.9197688 
H     1.2918243    0.8301531   -5.1099268 
H     1.8980144   -0.5749008   -4.2299629 
H     3.6788503    2.8479257    1.8474393 
H     1.9256027    2.7040547    1.9869207 
H     1.7055869   -3.2295532    1.8611468 
H     0.0237153   -2.7034003    1.7506075 
H     1.1062954   -2.7403605   -3.2992458 
H     3.9296932   -1.9429048    0.7394636 
H    -3.0496788   -2.4022351    0.9551164 
H    -1.4515051   -1.6515999    0.7094988 
H    -1.7652144   -3.3072828    0.1070987 
H     2.5302678    0.8738858   -2.2745207 
H     3.2899941    1.4807919   -3.7661602 
H     1.8574815    2.3083819   -3.0963587 
H     2.5648643    3.9521074   -0.0996760 
H     1.7259043    2.4312126   -0.5156971 
H     3.5011090    2.5466525   -0.6784034 
H     0.2435343   -4.3789348    3.5727224 
H    -0.1785866   -2.7949212    4.2849505 
H     1.4951037   -3.4058237    4.3838121 
H     3.1863425   -4.0504300   -2.9551890 
H     4.6174107   -3.6259280   -0.9447026 
