89
Energy =
C    -1.8600821    2.3877106   -0.5864776 
C    -1.9619010    2.0877843    0.7944566 
C    -0.8529551    2.2891842    1.6697665 
H    -2.8408897    1.5463534    1.1667929 
Pd   -0.3110855    0.8619185    0.0305211 
P     1.5003878   -0.3106451    0.8834842 
P    -0.1460009   -0.5180025   -1.8166317 
H    -1.0759503    3.1032964   -0.8806594 
H    -0.1668574    3.1130590    1.4262258 
C    -4.8392087    1.8235871   -3.6440640 
C    -3.6588621    2.5336035   -3.9100617 
C    -2.7071366    2.7154951   -2.8984570 
C    -2.9075444    2.1830570   -1.6026769 
C    -4.1109021    1.4845705   -1.3469713 
C    -5.0636793    1.3085367   -2.3557417 
H    -5.5872375    1.6825819   -4.4306559 
H    -3.4832338    2.9561139   -4.9047026 
H    -1.7975985    3.2914816   -3.1054635 
H    -4.3115341    1.0803009   -0.3497670 
H    -5.9902272    0.7681479   -2.1364623 
C    -0.8358159    1.0824752    5.8080386 
C    -1.5563700    0.3324243    4.8637182 
C    -1.5685241    0.7169005    3.5181832 
C    -0.8604952    1.8631196    3.0852095 
C    -0.1439422    2.6099235    4.0480639 
C    -0.1331368    2.2246343    5.3951605 
H    -0.8238769    0.7781055    6.8594421 
H    -2.1062342   -0.5610328    5.1777456 
H    -2.1171163    0.1100839    2.7880738 
H     0.3957165    3.5113805    3.7367714 
H     0.4225035    2.8214146    6.1258249 
C    -1.5716612   -1.6938284   -2.2048346 
C    -0.1114855    0.2581503   -3.5317930 
C     3.0450202    0.5464741    1.5563815 
C     1.1170783   -1.3034799    2.4439464 
C    -2.1735833   -1.1263266   -3.5103881 
C    -1.0151359   -0.6459957   -4.3985329 
C     3.3226295   -0.2060451    2.8839900 
C     1.9752581   -0.5893948    3.5191356 
C     1.3406967   -1.5867413   -1.6149083 
C     2.1022147   -1.4605535   -0.4278062 
C    -2.5652944   -1.8902017   -1.0504678 
C     1.2729445    0.6020606   -4.0981601 
C     2.8546704    2.0659994    1.7392784 
C     1.3354035   -2.8277497    2.3423198 
C     1.7489699   -2.4986419   -2.6098811 
C     3.2793301   -2.2216845   -0.2760633 
C    -1.9523163   -2.5373035    0.1965889 
C     2.0891657    1.5389130   -3.1992164 
C     2.6938357    2.8415432    0.4283860 
C     0.6356453   -3.5842412    3.4806785 
C     2.9148970   -3.2563526   -2.4430272 
C     3.6858655   -3.1099527   -1.2793288 
H    -1.0793930   -2.6607114   -2.4278657 
H    -0.6632977    1.2016960   -3.3568269 
H     3.8517153    0.3766370    0.8203345 
H     0.0473009   -1.1188690    2.6404366 
H    -2.7910016   -1.8929357   -4.0108600 
H    -2.8383634   -0.2756454   -3.2727407 
H    -1.3792927   -0.0877964   -5.2793380 
H    -0.4375735   -1.5098132   -4.7802184 
H     3.9116679   -1.1195831    2.6812722 
H     3.9304058    0.4194306    3.5617079 
H     1.4487726    0.3167825    3.8672009 
H     2.1099408   -1.2381490    4.4019689 
H    -3.3991183   -2.5137636   -1.4249966 
H    -3.0038290   -0.9094651   -0.7907707 
H     1.1178073    1.0727449   -5.0877281 
H     1.8420274   -0.3267526   -4.2876409 
H     3.7416062    2.4433311    2.2824873 
H     1.9899817    2.2474285    2.4026670 
H     2.4174653   -3.0549367    2.3472713 
H     0.9508858   -3.1948102    1.3736412 
H     1.1580945   -2.6161710   -3.5240730 
H     3.8847276   -2.1251322    0.6307192 
H    -2.7121583   -2.6893135    0.9822739 
H    -1.1599182   -1.8921277    0.6208234 
H    -1.5010630   -3.5185939   -0.0350405 
H     2.3324317    1.0560074   -2.2351355 
H     3.0408346    1.8218137   -3.6793274 
H     1.5314735    2.4666630   -2.9761031 
H     2.5707130    3.9214864    0.6188718 
H     1.8041433    2.4946766   -0.1341210 
H     3.5729204    2.7094163   -0.2272883 
H     0.8193841   -4.6690781    3.3998822 
H    -0.4565606   -3.4199164    3.4461993 
H     0.9937964   -3.2566723    4.4724193 
H     3.2261463   -3.9566341   -3.2246624 
H     4.6029682   -3.6934550   -1.1504233 
