89
Energy =
C    -1.8829737    2.3313015   -0.4111894 
C    -2.0402720    1.9201417    0.9333681 
C    -0.9739624    2.0788055    1.8727305 
H    -2.9175992    1.3247443    1.2165147 
Pd   -0.3193796    0.7896185    0.1662932 
P     1.5935009   -0.2519294    0.9717578 
P    -0.1660850   -0.6061702   -1.6715543 
H    -1.0870956    3.0654086   -0.6127323 
H    -0.3113110    2.9449175    1.7390928 
C    -4.6573832    1.9553815   -3.6804644 
C    -3.4109292    2.5748824   -3.8594517 
C    -2.5292483    2.6990997   -2.7787939 
C    -2.8666566    2.1964701   -1.4993532 
C    -4.1370279    1.5979415   -1.3302355 
C    -5.0191401    1.4776747   -2.4095649 
H    -5.3514867    1.8601160   -4.5215025 
H    -3.1294915    2.9713135   -4.8404538 
H    -1.5647160    3.2013202   -2.9178628 
H    -4.4488480    1.2371954   -0.3450418 
H    -5.9996805    1.0150510   -2.2577134 
C    -0.9680927    0.3983173    5.8418648 
C    -1.7174832   -0.2149255    4.8238449 
C    -1.7341704    0.3285601    3.5344563 
C    -1.0068087    1.5055855    3.2329189 
C    -0.2631458    2.1135359    4.2693545 
C    -0.2424493    1.5654411    5.5587366 
H    -0.9524647   -0.0301661    6.8490474 
H    -2.2843884   -1.1278909    5.0342975 
H    -2.2927125   -0.1839412    2.7439448 
H     0.2940163    3.0340523    4.0614778 
H     0.3369360    2.0564240    6.3475853 
C    -1.6579203   -1.7154259   -2.0473825 
C    -0.0524528    0.0780285   -3.4286701 
C     3.1225777    0.8060122    1.2846538 
C     1.5572704   -0.9466690    2.7403643 
C    -2.1610800   -1.2235512   -3.4245825 
C    -0.9466877   -0.8461010   -4.2807991 
C     2.9669287    1.1437836    2.7793635 
C     2.6749933   -0.1799017    3.4972135 
C     1.2744693   -1.7311634   -1.4008653 
C     2.0880256   -1.5376010   -0.2540077 
C    -2.7481668   -1.7308107   -0.9653782 
C     1.3555244    0.3407893   -3.9764817 
C     3.4217988    1.9775007    0.3341795 
C     1.6320907   -2.4701636    2.9392627 
C     1.6092097   -2.7453882   -2.3208919 
C     3.2360074   -2.3358729   -0.0749231 
C    -2.3030821   -2.2933830    0.3844410 
C     2.1585104    1.3361728   -3.1358200 
C     2.3421626    3.0572439    0.2162592 
C     0.4641111   -3.2653560    2.3532543 
C     2.7422656   -3.5451675   -2.1212454 
C     3.5617773   -3.3338861   -1.0023317 
H    -1.2312337   -2.7318805   -2.1541267 
H    -0.5805979    1.0457990   -3.3236950 
H     3.9577412    0.0833372    1.1916732 
H     0.5764340   -0.5966845    3.1091306 
H    -2.7832580   -2.0014297   -3.9010848 
H    -2.8032449   -0.3345032   -3.2810679 
H    -1.2446608   -0.3327389   -5.2124316 
H    -0.3843113   -1.7514738   -4.5797692 
H     3.8812851    1.6305628    3.1629303 
H     2.1304727    1.8506147    2.9281248 
H     2.3715597   -0.0234525    4.5462842 
H     3.5940202   -0.7964329    3.5070143 
H    -3.5956325   -2.3235815   -1.3593292 
H    -3.1272958   -0.7012835   -0.8394296 
H     1.2444481    0.7216837   -5.0096424 
H     1.9070438   -0.6141911   -4.0597088 
H     3.6507471    1.5720834   -0.6670087 
H     4.3625758    2.4401759    0.6893373 
H     1.6746584   -2.6345599    4.0334436 
H     2.5900507   -2.8550221    2.5438759 
H     0.9844156   -2.9139961   -3.2039316 
H     3.8831700   -2.1820634    0.7950075 
H    -3.1369922   -2.3002095    1.1075019 
H    -1.4918228   -1.6750109    0.8131956 
H    -1.9271869   -3.3273444    0.2918848 
H     2.3115360    0.9453050   -2.1146073 
H     3.1519655    1.5266056   -3.5751396 
H     1.6326652    2.3036276   -3.0449663 
H     2.6642984    3.8532144   -0.4758487 
H     2.1190514    3.5270207    1.1901014 
H     1.3989358    2.6283848   -0.1788506 
H    -0.4995812   -2.9093068    2.7571875 
H     0.5596212   -4.3370543    2.5967126 
H     0.4279157   -3.1752168    1.2539686 
H     2.9895384   -4.3288900   -2.8443249 
H     4.4538842   -3.9494545   -0.8493962 
