89
Energy =
C    -1.9028910    2.3354079   -0.5097159 
C    -1.9611593    2.0645447    0.8803571 
C    -0.8427026    2.3283769    1.7264777 
H    -2.8040408    1.4870916    1.2806259 
Pd   -0.2613131    0.9120141    0.1041712 
P     1.5922339   -0.1433265    0.9941097 
P    -0.0096353   -0.4848754   -1.7223087 
H    -1.1705552    3.0896134   -0.8391660 
H    -0.1953197    3.1742283    1.4517287 
C    -4.8981484    1.4764049   -3.4835679 
C    -3.7756077    2.2578321   -3.7959808 
C    -2.8190924    2.5372101   -2.8115153 
C    -2.9565453    2.0343711   -1.4961144 
C    -4.1025643    1.2617211   -1.1939123 
C    -5.0599777    0.9870651   -2.1761196 
H    -5.6493354    1.2587809   -4.2493869 
H    -3.6493566    2.6597177   -4.8065471 
H    -1.9550650    3.1659248   -3.0564369 
H    -4.2553110    0.8749683   -0.1814668 
H    -5.9407762    0.3890946   -1.9204223 
C    -0.5750245    1.1166163    5.8563372 
C    -1.3706600    0.3814764    4.9619903 
C    -1.4666494    0.7686243    3.6203677 
C    -0.7758763    1.9080652    3.1418776 
C     0.0149052    2.6401423    4.0556329 
C     0.1158368    2.2481448    5.3971559 
H    -0.4978924    0.8108025    6.9045493 
H    -1.9124589   -0.5041375    5.3104915 
H    -2.0655134    0.1646384    2.9290016 
H     0.5456403    3.5348189    3.7115189 
H     0.7307830    2.8337639    6.0883727 
C    -1.3824251   -1.7446008   -2.0140545 
C    -0.0578979    0.2157019   -3.4733737 
C     3.0436073    0.8030317    1.7483218 
C     1.2869797   -1.2117883    2.5064851 
C    -2.0632654   -1.2533470   -3.3119493 
C    -0.9629079   -0.7573404   -4.2613193 
C     3.0636172    0.3544743    3.2326693 
C     2.5873927   -1.1026539    3.3302063 
C     1.5371471   -1.4578649   -1.4904576 
C     2.2878578   -1.2588985   -0.3045382 
C    -2.2982559   -1.9288036   -0.7916619 
C     1.2860110    0.5626879   -4.1295818 
C     2.9938793    2.3289259    1.5657048 
C     0.7616153   -2.6230744    2.2036091 
C     1.9890633   -2.3818487   -2.4549935 
C     3.4921578   -1.9697562   -0.1236933 
C    -3.4619025   -2.8979547   -1.0382136 
C     2.1359846    1.5510132   -3.3249584 
C     2.9865801    2.8018143    0.1100087 
C     0.3227135   -3.3772385    3.4669110 
C     3.1865134   -3.0819151   -2.2620300 
C     3.9419237   -2.8697648   -1.0984854 
H    -0.8591573   -2.6975874   -2.2259049 
H    -0.6282818    1.1521769   -3.3212411 
H     3.9376659    0.4099071    1.2277175 
H     0.4986811   -0.6457330    3.0409033 
H    -2.6601243   -2.0621814   -3.7672217 
H    -2.7575544   -0.4258672   -3.0776234 
H    -1.3850229   -0.2505281   -5.1472606 
H    -0.3642649   -1.6114128   -4.6331396 
H     4.0728432    0.4924593    3.6583930 
H     2.3733620    0.9981347    3.8092671 
H     2.4099463   -1.3950172    4.3797610 
H     3.3509418   -1.7959920    2.9283105 
H    -2.6911232   -0.9391586   -0.4939618 
H    -1.6869870   -2.2875190    0.0576001 
H     1.0616586    0.9849301   -5.1277714 
H     1.8623129   -0.3625152   -4.3143298 
H     3.8701126    2.7516734    2.0930859 
H     2.1044979    2.7175655    2.0938157 
H     1.5389546   -3.1994724    1.6677962 
H    -0.0955531   -2.5410654    1.5080639 
H     1.4043243   -2.5568657   -3.3640170 
H     4.0859984   -1.8284907    0.7848647 
H    -4.0442212   -3.0504934   -0.1132917 
H    -3.0982700   -3.8856543   -1.3746683 
H    -4.1517443   -2.5094295   -1.8074773 
H     2.4571378    1.1073152   -2.3659176 
H     3.0454190    1.8370054   -3.8794914 
H     1.5722233    2.4739149   -3.0975345 
H     3.0114077    3.9032210    0.0504676 
H     2.0711070    2.4586736   -0.4093141 
H     3.8557590    2.4116249   -0.4488892 
H    -0.0950488   -4.3650010    3.2079659 
H    -0.4515577   -2.8119198    4.0163695 
H     1.1701011   -3.5429444    4.1545292 
H     3.5318810   -3.7912956   -3.0207732 
H     4.8802588   -3.4123782   -0.9457933 
