89
Energy =
C    -1.8455237    2.3706239   -0.5504578 
C    -1.9598356    2.0703303    0.8272415 
C    -0.8466306    2.2353041    1.7078863 
H    -2.8533072    1.5484169    1.1927525 
Pd   -0.3126560    0.8084308    0.0898102 
P     1.5369582   -0.2442473    0.9864403 
P    -0.0419518   -0.5813666   -1.7461765 
H    -1.0366075    3.0583665   -0.8439956 
H    -0.1482696    3.0534959    1.4799844 
C    -4.7811205    1.7798234   -3.6414280 
C    -3.5866968    2.4666160   -3.9050792 
C    -2.6528527    2.6671995   -2.8805659 
C    -2.8846525    2.1740693   -1.5741104 
C    -4.1060231    1.5075670   -1.3191966 
C    -5.0401476    1.3120165   -2.3414087 
H    -5.5149702    1.6235175   -4.4384621 
H    -3.3864459    2.8573285   -4.9080759 
H    -1.7320725    3.2254647   -3.0864941 
H    -4.3317878    1.1397977   -0.3140713 
H    -5.9798199    0.7938822   -2.1238285 
C    -0.7671409    0.8690241    5.7974802 
C    -1.5663237    0.2040246    4.8526364 
C    -1.6023406    0.6431088    3.5241475 
C    -0.8468685    1.7667799    3.1101016 
C    -0.0533155    2.4283100    4.0736538 
C    -0.0121458    1.9834212    5.4019522 
H    -0.7364082    0.5219610    6.8351817 
H    -2.1574271   -0.6681957    5.1511478 
H    -2.2021604    0.0904539    2.7922220 
H     0.5279939    3.3091979    3.7792808 
H     0.6068226    2.5143554    6.1326526 
C    -1.3022366   -1.9373306   -2.1132617 
C    -0.1805804    0.1915680   -3.4649500 
C     2.9908069    0.7150342    1.7249505 
C     1.2470854   -1.2960130    2.5113279 
C    -2.1594157   -1.3143778   -3.2337666 
C    -1.1706007   -0.7074437   -4.2424977 
C     3.0262078    0.2768747    3.2115793 
C     2.5540767   -1.1810077    3.3234043 
C     1.5473770   -1.4895595   -1.5385266 
C     2.2567884   -1.3356282   -0.3210209 
C    -2.0195911   -2.5746132   -0.9122006 
C     1.1231170    0.5438368   -4.1954261 
C     2.9441116    2.2382199    1.5251734 
C     0.7063604   -2.7050140    2.2287550 
C     2.0496916   -2.3526853   -2.5341359 
C     3.4632896   -2.0415095   -0.1332541 
C    -2.9196678   -1.6460951   -0.0929697 
C     2.0328890    1.5005800   -3.4176550 
C     2.9218123    2.6894927    0.0625362 
C     0.3046289   -3.4559333    3.5062510 
C     3.2523511   -3.0422291   -2.3367715 
C     3.9600548   -2.8849695   -1.1352159 
H    -0.6791582   -2.7267268   -2.5778053 
H    -0.7096135    1.1339263   -3.2308933 
H     3.8793056    0.3161011    1.1995562 
H     0.4657783   -0.7194287    3.0452588 
H    -2.8057286   -2.0819764   -3.6955479 
H    -2.8211106   -0.5252024   -2.8314174 
H    -1.6851309   -0.1148147   -5.0190613 
H    -0.6177072   -1.5160442   -4.7582860 
H     4.0394089    0.4197139    3.6261982 
H     2.3400133    0.9218850    3.7910645 
H     2.3850739   -1.4655745    4.3764586 
H     3.3158766   -1.8761730    2.9214176 
H    -1.2556780   -3.0297900   -0.2545127 
H    -2.6202608   -3.4185636   -1.3018904 
H     0.8387360    1.0009525   -5.1626897 
H     1.6767700   -0.3786647   -4.4494263 
H     3.8283101    2.6647384    2.0360132 
H     2.0632928    2.6382635    2.0590505 
H     1.4615032   -3.2864843    1.6667352 
H    -0.1740914   -2.6150444    1.5648155 
H     1.4991451   -2.4902216   -3.4707507 
H     4.0241224   -1.9378105    0.8008945 
H    -3.3531480   -2.1827849    0.7679937 
H    -3.7490318   -1.2459983   -0.6984731 
H    -2.3386115   -0.7866317    0.2994762 
H     2.4054549    1.0301710   -2.4904833 
H     2.9106281    1.7913384   -4.0187967 
H     1.4946037    2.4233989   -3.1344002 
H     2.9419645    3.7898919   -0.0147350 
H     2.0030522    2.3337547   -0.4429489 
H     3.7873535    2.2932618   -0.4977325 
H    -0.1325901   -4.4388256    3.2612153 
H    -0.4437562   -2.8824428    4.0823494 
H     1.1737021   -3.6316433    4.1635810 
H     3.6372345   -3.7030466   -3.1199565 
H     4.8994587   -3.4237792   -0.9758177 
