89
Energy =
C    -1.9019339    2.3549947   -0.4798111 
C    -2.0411042    1.9419328    0.8668312 
C    -0.9663596    2.1031332    1.7929897 
H    -2.9135514    1.3438956    1.1583811 
Pd   -0.3251956    0.8226412    0.0681640 
P     1.5570894   -0.2828380    0.8588918 
P    -0.1745419   -0.5326388   -1.7956800 
H    -1.1168159    3.0984868   -0.6901198 
H    -0.3016486    2.9648312    1.6460829 
C    -4.7360696    1.9772180   -3.6984293 
C    -3.5142836    2.6409350   -3.8872571 
C    -2.6120191    2.7635975   -2.8232283 
C    -2.9033374    2.2151345   -1.5513569 
C    -4.1486893    1.5685277   -1.3724263 
C    -5.0519192    1.4510563   -2.4342619 
H    -5.4462655    1.8833401   -4.5260584 
H    -3.2682577    3.0737202   -4.8623875 
H    -1.6684913    3.3023702   -2.9693972 
H    -4.4244377    1.1657615   -0.3927873 
H    -6.0125885    0.9509687   -2.2743390 
C    -0.8922877    0.4468067    5.7704605 
C    -1.7156540   -0.1304086    4.7892650 
C    -1.7514623    0.4003576    3.4949556 
C    -0.9755920    1.5347940    3.1543015 
C    -0.1573834    2.1075076    4.1546004 
C    -0.1125529    1.5676115    5.4465487 
H    -0.8608657    0.0259286    6.7804191 
H    -2.3263375   -1.0060991    5.0325542 
H    -2.3687788   -0.0885622    2.7333187 
H     0.4404454    2.9941550    3.9144824 
H     0.5265814    2.0297268    6.2061046 
C    -1.6435406   -1.6648436   -2.1692646 
C    -0.1145180    0.2118276   -3.5243615 
C     3.1446544    0.6544900    1.2584126 
C     1.4210680   -1.0725026    2.5685176 
C    -2.2103305   -1.1156584   -3.4984419 
C    -1.0293633   -0.6879400   -4.3826327 
C     3.0697518    0.7945187    2.7926839 
C     2.6665435   -0.5808277    3.3465684 
C     1.2669405   -1.6623441   -1.5738117 
C     2.0392598   -1.5495448   -0.3916908 
C    -2.6663508   -1.7899747   -1.0305506 
C     1.2811871    0.5151610   -4.0841035 
C     3.4709516    1.9218757    0.4483080 
C     1.1575037   -2.5878379    2.5976893 
C     1.6138885   -2.6298912   -2.5392556 
C     3.1503209   -2.3977503   -0.2056194 
C    -2.1047445   -2.3968665    0.2594539 
C     2.0913925    1.4735004   -3.2039909 
C     2.4264588    3.0415741    0.4713131 
C     0.8296223   -3.0960236    4.0096751 
C     2.7189532   -3.4674609   -2.3420555 
C     3.4891327   -3.3501280   -1.1746872 
H    -1.1861232   -2.6561674   -2.3551294 
H    -0.6486367    1.1694573   -3.3695213 
H     3.9359733   -0.0875127    1.0354108 
H     0.5339674   -0.5620899    2.9872570 
H    -2.8420266   -1.8779892   -3.9874955 
H    -2.8547968   -0.2413942   -3.2914843 
H    -1.3673999   -0.1408738   -5.2806895 
H    -0.4699953   -1.5746913   -4.7376618 
H     4.0406380    1.1359788    3.1936638 
H     2.3127108    1.5480854    3.0764679 
H     2.4488142   -0.5357340    4.4271197 
H     3.5001179   -1.2965769    3.2072518 
H    -3.5054595   -2.4086388   -1.4017076 
H    -3.0882225   -0.7898408   -0.8242537 
H     1.1499500    0.9505882   -5.0930184 
H     1.8399858   -0.4282506   -4.2273612 
H     3.6709136    1.6298522   -0.5983722 
H     4.4316731    2.3086968    0.8388482 
H     2.0365334   -3.1287985    2.2020725 
H     0.3197244   -2.8252434    1.9174273 
H     1.0192682   -2.7333808   -3.4526817 
H     3.7577776   -2.3183575    0.7024480 
H    -2.8938031   -2.5104618    1.0226350 
H    -1.3200605   -1.7429991    0.6871219 
H    -1.6583760   -3.3914500    0.0808631 
H     2.2763956    1.0307860   -2.2084748 
H     3.0707801    1.7030958   -3.6559306 
H     1.5544888    2.4267253   -3.0478388 
H     2.7874999    3.9188825   -0.0911900 
H     2.1958749    3.3719534    1.4993911 
H     1.4814616    2.7050972    0.0008508 
H     0.6048098   -4.1760376    3.9920620 
H    -0.0468657   -2.5679044    4.4245901 
H     1.6748575   -2.9412063    4.7026412 
H     2.9799191   -4.2122637   -3.1006078 
H     4.3531571   -4.0035760   -1.0176710 
