89
Energy =
C    -2.0353821    2.1511725   -0.2468676 
C    -2.0503068    1.8683333    1.1372235 
C    -0.8955586    2.0926422    1.9464534 
H    -2.9029441    1.3267964    1.5652712 
Pd   -0.4003080    0.6476401    0.3345204 
P     1.5327083   -0.2888037    1.1857090 
P    -0.0280562   -0.6468630   -1.5653370 
H    -1.2632545    2.8499725   -0.6054726 
H    -0.2355394    2.9207613    1.6502011 
C    -5.2362080    1.5546649   -3.0586848 
C    -4.0434432    2.1824242   -3.4490204 
C    -3.0173525    2.3783211   -2.5168675 
C    -3.1552819    1.9414203   -1.1786913 
C    -4.3731304    1.3325650   -0.7952577 
C    -5.3986991    1.1400757   -1.7259200 
H    -6.0415486    1.4019244   -3.7841785 
H    -3.9152149    2.5263878   -4.4805248 
H    -2.0908160    2.8773194   -2.8237737 
H    -4.5220875    0.9999832    0.2363328 
H    -6.3336741    0.6655340   -1.4108536 
C    -0.5450183    0.9285037    6.0806029 
C     0.1962723    2.0075158    5.5760121 
C     0.0661764    2.3851484    4.2327927 
C    -0.8053462    1.6908139    3.3645416 
C    -1.5472779    0.6052271    3.8884505 
C    -1.4209826    0.2319346    5.2311249 
H    -0.4448087    0.6334836    7.1299719 
H     0.8747514    2.5621764    6.2324806 
H     0.6403193    3.2360965    3.8490190 
H    -2.2113751    0.0322123    3.2319412 
H    -2.0027979   -0.6120482    5.6160717 
C    -1.2738658   -1.8275931   -2.3570337 
C     0.2965775    0.3756673   -3.1286066 
C     3.0165023    0.8002420    1.6211415 
C     1.4538845   -1.1307127    2.8659067 
C    -1.0652048   -1.5963844   -3.8762417 
C    -0.8079469   -0.0979873   -4.1096910 
C     3.1655914    0.6502540    3.1538839 
C     2.7978243   -0.7890265    3.5462528 
C     1.4551420   -1.7032392   -1.2429188 
C     2.1699952   -1.5129644   -0.0357811 
C    -2.7289855   -1.5862168   -1.9086472 
C     1.7363023    0.2838004   -3.6787378 
C     2.9285742    2.2487718    1.1170215 
C     1.0495059   -2.6117005    2.8560203 
C     1.8936762   -2.6865921   -2.1541020 
C     3.3240298   -2.2829116    0.2195977 
C    -2.9932862   -1.8507760   -0.4237521 
C     2.0507325    1.4041555   -4.6798781 
C     2.8311089    2.3778340   -0.4073860 
C    -0.3038564   -2.8775754    2.1859349 
C     3.0317248   -3.4556962   -1.8836371 
C     3.7539408   -3.2481722   -0.6987307 
H    -0.9717325   -2.8479514   -2.0590268 
H     0.1130512    1.4210581   -2.8216933 
H     3.8716265    0.3030129    1.1238532 
H     0.6585426   -0.5540344    3.3766345 
H    -0.2017641   -2.1842797   -4.2377589 
H    -1.9456120   -1.9490374   -4.4425495 
H    -1.7375402    0.4661529   -3.9216427 
H    -0.5139609    0.1046531   -5.1544215 
H     4.1907483    0.9171754    3.4651818 
H     2.4756843    1.3509206    3.6575657 
H     2.7085491   -0.9017563    4.6411734 
H     3.5838374   -1.4942129    3.2149419 
H    -3.3648529   -2.2562791   -2.5178498 
H    -3.0344678   -0.5576980   -2.1681512 
H     1.8901345   -0.7018829   -4.1549353 
H     2.4554787    0.3323642   -2.8410338 
H     3.8260615    2.7847134    1.4798206 
H     2.0624681    2.7435551    1.5950176 
H     1.0182552   -2.9506850    3.9089905 
H     1.8379031   -3.2110525    2.3634754 
H     1.3466576   -2.8569879   -3.0858179 
H     3.8896718   -2.1355117    1.1449086 
H    -4.0620686   -1.7138528   -0.1890296 
H    -2.4136951   -1.1557122    0.2156553 
H    -2.7102281   -2.8802024   -0.1397992 
H     1.9680675    2.3957522   -4.1992212 
H     3.0773446    1.3010478   -5.0704248 
H     1.3622097    1.3894993   -5.5431145 
H     2.8174065    3.4363575   -0.7179520 
H     1.9017562    1.9060214   -0.7827335 
H     3.6842614    1.8864476   -0.9084640 
H    -1.1045590   -2.2762375    2.6516943 
H    -0.5845697   -3.9413225    2.2650294 
H    -0.2760697   -2.6185622    1.1116835 
H     3.3577874   -4.2148854   -2.6016041 
H     4.6478352   -3.8430994   -0.4862888 
