77
Energy =
C    -0.9509101    0.1194073   -2.5462950 
C     0.4396853    0.4227261   -2.5361696 
C     1.3989751   -0.5887706   -2.2363858 
H     0.7576119    1.4723152   -2.5690702 
Pd   -0.0433947   -0.3833665   -0.5652127 
P     1.3137682   -1.0310512    1.1958481 
P    -1.6873113   -0.0337053    1.0226737 
H    -1.2352430   -0.9143524   -2.7985052 
H     1.1355180   -1.6257678   -2.4956480 
C    -4.1541708    2.9692879   -2.9573936 
C    -2.9028022    3.3910649   -2.4775984 
C    -1.8559256    2.4764422   -2.3302960 
C    -2.0303348    1.1165696   -2.6789752 
C    -3.2949502    0.7061883   -3.1604736 
C    -4.3472186    1.6217388   -3.2949017 
H    -4.9722955    3.6882176   -3.0692418 
H    -2.7460286    4.4401486   -2.2070957 
H    -0.8987793    2.8161119   -1.9216000 
H    -3.4435088   -0.3403722   -3.4517892 
H    -5.3158993    1.2844629   -3.6784049 
C     5.5871555    0.0063512   -1.4341560 
C     5.0921550   -1.2645535   -1.7583213 
C     3.7290300   -1.4416616   -2.0274244 
C     2.8329893   -0.3499712   -1.9829274 
C     3.3465697    0.9260535   -1.6480003 
C     4.7071189    1.1007635   -1.3808293 
H     6.6523447    0.1459580   -1.2231511 
H     5.7693033   -2.1239926   -1.8016008 
H     3.3475572   -2.4388799   -2.2734090 
H     2.6739115    1.7870684   -1.5777515 
H     5.0838136    2.0952007   -1.1208690 
N     1.1785463   -3.6032745    0.7766177 
N     3.7784253   -0.0253320    1.9359853 
N    -1.4264243    2.6053280    1.1000211 
N    -3.2227343   -1.9549728    2.1829848 
C     0.2136128   -1.2323574    2.6927469 
C    -0.8965665   -0.1724794    2.7040297 
C     2.1244428   -2.6664962    0.9980788 
C     2.5200576    0.3057020    1.6056985 
C    -2.3922001    1.6683695    0.9983060 
C    -3.0957897   -1.2228710    1.0638803 
C     3.5031021   -2.9329057    0.9921560 
C     2.0641922    1.6391776    1.5302229 
C    -3.7548609    1.9766875    0.8628018 
C    -3.9295208   -1.3733173   -0.0615474 
C     3.9058884   -4.2539057    0.7415391 
C     2.9726210    2.6626128    1.8296626 
C    -4.1249997    3.3287892    0.8360555 
C    -4.9630891   -2.3162274    0.0054232 
C     1.5794835   -4.8617918    0.5494219 
C     4.6445108    0.9663129    2.1985277 
C    -1.7956926    3.8947402    1.0885910 
C    -4.2074420   -2.8673918    2.2298798 
C     2.9341637   -5.2361271    0.5157450 
C     4.2906953    2.3236883    2.1636330 
C    -3.1312668    4.3076942    0.9553392 
C    -5.1055436   -3.0806146    1.1724303 
H    -0.2148961   -2.2451891    2.5866588 
H     0.8224954   -1.1993299    3.6127223 
H    -1.6836101   -0.4342558    3.4310854 
H    -0.5049089    0.8343438    2.9319803 
H     4.2109831   -2.1261934    1.1949079 
H     1.0290389    1.8694408    1.2425060 
H    -4.5060810    1.1858279    0.7850992 
H    -3.7723499   -0.7619088   -0.9568835 
H     4.9709459   -4.5085968    0.7266265 
H     2.6566564    3.7104813    1.7913213 
H    -5.1772257    3.6101161    0.7259901 
H    -5.6415136   -2.4576633   -0.8424408 
H     0.7870624   -5.6022807    0.3822270 
H     5.6678443    0.6601072    2.4494883 
H    -0.9884173    4.6321142    1.1843273 
H    -4.2815199   -3.4527049    3.1550473 
H     3.2129377   -6.2759142    0.3181183 
H     5.0348311    3.0932225    2.3916903 
H    -3.3800086    5.3732210    0.9431920 
H    -5.8946099   -3.8335075    1.2630805 
