77
Energy =
C    -0.8990819    1.0535873   -2.4129361 
C     0.5251470    1.1245807   -2.3582827 
C     1.3128282   -0.0591035   -2.3500727 
H     0.9946100    2.0866854   -2.1186136 
Pd   -0.1095325   -0.0708166   -0.6518541 
P     1.2140273   -1.1371644    0.9240023 
P    -1.7416473   -0.0296135    0.9820013 
H    -1.3430213    0.2040288   -2.9541326 
H     0.8829583   -0.9531169   -2.8286093 
C    -3.4160489    4.5306415   -2.0737424 
C    -3.8021896    3.4480508   -2.8773323 
C    -2.9906590    2.3082131   -2.9608312 
C    -1.7699775    2.2358193   -2.2534934 
C    -1.4107865    3.3218612   -1.4193097 
C    -2.2214334    4.4574364   -1.3370720 
H    -4.0469990    5.4233198   -2.0115950 
H    -4.7345715    3.4936092   -3.4500615 
H    -3.2901272    1.4722555   -3.6034220 
H    -0.4989048    3.2614689   -0.8142873 
H    -1.9277104    5.2871833   -0.6859753 
C     5.5401158   -0.3664539   -1.5882224 
C     4.7894113   -1.4955599   -1.9473292 
C     3.4197499   -1.3734134   -2.2085415 
C     2.7677070   -0.1229197   -2.1042471 
C     3.5355770    1.0043082   -1.7313764 
C     4.9066006    0.8827682   -1.4846465 
H     6.6133085   -0.4573707   -1.3914157 
H     5.2725654   -2.4745139   -2.0309729 
H     2.8391396   -2.2588474   -2.4912285 
H     3.0609860    1.9846602   -1.6279353 
H     5.4847831    1.7685716   -1.2026686 
N     3.0679688   -3.1972990    0.9855839 
N     2.0858133    1.2788339    1.4613148 
N    -2.4379204    2.3003659    2.1551769 
N    -2.2374737   -2.5929451    0.3718133 
C     0.1965888   -1.3502556    2.4854841 
C    -0.8359429   -0.2170573    2.6017416 
C     1.8660502   -2.8153669    0.5223091 
C     2.5658723    0.0170494    1.4075970 
C    -2.8274066    1.4325091    1.2046045 
C    -2.8403808   -1.5135234    0.9159113 
C     1.0526613   -3.6327269   -0.2882052 
C     3.8996865   -0.3197267    1.6847116 
C    -3.9250840    1.6547127    0.3498566 
C    -4.1487799   -1.5465405    1.4316091 
C     1.5271612   -4.9055577   -0.6305085 
C     4.7777934    0.7220785    2.0180510 
C    -4.6695134    2.8265841    0.5264689 
C    -4.8618499   -2.7520546    1.3622023 
C     3.5167110   -4.4157177    0.6422085 
C     2.9348212    2.2606792    1.7990252 
C    -3.1553994    3.4249167    2.3072131 
C    -2.9258360   -3.7448980    0.3262897 
C     2.7873698   -5.3041651   -0.1632748 
C     4.2928232    2.0340085    2.0774028 
C    -4.2808075    3.7295423    1.5254254 
C    -4.2413963   -3.8742091    0.7983014 
H    -0.2981019   -2.3331562    2.3884723 
H     0.8663557   -1.3837662    3.3617066 
H    -1.5579528   -0.4021034    3.4158779 
H    -0.3588004    0.7626109    2.7774679 
H     0.0743751   -3.2667554   -0.6213048 
H     4.2151918   -1.3646565    1.6288473 
H    -4.1843883    0.9345195   -0.4324671 
H    -4.5968069   -0.6529922    1.8772426 
H     0.9274192   -5.5725799   -1.2588999 
H     5.8308096    0.5061914    2.2271864 
H    -5.5287022    3.0375322   -0.1172515 
H    -5.8845844   -2.8131785    1.7485547 
H     4.5048823   -4.6938999    1.0299090 
H     2.5125632    3.2726947    1.8434195 
H    -2.8155867    4.1131284    3.0917480 
H    -2.4024320   -4.6044800   -0.1122462 
H     3.2012521   -6.2856473   -0.4147259 
H     4.9493605    2.8712063    2.3345605 
H    -4.8326969    4.6596028    1.6926886 
H    -4.7625111   -4.8336630    0.7251043 
