77
Energy =
C    -1.0501196    0.5456348   -2.3945152 
C     0.3556425    0.7690986   -2.4744643 
C     1.2675909   -0.3098046   -2.3173127 
H     0.7279214    1.8012060   -2.4712117 
Pd   -0.0517085   -0.1372859   -0.5229567 
P     1.2297138   -1.0710827    1.1664329 
P    -1.7323291   -0.0107437    1.0601007 
H    -1.4167492   -0.4416582   -2.7158051 
H     0.8979863   -1.3200528   -2.5508794 
C    -4.0371074    3.6491377   -2.4134720 
C    -2.7691328    3.9030453   -1.8639725 
C    -1.7954434    2.9004362   -1.8387613 
C    -2.0615155    1.6220518   -2.3830724 
C    -3.3433419    1.3783932   -2.9266430 
C    -4.3224509    2.3811773   -2.9398828 
H    -4.7983673    4.4358594   -2.4281718 
H    -2.5438563    4.8863631   -1.4391229 
H    -0.8270902    3.0999042   -1.3674833 
H    -3.5623793    0.3988963   -3.3681869 
H    -5.3057836    2.1751074   -3.3754503 
C     5.5628533   -0.0796195   -2.0667372 
C     4.8072421    1.1041624   -2.1113100 
C     3.4108936    1.0509126   -2.1913413 
C     2.7360266   -0.1916325   -2.2447477 
C     3.5112795   -1.3753606   -2.2087034 
C     4.9068898   -1.3205106   -2.1136997 
H     6.6549118   -0.0345177   -2.0035348 
H     5.3099266    2.0764690   -2.0809830 
H     2.8441935    1.9869660   -2.2113565 
H     3.0063650   -2.3463971   -2.2496527 
H     5.4849625   -2.2499523   -2.0837151 
N     1.2654307   -3.3779433   -0.1507625 
N     2.1868826    0.5778688    3.0830943 
N    -1.6799579    2.5809466    1.5944091 
N    -3.1266989   -2.2109016    1.8301109 
C     0.0883265   -1.4677665    2.5831565 
C    -0.9786835   -0.3709792    2.7165453 
C     2.0400222   -2.6508508    0.6802055 
C     2.5171192    0.0160558    1.9059384 
C    -2.5612025    1.6213494    1.2515875 
C    -3.0428539   -1.2930477    0.8518750 
C     3.3155148   -3.0607444    1.1046180 
C     3.7145578    0.2972981    1.2201336 
C    -3.9287793    1.8618101    1.0410592 
C    -3.8457086   -1.3206784   -0.3053610 
C     3.8111685   -4.2808579    0.6216720 
C     4.6118494    1.1986525    1.8064257 
C    -4.3953645    3.1741683    1.2011563 
C    -4.8001988   -2.3386816   -0.4240404 
C     1.7422747   -4.5529789   -0.5885919 
C     3.0537384    1.4434935    3.6317412 
C    -2.1429770    3.8279414    1.7612500 
C    -4.0358132   -3.1911141    1.6991110 
C     3.0134896   -5.0419401   -0.2418508 
C     4.2780841    1.7852736    3.0348627 
C    -3.4908732    4.1761384    1.5724040 
C    -4.8987176   -3.2946057    0.5971585 
H    -0.3793049   -2.4399980    2.3476526 
H     0.6836950   -1.5549649    3.5073541 
H    -1.7794671   -0.6791369    3.4091217 
H    -0.5252719    0.5777511    3.0523411 
H     3.9058746   -2.4439250    1.7886053 
H     3.9399569   -0.1787468    0.2616046 
H    -4.6108898    1.0523232    0.7676297 
H    -3.7268446   -0.5585264   -1.0827020 
H     4.8044069   -4.6314566    0.9209349 
H     5.5543690    1.4393994    1.3036970 
H    -5.4529161    3.4063417    1.0395856 
H    -5.4523794   -2.3890818   -1.3022839 
H     1.0843839   -5.1256285   -1.2546233 
H     2.7562936    1.8833161    4.5920990 
H    -1.4035339    4.5849663    2.0523735 
H    -4.0758523   -3.9258978    2.5131767 
H     3.3638173   -5.9986712   -0.6413368 
H     4.9501621    2.4965281    3.5249629 
H    -3.8176365    5.2113123    1.7111389 
H    -5.6265166   -4.1100135    0.5413721 
