77
Energy =
C    -1.3255129   -0.0761497   -2.3738595 
C     0.0570433   -0.1259851   -2.7257707 
C     0.8690977   -1.1915383   -2.2467778 
H     0.5199805    0.7375424   -3.2202766 
Pd   -0.0426500   -0.0773483   -0.5505793 
P     1.5299019   -0.1908732    1.1359623 
P    -1.3846855    0.8284396    1.1089858 
H    -1.8316291   -1.0383388   -2.2012927 
H     0.3492684   -2.1345302   -2.0133421 
C    -3.9305523    3.1831636   -3.4336516 
C    -2.5952047    3.4430215   -3.0809848 
C    -1.7460899    2.3948145   -2.7146970 
C    -2.2120122    1.0585464   -2.7003505 
C    -3.5656672    0.8157684   -3.0245139 
C    -4.4141994    1.8672412   -3.3967650 
H    -4.5919889    4.0052842   -3.7259038 
H    -2.2178398    4.4707728   -3.0839026 
H    -0.7148545    2.6114577   -2.4134556 
H    -3.9459100   -0.2121160   -3.0088068 
H    -5.4550476    1.6563316   -3.6643217 
C     5.0999551   -1.6913911   -2.8492893 
C     4.5337674   -0.4079930   -2.9316325 
C     3.1647410   -0.2223220   -2.7200460 
C     2.3243122   -1.3241520   -2.4375520 
C     2.9105380   -2.6072614   -2.3401538 
C     4.2840481   -2.7903959   -2.5450430 
H     6.1728066   -1.8309032   -3.0172562 
H     5.1681999    0.4558294   -3.1543358 
H     2.7461562    0.7884319   -2.7601968 
H     2.2720271   -3.4733294   -2.1279243 
H     4.7153646   -3.7947502   -2.4790398 
N     0.9199536   -1.5603680    3.3992572 
N     3.6037100    1.2669369    0.3549913 
N    -1.9895363    3.4519806    1.0374394 
N    -2.0020820   -1.7695900    1.3701015 
C     1.1698498    1.2021336    2.3047002 
C    -0.3367368    1.3630908    2.5707506 
C     1.3128788   -1.7304649    2.1252543 
C     3.3174814    0.0100624    0.7445010 
C    -2.5132050    2.2408064    0.7803594 
C    -2.4243073   -0.5507638    1.7637195 
C     1.4427383   -2.9945805    1.5172505 
C     4.2721263   -1.0181978    0.8119625 
C    -3.7781131    2.0483355    0.1932424 
C    -3.4993122   -0.3566195    2.6501004 
C     1.1787897   -4.1312869    2.2899567 
C     5.5947931   -0.7067084    0.4686654 
C    -4.5365735    3.1835841   -0.1171381 
C    -4.1587146   -1.4882134    3.1503002 
C     0.6527714   -2.6581108    4.1267146 
C     4.8758852    1.5552130    0.0451475 
C    -2.7248569    4.5321375    0.7314250 
C    -2.6349621   -2.8456032    1.8636564 
C     0.7725181   -3.9616568    3.6219862 
C     5.9076166    0.6034050    0.0863269 
C    -4.0030221    4.4500164    0.1563126 
C    -3.7169080   -2.7577671    2.7539797 
H     1.7206046    1.0268759    3.2435320 
H     1.5943412    2.0851240    1.7958054 
H    -0.6418750    0.7375851    3.4253011 
H    -0.5949782    2.4179609    2.7651766 
H     1.7328489   -3.0766934    0.4639588 
H     3.9971124   -2.0266400    1.1325170 
H    -4.1544440    1.0427974   -0.0169708 
H    -3.8093878    0.6525094    2.9409702 
H     1.2778393   -5.1330038    1.8586343 
H     6.3693074   -1.4795470    0.5032186 
H    -5.5240588    3.0785990   -0.5765234 
H    -5.0009539   -1.3793091    3.8415929 
H     0.3284662   -2.4859626    5.1609326 
H     5.0791523    2.5909270   -0.2555057 
H    -2.2724344    5.5061360    0.9569321 
H    -2.2600285   -3.8212493    1.5296214 
H     0.5475063   -4.8225227    4.2593004 
H     6.9301360    0.8861351   -0.1819904 
H    -4.5628835    5.3614999   -0.0744339 
H    -4.2024166   -3.6662609    3.1237402 
