77
Energy =
C    -1.0269322    0.5295906   -2.4795533 
C     0.3727000    0.7788650   -2.4636016 
C     1.3015353   -0.2963606   -2.3365233 
H     0.7292999    1.8102604   -2.3526180 
Pd   -0.1006731   -0.2874735   -0.6131896 
P     1.1427408   -1.2530653    1.0719137 
P    -1.7872729   -0.0519710    0.9633813 
H    -1.3544865   -0.4582194   -2.8401452 
H     0.9980405   -1.2688508   -2.7536192 
C    -4.1769240    3.4600004   -2.4326495 
C    -4.4403381    2.1273478   -2.7802814 
C    -3.4038385    1.1861936   -2.7884823 
C    -2.0828335    1.5564530   -2.4469904 
C    -1.8369642    2.8999067   -2.0773470 
C    -2.8711092    3.8400469   -2.0794318 
H    -4.9837121    4.2000698   -2.4342250 
H    -5.4549268    1.8215630   -3.0561481 
H    -3.6124055    0.1479295   -3.0702886 
H    -0.8308699    3.2132092   -1.7808329 
H    -2.6601695    4.8766282   -1.7979580 
C     5.5448210    0.0681285   -1.6714433 
C     4.7117630    1.1820589   -1.4772583 
C     3.3319419    1.0787846   -1.6808209 
C     2.7522995   -0.1392380   -2.1069062 
C     3.6033230   -1.2529742   -2.2935942 
C     4.9825981   -1.1529006   -2.0737586 
H     6.6245845    0.1520923   -1.5107185 
H     5.1396828    2.1368171   -1.1547296 
H     2.6996386    1.9532514   -1.4954394 
H     3.1752361   -2.2054850   -2.6244907 
H     5.6221273   -2.0279134   -2.2302442 
N     2.8568242   -3.2185354    1.8149335 
N     1.7949756    1.0843389    2.1641946 
N    -3.6634267    1.9685984    0.9067407 
N    -2.9112495   -2.4326519    1.1943024 
C     0.0050733   -1.5880300    2.5118234 
C    -1.0674635   -0.4969423    2.6334357 
C     2.0267207   -2.8486723    0.8223240 
C     2.3779043   -0.0338588    1.6796896 
C    -2.3735047    1.6864645    1.1397169 
C    -3.2016520   -1.1998737    0.7303222 
C     1.7754291   -3.6346784   -0.3150247 
C     3.7681037   -0.1951989    1.5744082 
C    -1.4093181    2.6618618    1.4704797 
C    -4.3934397   -0.8827353    0.0532367 
C     2.4305474   -4.8701186   -0.4230465 
C     4.5874123    0.8539016    2.0132824 
C    -1.8370439    3.9882198    1.6035196 
C    -5.3294081   -1.9110222   -0.1285755 
C     3.4830840   -4.3998417    1.6985922 
C     2.5930964    2.0748492    2.5924677 
C    -4.0563291    3.2475069    1.0199133 
C    -3.8197176   -3.4037334    1.0143081 
C     3.3035249   -5.2590725    0.6006549 
C     3.9944564    2.0083287    2.5382350 
C    -3.1876587    4.2892289    1.3781725 
C    -5.0427340   -3.1935567    0.3573337 
H    -0.4725213   -2.5560741    2.2805721 
H     0.6043294   -1.6900132    3.4325539 
H    -1.8905320   -0.8190183    3.2936823 
H    -0.6274346    0.4343220    3.0266272 
H     1.0805896   -3.2845392   -1.0852264 
H     4.1969883   -1.1100072    1.1606737 
H    -0.3614513    2.3726881    1.6214188 
H    -4.5778912    0.1413466   -0.2782292 
H     2.2622734   -5.5160205   -1.2910614 
H     5.6763123    0.7673395    1.9400088 
H    -1.1258934    4.7764893    1.8724332 
H    -6.2757731   -1.7079467   -0.6410558 
H     4.1569957   -4.6746783    2.5200794 
H     2.0901908    2.9648165    2.9928353 
H    -5.1150886    3.4466561    0.8132330 
H    -3.5583458   -4.3927544    1.4115711 
H     3.8374997   -6.2134271    0.5561906 
H     4.6004467    2.8466703    2.8952881 
H    -3.5628739    5.3134500    1.4670631 
H    -5.7509035   -4.0188214    0.2338963 
