77
Energy =
C    -0.8479782    0.2008266   -2.5989367 
C     0.4339593    0.8045433   -2.4818672 
C     1.5873637   -0.0005125   -2.2390618 
H     0.5135397    1.8962989   -2.4007199 
Pd    0.0760427   -0.2769926   -0.6287594 
P     1.3369465   -0.9439498    1.1925140 
P    -1.7140019   -0.2610736    0.8446812 
H    -0.8795240   -0.8389568   -2.9600379 
H     1.5762258   -1.0279175   -2.6334515 
C    -4.5970873    2.2930445   -2.9387241 
C    -3.5275406    2.8848749   -2.2423416 
C    -2.3019875    2.2201268   -2.1326492 
C    -2.1206684    0.9407811   -2.7096784 
C    -3.2070932    0.3517890   -3.3946124 
C    -4.4297052    1.0262948   -3.5176065 
H    -5.5532490    2.8187907   -3.0285210 
H    -3.6523192    3.8695549   -1.7795972 
H    -1.4857531    2.6790396   -1.5660572 
H    -3.0863154   -0.6417257   -3.8402115 
H    -5.2551767    0.5579733   -4.0639415 
C     5.4958643    1.6742062   -1.5703465 
C     4.3578258    2.3378306   -1.0805454 
C     3.0861915    1.7884919   -1.2666979 
C     2.9226511    0.5659889   -1.9615432 
C     4.0774456   -0.1087902   -2.4158578 
C     5.3517393    0.4443730   -2.2286008 
H     6.4903443    2.1095493   -1.4277683 
H     4.4659528    3.2839522   -0.5403236 
H     2.2080419    2.2950660   -0.8503123 
H     3.9692564   -1.0624978   -2.9449208 
H     6.2336949   -0.0839517   -2.6059926 
N     0.9293193   -3.3708935    0.1116480 
N     2.8903997    0.9137482    2.3684672 
N    -1.0305913    2.3209650    1.0887702 
N    -3.4297986   -2.3385960    0.9265177 
C     0.3120009   -0.6762169    2.7261312 
C    -1.1548337   -1.0335215    2.4481311 
C     1.6112495   -2.7665312    1.1057530 
C     2.9604534   -0.1847607    1.5949772 
C    -2.0790846    1.4961963    1.2875420 
C    -3.3210012   -1.0736587    0.4787316 
C     2.4179734   -3.4642616    2.0241438 
C     4.1600730   -0.6726177    1.0429737 
C    -3.3047601    1.9273457    1.8262304 
C    -4.2985896   -0.4436176   -0.3153931 
C     2.5180219   -4.8564496    1.8953975 
C     5.3448678    0.0124764    1.3380431 
C    -3.4474531    3.2845302    2.1479881 
C    -5.4507507   -1.1720908   -0.6392701 
C     1.0265362   -4.7060283    0.0042593 
C     4.0335651    1.5599624    2.6436282 
C    -1.1730257    3.6140963    1.4189380 
C    -4.5388047   -3.0235601    0.6092100 
C     1.8079724   -5.4909320    0.8672026 
C     5.2842914    1.1478468    2.1567328 
C    -2.3633705    4.1470542    1.9391264 
C    -5.5775874   -2.4856928   -0.1688455 
H     0.7237042   -1.2712366    3.5600183 
H     0.4498118    0.3926585    2.9688242 
H    -1.3085129   -2.1182299    2.3043250 
H    -1.8168238   -0.7047127    3.2678706 
H     2.9562112   -2.9307559    2.8149132 
H     4.1648195   -1.5577689    0.4000189 
H    -4.1265678    1.2224396    1.9865443 
H    -4.1629860    0.5828864   -0.6697482 
H     3.1380420   -5.4353120    2.5879127 
H     6.2982748   -0.3303761    0.9246683 
H    -4.3900030    3.6597641    2.5601245 
H    -6.2317463   -0.7162840   -1.2565561 
H     0.4560342   -5.1679876   -0.8111674 
H     3.9463575    2.4480058    3.2827447 
H    -0.2972979    4.2543310    1.2529758 
H    -4.6008681   -4.0498401    0.9931496 
H     1.8572845   -6.5759196    0.7321578 
H     6.1873662    1.7117088    2.4098598 
H    -2.4334193    5.2130549    2.1769162 
H    -6.4614394   -3.0882463   -0.4000972 
