77
Energy =
C    -0.8862692    0.5993752   -2.4827215 
C     0.5058143    0.8954923   -2.4764456 
C     1.4623303   -0.1347100   -2.2382798 
H     0.8338028    1.9427906   -2.4913868 
Pd    0.0356736    0.0189525   -0.5344774 
P     1.2348056   -0.8187804    1.2663283 
P    -1.6872719    0.2506703    0.9843357 
H    -1.1775117   -0.4254330   -2.7610166 
H     1.1837757   -1.1561256   -2.5410316 
C    -4.0060184    3.5206540   -2.9828030 
C    -2.8055644    3.8861551   -2.3496631 
C    -1.7936729    2.9418951   -2.1559906 
C    -1.9545976    1.6091427   -2.6037257 
C    -3.1806032    1.2469817   -3.2062901 
C    -4.1934043    2.1955827   -3.4014208 
H    -4.7939048    4.2647741   -3.1388702 
H    -2.6627075    4.9131779   -1.9984749 
H    -0.8739664    3.2344730   -1.6379359 
H    -3.3265010    0.2157832   -3.5476375 
H    -5.1280999    1.8996732   -3.8892938 
C     5.7005240    0.5273111   -1.8847539 
C     5.2060707   -0.6978602   -2.3542727 
C     3.8244997   -0.9066915   -2.4516036 
C     2.9096703    0.1052872   -2.0833206 
C     3.4235367    1.3266222   -1.5868094 
C     4.8022989    1.5364921   -1.4972896 
H     6.7801687    0.6952077   -1.8144214 
H     5.8983828   -1.4906142   -2.6562404 
H     3.4435730   -1.8581058   -2.8403226 
H     2.7359649    2.1117429   -1.2538324 
H     5.1816076    2.4888848   -1.1132830 
N     0.6999902   -3.3822159    1.9692445 
N     3.9607795   -0.7559338    1.1780834 
N    -2.5073370    2.7587291    1.4580624 
N    -2.0654963   -2.3208409    0.3345901 
C     0.2349361   -0.5748218    2.8262880 
C    -0.8977321    0.4499567    2.6586332 
C     1.4944699   -2.6461293    1.1778191 
C     2.8862321   -0.0524972    1.5640472 
C    -2.9176226    1.6084087    0.8912969 
C    -2.6109659   -1.3417356    1.0839417 
C     2.4013660   -3.2027437    0.2549695 
C     2.9649256    1.2421450    2.1144456 
C    -4.1326553    1.4728670    0.1948990 
C    -3.7262397   -1.5380211    1.9191122 
C     2.4811374   -4.5986399    0.1793151 
C     4.2349896    1.8009687    2.3053064 
C    -4.9702192    2.5923376    0.1143519 
C    -4.2934971   -2.8185569    1.9758901 
C     0.7828669   -4.7196715    1.8856051 
C     5.1717213   -0.2061006    1.3536580 
C    -3.3217288    3.8217584    1.3760495 
C    -2.6118119   -3.5448483    0.4041871 
C     1.6572509   -5.3755222    1.0068004 
C     5.3628861    1.0622437    1.9227859 
C    -4.5630703    3.7879170    0.7204298 
C    -3.7238794   -3.8430462    1.2073516 
H    -0.1556081   -1.5906513    3.0279297 
H     0.9114369   -0.3035347    3.6542759 
H    -1.6600733    0.3418187    3.4500739 
H    -0.5438732    1.4960955    2.6789239 
H     3.0328953   -2.5560090   -0.3582400 
H     2.0599347    1.7946920    2.3896809 
H    -4.4111501    0.5229412   -0.2709996 
H    -4.1383088   -0.7113973    2.5079132 
H     3.1790636   -5.0741446   -0.5178599 
H     4.3409375    2.7987628    2.7436842 
H    -5.9219041    2.5323878   -0.4226378 
H    -5.1623513   -3.0136164    2.6131124 
H     0.1210849   -5.2885503    2.5510996 
H     6.0270218   -0.8064855    1.0207079 
H    -2.9656088    4.7434869    1.8536002 
H    -2.1374709   -4.3207488   -0.2095364 
H     1.6907176   -6.4690773    0.9749422 
H     6.3730029    1.4624480    2.0528673 
H    -5.1893584    4.6843574    0.6799985 
H    -4.1340908   -4.8575830    1.2262507 
