77
Energy =
C    -0.8796803    0.0020229   -2.7600175 
C     0.3314344    0.7152000   -2.5708405 
C     1.5415387    0.0127425   -2.2815985 
H     0.3046286    1.8084574   -2.4750855 
Pd    0.0061702   -0.4000189   -0.7345478 
P     1.3301720   -1.0059758    1.0752432 
P    -1.7364105   -0.4113482    0.8102798 
H    -0.7960324   -1.0331447   -3.1270674 
H     1.6475274   -1.0014829   -2.6949518 
C    -4.7767704    1.7507876   -3.2751657 
C    -3.8434698    2.3626644   -2.4203465 
C    -2.5686863    1.8124862   -2.2568883 
C    -2.2024330    0.6329064   -2.9447260 
C    -3.1478187    0.0263773   -3.8017753 
C    -4.4231840    0.5838169   -3.9684234 
H    -5.7754196    2.1824610   -3.3978744 
H    -4.1174148    3.2687531   -1.8695612 
H    -1.8599178    2.2676769   -1.5566801 
H    -2.8767664   -0.8874162   -4.3430107 
H    -5.1418430    0.1056421   -4.6423485 
C     5.2204293    2.1079836   -1.5090598 
C     5.2304714    0.8840481   -2.1934309 
C     4.0326524    0.1883304   -2.4093710 
C     2.8018060    0.7131750   -1.9580877 
C     2.8110259    1.9299359   -1.2345990 
C     4.0067276    2.6212050   -1.0201611 
H     6.1545545    2.6553506   -1.3457316 
H     6.1729479    0.4723016   -2.5697052 
H     4.0436723   -0.7590262   -2.9604108 
H     1.8728910    2.3165558   -0.8196891 
H     3.9967537    3.5616437   -0.4595114 
N     1.1881201   -3.4194836   -0.1043098 
N     2.6511556    0.9831166    2.3101581 
N    -0.9155671    2.1676632    0.8621474 
N    -4.1782013   -1.0641214    1.8109911 
C     0.3028707   -0.9210590    2.6322085 
C    -1.1479706   -1.3179462    2.3343184 
C     1.8074820   -2.7813205    0.9095358 
C     2.8585753   -0.0873958    1.5218617 
C    -1.8298368    1.3449228    1.4138473 
C    -3.4924649   -0.9669153    0.6556378 
C     2.6990052   -3.4193098    1.7926609 
C     4.1180074   -0.4331628    0.9972245 
C    -2.7425147    1.7572682    2.4014161 
C    -4.0474661   -1.2545929   -0.6009143 
C     2.9589746   -4.7836256    1.6033579 
C     5.2141671    0.3685985    1.3381526 
C    -2.6971007    3.0921547    2.8272368 
C    -5.3908681   -1.6529319   -0.6549271 
C     1.4392520   -4.7286287   -0.2698937 
C     3.7099003    1.7426353    2.6288539 
C    -0.8756474    3.4411889    1.2867642 
C    -5.4608105   -1.4550764    1.7487471 
C     2.3167056   -5.4527506    0.5528429 
C     5.0105483    1.4749502    2.1730157 
C    -1.7446438    3.9516647    2.2631640 
C    -6.1116427   -1.7580682    0.5408343 
H     0.7546773   -1.5621052    3.4091756 
H     0.3897183    0.1295508    2.9640273 
H    -1.2375324   -2.3961892    2.1069725 
H    -1.8264154   -1.0919705    3.1741445 
H     3.1797305   -2.8613183    2.6032681 
H     4.2358065   -1.2999573    0.3405263 
H    -3.4638605    1.0435549    2.8132409 
H    -3.4486631   -1.1542739   -1.5092373 
H     3.6501121   -5.3145680    2.2662988 
H     6.2096289    0.1373425    0.9470319 
H    -3.3939459    3.4535725    3.5908103 
H    -5.8620323   -1.8747311   -1.6179945 
H     0.9173373   -5.2195798   -1.1008402 
H     3.5100300    2.6046105    3.2782383 
H    -0.1164046    4.0823488    0.8208027 
H    -5.9933129   -1.5280415    2.7055688 
H     2.4902177   -6.5178777    0.3706215 
H     5.8410161    2.1264071    2.4619167 
H    -1.6745328    4.9998684    2.5702214 
H    -7.1611603   -2.0685289    0.5454177 
