77
Energy =
C    -0.8381085    0.5714469   -2.5186477 
C     0.5588487    0.8287893   -2.4120225 
C     1.4855706   -0.2440428   -2.2694166 
H     0.8999725    1.8569737   -2.2395963 
Pd   -0.0159109   -0.3085069   -0.6387821 
P     1.2648851   -1.2552611    1.0441925 
P    -1.7159059   -0.1940335    0.9179751 
H    -1.1340022   -0.3871318   -2.9735362 
H     1.2097844   -1.2119843   -2.7159739 
C    -3.9582445    3.5415399   -2.5060837 
C    -4.1982215    2.2523609   -3.0035009 
C    -3.1744591    1.2963629   -2.9994019 
C    -1.8911311    1.6052956   -2.4938301 
C    -1.6725404    2.9024743   -1.9730909 
C    -2.6907776    3.8599804   -1.9905744 
H    -4.7532115    4.2942737   -2.5182608 
H    -5.1815776    1.9939566   -3.4100986 
H    -3.3626346    0.2985247   -3.4127684 
H    -0.7016016    3.1617990   -1.5390131 
H    -2.4983294    4.8607492   -1.5908800 
C     5.6529355    0.0802665   -1.2366089 
C     4.8005676    1.1797233   -1.0378294 
C     3.4472470    1.0941693   -1.3760839 
C     2.9142706   -0.0940879   -1.9308144 
C     3.7823353   -1.1928283   -2.1200339 
C     5.1378067   -1.1056419   -1.7783274 
H     6.7124196    0.1500061   -0.9696540 
H     5.1930459    2.1071876   -0.6087064 
H     2.7957204    1.9543348   -1.1915054 
H     3.3846011   -2.1247470   -2.5370419 
H     5.7931858   -1.9685091   -1.9362526 
N     1.1154685   -3.7188659    0.1981646 
N     3.7147384   -0.4179207    2.0099653 
N    -1.4466290    2.3882707    1.5130439 
N    -3.8008594   -1.6449401    1.8917659 
C     0.1065018   -1.6695698    2.4540145 
C    -0.9980063   -0.6110748    2.5866917 
C     2.0621816   -2.8536414    0.6188120 
C     2.4694019   -0.0207628    1.7044410 
C    -2.3935951    1.5023787    1.1434170 
C    -3.1868347   -1.2973439    0.7473537 
C     3.4350210   -3.1475958    0.6376266 
C     2.0270497    1.3128819    1.8365783 
C    -3.7327986    1.8514211    0.9090314 
C    -3.6189695   -1.7153962   -0.5231824 
C     3.8312279   -4.4178523    0.1908548 
C     2.9354707    2.2615398    2.3234173 
C    -4.1025754    3.1916974    1.0858262 
C    -4.7605961   -2.5260542   -0.5998153 
C     1.5096463   -4.9313215   -0.2153716 
C     4.5814415    0.5058258    2.4547940 
C    -1.8168821    3.6656976    1.6898842 
C    -4.8868896   -2.4289440    1.8094584 
C     2.8585967   -5.3260913   -0.2438971 
C     4.2405737    1.8552697    2.6325433 
C    -3.1317431    4.1160859    1.4903126 
C    -5.4075594   -2.8900948    0.5882164 
H    -0.3119194   -2.6549298    2.1796939 
H     0.6814080   -1.7820417    3.3893746 
H    -1.8301188   -0.9578718    3.2244099 
H    -0.6101099    0.3404706    2.9903347 
H     4.1427032   -2.4010685    1.0053569 
H     1.0019104    1.6011314    1.5660703 
H    -4.4633690    1.0990596    0.5992520 
H    -3.0704162   -1.4105275   -1.4194951 
H     4.8917261   -4.6912704    0.1867908 
H     2.6294529    3.3054977    2.4489404 
H    -5.1356515    3.5069976    0.9082764 
H    -5.1333028   -2.8729184   -1.5691639 
H     0.7167168   -5.6155701   -0.5429061 
H     5.5942864    0.1490666    2.6801046 
H    -1.0276026    4.3619086    2.0011645 
H    -5.3626506   -2.7012933    2.7600580 
H     3.1322039   -6.3246992   -0.5986465 
H     4.9844125    2.5674016    3.0033567 
H    -3.3818022    5.1702392    1.6438586 
H    -6.2977988   -3.5266210    0.5753915 
