77
Energy =
C    -1.1761998    0.1147407   -2.4326038 
C     0.2073795    0.2171054   -2.7545603 
C     1.1033313   -0.8333975   -2.4057205 
H     0.6085547    1.1673026   -3.1310074 
Pd    0.0778494   -0.0218530   -0.5922612 
P     1.5241585   -0.3434120    1.1866752 
P    -1.3330650    0.7549854    1.0749959 
H    -1.5966421   -0.8998000   -2.3561975 
H     0.6791607   -1.8473565   -2.3393330 
C    -4.0682223    3.1928823   -3.2541224 
C    -2.7566569    3.5480124   -2.8947531 
C    -1.8143256    2.5594179   -2.5981765 
C    -2.1605682    1.1888878   -2.6636200 
C    -3.4925265    0.8475794   -2.9898679 
C    -4.4347315    1.8399275   -3.2919434 
H    -4.8020990    3.9696088   -3.4927877 
H    -2.4711585    4.6034400   -2.8385998 
H    -0.8022303    2.8492013   -2.2950341 
H    -3.7804389   -0.2090325   -3.0330761 
H    -5.4563136    1.5542390   -3.5640756 
C     5.3402986   -0.7031925   -3.1328772 
C     4.6298147   -1.9057818   -3.2633024 
C     3.2562917   -1.9429228   -2.9945405 
C     2.5615483   -0.7726474   -2.6169227 
C     3.2928726    0.4292782   -2.4742002 
C     4.6670614    0.4624436   -2.7285089 
H     6.4154932   -0.6734513   -3.3376135 
H     5.1480782   -2.8191183   -3.5738490 
H     2.7058822   -2.8847701   -3.0959594 
H     2.7800497    1.3372991   -2.1368639 
H     5.2200687    1.3993736   -2.6056058 
N     0.3324946   -1.6489082    3.2249105 
N     3.7457588   -1.5643417    0.3496709 
N    -2.0308834    3.3562319    1.0345574 
N    -2.0740422   -1.8293253    0.9717274 
C     1.1796990    1.0426906    2.3775729 
C    -0.3309646    1.3057046    2.5581848 
C     1.0657368   -1.8720957    2.1208602 
C     3.3436290   -0.4206133    0.9357157 
C    -2.5259820    2.1280686    0.8009339 
C    -2.3338269   -0.6896804    1.6429943 
C     1.3716489   -3.1580226    1.6369308 
C     4.2218308    0.6277538    1.2643534 
C    -3.8182930    1.8934346    0.2957770 
C    -3.2370071   -0.6160115    2.7187112 
C     0.8978936   -4.2576729    2.3626687 
C     5.5845505    0.4581258    0.9805311 
C    -4.6365425    3.0023956    0.0480766 
C    -3.8833956   -1.7916604    3.1236396 
C    -0.1262337   -2.7132512    3.9045110 
C     5.0510191   -1.7167004    0.0900517 
C    -2.8249751    4.4105401    0.7928270 
C    -2.6960217   -2.9499602    1.3710741 
C     0.1306031   -4.0356685    3.5157583 
C     6.0103660   -0.7343581    0.3843046 
C    -4.1349311    4.2853747    0.3035853 
C    -3.6028071   -2.9838454    2.4423472 
H     1.6600519    0.8217689    3.3454248 
H     1.6629020    1.9315972    1.9349272 
H    -0.7110487    0.7513130    3.4296486 
H    -0.5348473    2.3840381    2.6714218 
H     1.9772114   -3.2714890    0.7338007 
H     3.8647686    1.5469724    1.7370474 
H    -4.1703974    0.8757635    0.1031644 
H    -3.4268109    0.3357748    3.2262125 
H     1.1213048   -5.2766390    2.0292607 
H     6.3013352    1.2483879    1.2267439 
H    -5.6476009    2.8648690   -0.3472255 
H    -4.5920870   -1.7771038    3.9583451 
H    -0.7269982   -2.4956106    4.7966126 
H     5.3434024   -2.6604608   -0.3853089 
H    -2.3953549    5.3989747    0.9994615 
H    -2.4557024   -3.8618693    0.8105578 
H    -0.2632844   -4.8701403    4.1043072 
H     7.0645501   -0.9046787    0.1463296 
H    -4.7431581    5.1769195    0.1228986 
H    -4.0802755   -3.9255815    2.7304074 
