77
Energy =
C    -1.0568240    0.6665836   -2.4414689 
C     0.3660219    0.6764468   -2.5786374 
C     1.0786641   -0.5422183   -2.6976453 
H     0.9214249    1.6090933   -2.4168113 
Pd   -0.1031825   -0.4394347   -0.7720731 
P     1.2025781   -1.3607976    0.9324846 
P    -1.7235779   -0.2570081    0.8863959 
H    -1.5915349   -0.1602941   -2.9335979 
H     0.5324384   -1.3997191   -3.1215687 
C    -3.3938499    4.2389668   -1.8969676 
C    -2.0855073    4.1756165   -1.3878616 
C    -1.3290267    3.0086611   -1.5265747 
C    -1.8590244    1.8827728   -2.2009255 
C    -3.1875714    1.9473305   -2.6760789 
C    -3.9469953    3.1160901   -2.5289147 
H    -3.9819746    5.1562153   -1.7899769 
H    -1.6582685    5.0396878   -0.8689267 
H    -0.3244420    2.9570612   -1.0926299 
H    -3.6179638    1.0798723   -3.1900055 
H    -4.9691110    3.1529095   -2.9201592 
C     5.3583291   -0.9637948   -2.7871885 
C     4.7709848    0.0301241   -1.9849990 
C     3.3819901    0.1864401   -1.9574565 
C     2.5505111   -0.6543959   -2.7324596 
C     3.1506788   -1.6518838   -3.5334679 
C     4.5441745   -1.8014334   -3.5638306 
H     6.4463681   -1.0846717   -2.8038991 
H     5.4017797    0.6788964   -1.3681755 
H     2.9253948    0.9292019   -1.2944387 
H     2.5180401   -2.3104500   -4.1395497 
H     4.9945141   -2.5732263   -4.1968845 
N     2.8782868   -3.1065167    2.1531964 
N     1.7848114    1.2797138    0.9876898 
N    -1.5360398    2.1983157    1.9420826 
N    -3.8788358   -1.6395279    1.7865355 
C     0.0569200   -1.8894272    2.3079764 
C    -1.0097244   -0.8076254    2.5135327 
C     2.5090604   -2.6686845    0.9346118 
C     2.0257600    0.1369430    1.6598096 
C    -2.3988858    1.4134628    1.2732102 
C    -3.2255453   -1.3141205    0.6573694 
C     3.0755218   -3.1351605   -0.2618158 
C     2.7772055    0.0819774    2.8473263 
C    -3.6813774    1.8278939    0.8756251 
C    -3.6498411   -1.7103962   -0.6225889 
C     4.0852664   -4.1048381   -0.1795393 
C     3.2893878    1.2818946    3.3598797 
C    -4.0819299    3.1274858    1.2109407 
C    -4.8227117   -2.4731254   -0.7259925 
C     3.8403120   -4.0401182    2.2201490 
C     2.2740411    2.4230104    1.4935279 
C    -1.9335354    3.4388738    2.2606424 
C    -4.9953548   -2.3752651    1.6795249 
C     4.4741363   -4.5690609    1.0829808 
C     3.0283115    2.4769063    2.6753712 
C    -3.1965291    3.9490417    1.9200697 
C    -5.5101078   -2.8114077    0.4463329 
H    -0.3897275   -2.8512422    1.9958610 
H     0.6488855   -2.0749511    3.2199964 
H    -1.8521436   -1.1543693    3.1371424 
H    -0.5826097    0.1093249    2.9570689 
H     2.7479633   -2.7394221   -1.2263097 
H     2.9541432   -0.8791139    3.3415836 
H    -4.3456407    1.1568429    0.3242996 
H    -3.0714120   -1.4274450   -1.5073248 
H     4.5583519   -4.4859673   -1.0903865 
H     3.8805706    1.2830827    4.2816531 
H    -5.0711757    3.4924679    0.9176876 
H    -5.1890296   -2.8010920   -1.7043396 
H     4.1183965   -4.3799227    3.2258591 
H     2.0532983    3.3360873    0.9261352 
H    -1.2106337    4.0525114    2.8136392 
H    -5.5025532   -2.6282266    2.6192472 
H     5.2552151   -5.3278619    1.1926696 
H     3.4054525    3.4352955    3.0457819 
H    -3.4739729    4.9691587    2.2028566 
H    -6.4270192   -3.4080442    0.4127238 
