77
Energy =
C    -0.9330231    0.1137127   -2.7994838 
C     0.3050394    0.7602948   -2.5621089 
C     1.4812297   -0.0112408   -2.3082324 
H     0.3217839    1.8458832   -2.4018171 
Pd   -0.0716955   -0.4277227   -0.7800580 
P     1.2255196   -1.1382435    1.0150671 
P    -1.8259701   -0.4983337    0.7627750 
H    -0.8920486   -0.9043678   -3.2178951 
H     1.5352779   -0.9971704   -2.7947594 
C    -4.7429062    2.0546554   -3.2672647 
C    -3.7948926    2.5829830   -2.3736336 
C    -2.5478229    1.9694317   -2.2223563 
C    -2.2252692    0.8089143   -2.9627714 
C    -3.1859694    0.2846837   -3.8567174 
C    -4.4330399    0.9061963   -4.0107794 
H    -5.7196378    2.5361998   -3.3803670 
H    -4.0364367    3.4727381   -1.7826773 
H    -1.8305325    2.3551640   -1.4898769 
H    -2.9492222   -0.6143137   -4.4372466 
H    -5.1635506    0.4925139   -4.7139472 
C     5.3000142    1.7522677   -1.4002034 
C     5.2254422    0.5085409   -2.0433936 
C     3.9774946   -0.0713456   -2.3090776 
C     2.7816985    0.5853056   -1.9433357 
C     2.8733569    1.8190991   -1.2559691 
C     4.1186530    2.3991052   -0.9990898 
H     6.2735769    2.2117473   -1.2008383 
H     6.1409823   -0.0073819   -2.3511833 
H     3.9247676   -1.0334220   -2.8320530 
H     1.9606329    2.3127308   -0.9045359 
H     4.1717776    3.3569428   -0.4716852 
N     2.1608417   -3.4824220    2.0192016 
N     2.2897361    1.0312799    2.1729225 
N    -0.9076596    2.0424469    0.9001703 
N    -4.2811815   -1.0770488    1.7546056 
C     0.1760370   -1.2089897    2.5484774 
C    -1.2780910   -1.5508927    2.2034411 
C     1.9347275   -2.8412437    0.8596222 
C     2.6533107   -0.0954907    1.5357388 
C    -1.7898823    1.2111553    1.4887685 
C    -3.6222589   -0.9023506    0.5934553 
C     2.2350234   -3.3910121   -0.3987677 
C     3.9879528   -0.4390712    1.2616163 
C    -2.5716941    1.5742305    2.5999360 
C    -4.2349056   -0.9874373   -0.6664980 
C     2.8130817   -4.6682963   -0.4437241 
C     4.9910535    0.4385251    1.6922122 
C    -2.4133535    2.8643268    3.1246034 
C    -5.6094299   -1.2612428   -0.7145072 
C     2.7067542   -4.7066790    1.9672161 
C     3.2600436    1.8607379    2.5838879 
C    -0.7589568    3.2722065    1.4179707 
C    -5.5947752   -1.3469856    1.6968990 
C     3.0551390   -5.3394166    0.7615035 
C     4.6245345    1.6080884    2.3700438 
C    -1.4852290    3.7289065    2.5281239 
C    -6.3032012   -1.4472084    0.4874975 
H     0.6368235   -1.9514854    3.2230728 
H     0.2659477   -0.2036687    2.9969144 
H    -1.3862407   -2.6040317    1.8853353 
H    -1.9622496   -1.3852115    3.0525690 
H     2.0184193   -2.8284441   -1.3119391 
H     4.2351415   -1.3626751    0.7311010 
H    -3.2838091    0.8605783    3.0276456 
H    -3.6573045   -0.8279949   -1.5803292 
H     3.0644733   -5.1322456   -1.4031378 
H     6.0436906    0.2115299    1.4965594 
H    -3.0038910    3.1874287    3.9883428 
H    -6.1248449   -1.3248506   -1.6783522 
H     2.8740458   -5.2054153    2.9303364 
H     2.9325412    2.7676374    3.1084717 
H    -0.0268814    3.9209538    0.9203745 
H    -6.1046115   -1.4875875    2.6584535 
H     3.5003141   -6.3391792    0.7731726 
H     5.3790938    2.3166404    2.7252886 
H    -1.3278726    4.7419474    2.9114511 
H    -7.3756321   -1.6656104    0.4957685 
