77
Energy =
C    -0.9174584    0.3192959   -2.4804098 
C     0.4277359    0.7892755   -2.5209654 
C     1.5133115   -0.0964578   -2.2850865 
H     0.6091432    1.8712163   -2.5468851 
Pd    0.1161537   -0.0985574   -0.5471415 
P     1.4900731   -0.6534563    1.2347945 
P    -1.6016596   -0.2122642    1.0162069 
H    -1.0941836   -0.7253997   -2.7791861 
H     1.3379686   -1.1677319   -2.4722802 
C    -4.3821624    2.8669843   -2.7404669 
C    -3.2043734    3.3472439   -2.1439776 
C    -2.0769234    2.5264941   -2.0441039 
C    -2.0956751    1.2078418   -2.5556128 
C    -3.2870623    0.7376410   -3.1538850 
C    -4.4199810    1.5580115   -3.2427825 
H    -5.2647133    3.5107625   -2.8138406 
H    -3.1696857    4.3646159   -1.7414694 
H    -1.1799051    2.8999407   -1.5387899 
H    -3.3143956   -0.2755793   -3.5718870 
H    -5.3304029    1.1778809   -3.7180023 
C     5.6826258    0.9346370   -1.9812346 
C     5.2374502   -0.3632803   -1.6837566 
C     3.8803874   -0.6814883   -1.7943134 
C     2.9338248    0.2915162   -2.1937341 
C     3.3959253    1.5949651   -2.4843161 
C     4.7567988    1.9094456   -2.3839620 
H     6.7459622    1.1833614   -1.9044712 
H     5.9513845   -1.1301782   -1.3665467 
H     3.5378962   -1.6956188   -1.5572381 
H     2.6938634    2.3667679   -2.8158982 
H     5.0976225    2.9206420   -2.6300559 
N     0.2871236   -2.9675203    1.0842440 
N     4.1627685   -0.6477819    1.9371762 
N    -1.5961692    2.4059597    1.3959425 
N    -2.9894886   -2.4255424    1.8055944 
C     0.5894579   -0.0892038    2.7734148 
C    -0.8875581   -0.5015898    2.7154476 
C     1.5182061   -2.4897263    1.3730640 
C     3.1699006    0.0796392    1.3971145 
C    -2.4733518    1.4061852    1.1670484 
C    -2.8998456   -1.5099626    0.8277080 
C     2.6045964   -3.3100109    1.7184426 
C     3.3331888    1.4062898    0.9546233 
C    -3.8586115    1.6045510    1.0541521 
C    -3.7020489   -1.5350463   -0.3297837 
C     2.3882811   -4.6967635    1.7473619 
C     4.5907500    2.0027800    1.1004177 
C    -4.3496444    2.9118135    1.1814439 
C    -4.6498536   -2.5584255   -0.4567109 
C     0.0891230   -4.2919088    1.1409268 
C     5.3675409   -0.0682829    2.0628316 
C    -2.0814044    3.6493098    1.5312017 
C    -3.8961276   -3.4070569    1.6706055 
C     1.1135420   -5.1996133    1.4564993 
C     5.6296955    1.2517851    1.6656184 
C    -3.4483958    3.9548841    1.4258754 
C    -4.7495339   -3.5171481    0.5615177 
H     1.0948172   -0.4945724    3.6673516 
H     0.6893395    1.0111722    2.7758318 
H    -1.0369853   -1.5789640    2.8977604 
H    -1.4863511    0.0567592    3.4544039 
H     3.5682988   -2.8532729    1.9600601 
H     2.4950138    1.9427054    0.4965443 
H    -4.5359049    0.7649993    0.8752617 
H    -3.5887143   -0.7684773   -1.1035645 
H     3.2091905   -5.3751937    2.0028393 
H     4.7599335    3.0301159    0.7635966 
H    -5.4228877    3.1088007    1.0916136 
H    -5.2965818   -2.6086566   -1.3390126 
H    -0.9283400   -4.6376363    0.9198276 
H     6.1589224   -0.6882740    2.5026548 
H    -1.3448490    4.4391364    1.7269916 
H    -3.9430791   -4.1376024    2.4884391 
H     0.9113208   -6.2751101    1.4734152 
H     6.6307571    1.6755132    1.7915260 
H    -3.7922804    4.9882611    1.5330852 
H    -5.4733060   -4.3358445    0.5008948 
