77
Energy =
C    -1.0693447    0.4221337   -2.4942249 
C     0.3440429    0.5327058   -2.6021112 
C     1.1689590   -0.6210810   -2.4538181 
H     0.8137940    1.5247009   -2.5892653 
Pd   -0.0906555   -0.3408075   -0.6484581 
P     1.1410428   -1.2113060    1.1080782 
P    -1.7466926    0.0203280    0.9295768 
H    -1.5200027   -0.5593864   -2.7067771 
H     0.7523500   -1.5840818   -2.7858197 
C    -3.8890213    3.6670662   -2.2519183 
C    -2.5580151    3.9335972   -2.6082232 
C    -1.6281128    2.8909033   -2.7046215 
C    -2.0155914    1.5552011   -2.4572164 
C    -3.3663939    1.2987696   -2.1238301 
C    -4.2897715    2.3431875   -2.0112989 
H    -4.6120023    4.4851403   -2.1712829 
H    -2.2419288    4.9613371   -2.8162145 
H    -0.5965658    3.1208414   -2.9906994 
H    -3.6825093    0.2669459   -1.9346340 
H    -5.3269625    2.1235720   -1.7379400 
C     5.4649720   -0.5509904   -2.1229053 
C     4.7018876    0.4862188   -1.5565721 
C     3.3077019    0.4790364   -1.6695970 
C     2.6429526   -0.5706286   -2.3478568 
C     3.4202286   -1.6112384   -2.9022758 
C     4.8184626   -1.5964707   -2.7986651 
H     6.5562884   -0.5421921   -2.0354794 
H     5.1975342    1.2996932   -1.0162639 
H     2.7206592    1.2718134   -1.1923194 
H     2.9211677   -2.4357747   -3.4228898 
H     5.4040829   -2.4072581   -3.2447317 
N     1.5943127   -3.8446326    1.4700463 
N     1.6475627    1.3560076    1.6385181 
N    -3.6265599    1.8377781    1.7770385 
N    -2.8204152   -2.0771920   -0.3154080 
C    -0.0486961   -1.5634513    2.5030455 
C    -1.0729650   -0.4245957    2.6208327 
C     2.1645617   -2.7307398    0.9745206 
C     2.2235660    0.1394518    1.7564228 
C    -2.4404450    1.7136745    1.1577343 
C    -3.1332466   -1.1590986    0.6237277 
C     3.4008422   -2.7247065    0.2988795 
C     3.4922316   -0.0544000    2.3293044 
C    -1.6841565    2.8053183    0.6959307 
C    -4.3644245   -1.1350587    1.3036316 
C     4.0746744   -3.9441952    0.1525580 
C     4.2000251    1.0726216    2.7726766 
C    -2.2072560    4.0919160    0.8793153 
C    -5.3137294   -2.1143766    0.9774064 
C     2.2508831   -5.0054324    1.3216972 
C     2.3260414    2.4235718    2.0863112 
C    -4.1176241    3.0753171    1.9471119 
C    -3.7347518   -3.0163850   -0.6072948 
C     3.4926506   -5.1077668    0.6730537 
C     3.6106566    2.3369017    2.6472065 
C    -3.4484794    4.2311186    1.5130904 
C    -4.9954092   -3.0746137    0.0081571 
H    -0.5169012   -2.5282680    2.2393875 
H     0.5120349   -1.7108754    3.4421568 
H    -1.9048863   -0.6899200    3.2959407 
H    -0.5993185    0.4979636    2.9998677 
H     3.8230865   -1.7974873   -0.0999489 
H     3.9172694   -1.0577152    2.4263861 
H    -0.7214573    2.6345887    0.2038963 
H    -4.5653142   -0.3491679    2.0370338 
H     5.0372482   -3.9793032   -0.3680584 
H     5.1956820    0.9609719    3.2145047 
H    -1.6598042    4.9695727    0.5212435 
H    -6.2885889   -2.1260871    1.4762358 
H     1.7624203   -5.8948480    1.7397248 
H     1.8216984    3.3934307    1.9865516 
H    -5.0886646    3.1471248    2.4532945 
H    -3.4478166   -3.7506107   -1.3705280 
H     3.9861607   -6.0799736    0.5781089 
H     4.1303319    3.2406400    2.9800367 
H    -3.8966745    5.2170974    1.6703008 
H    -5.7089116   -3.8561415   -0.2713944 
