77
Energy =
C    -0.9481389    0.5789636   -2.4528882 
C     0.3481574    1.1578737   -2.3743877 
C     1.5127976    0.3356309   -2.3118521 
H     0.4487019    2.2284597   -2.1569637 
Pd    0.1067845   -0.1408914   -0.6430116 
P     1.3700257   -0.9249889    1.1248185 
P    -1.7034305   -0.2846838    0.7968860 
H    -1.0266871   -0.4202480   -2.9095198 
H     1.4754289   -0.6351441   -2.8296218 
C    -4.7279574    2.6037110   -2.0538124 
C    -3.5346292    3.3240375   -1.8815909 
C    -2.2971721    2.6857276   -2.0102409 
C    -2.2254171    1.3104915   -2.3309602 
C    -3.4349256    0.5990423   -2.5057973 
C    -4.6726911    1.2365808   -2.3625488 
H    -5.6946574    3.1068821   -1.9490253 
H    -3.5686263    4.3909030   -1.6385803 
H    -1.3814414    3.2641851   -1.8556355 
H    -3.3984393   -0.4687530   -2.7495343 
H    -5.5964496    0.6647646   -2.4987958 
C     5.4617956    1.9406156   -1.7029578 
C     4.3586996    2.5379670   -1.0693465 
C     3.0763343    2.0083996   -1.2385981 
C     2.8647030    0.8745797   -2.0596453 
C     3.9869377    0.2637587   -2.6622020 
C     5.2722900    0.7961474   -2.4911512 
H     6.4647485    2.3600536   -1.5727267 
H     4.5029021    3.4152598   -0.4303815 
H     2.2287246    2.4614926   -0.7117617 
H     3.8434079   -0.6209748   -3.2930995 
H     6.1268657    0.3199152   -2.9834399 
N     0.4640151   -3.3760338    0.5218008 
N     3.1105515    0.6983126    2.4004312 
N    -1.1876415    2.2392819    1.2962937 
N    -4.3694877   -1.0319131    0.6612431 
C     0.3770818   -0.5456646    2.6573983 
C    -1.0874698   -0.9577796    2.4357220 
C     1.5047569   -2.7678454    1.1313078 
C     3.0479707   -0.2647569    1.4640597 
C    -2.2620146    1.4280266    1.1821944 
C    -3.1161442   -1.3672940    0.3126551 
C     2.5462347   -3.4770195    1.7568207 
C     4.1568861   -0.6849257    0.7034442 
C    -3.5862161    1.8647862    1.3401687 
C    -2.8020570   -2.5192265   -0.4363516 
C     2.5066771   -4.8785588    1.7314602 
C     5.3962208   -0.0891216    0.9634715 
C    -3.7942736    3.2245944    1.6143445 
C    -3.8536319   -3.3513157   -0.8414725 
C     0.4306265   -4.7183490    0.5185619 
C     4.3039485    1.2674731    2.6333159 
C    -1.4036879    3.5331093    1.5759873 
C    -5.3701436   -1.8322623    0.2588117 
C     1.4300095   -5.5142114    1.0999274 
C     5.4743552    0.9048726    1.9484375 
C    -2.6894581    4.0758840    1.7347479 
C    -5.1653479   -2.9986709   -0.4945281 
H     0.8204469   -1.0589921    3.5281236 
H     0.4835250    0.5429516    2.8055156 
H    -1.1877175   -2.0556129    2.3653011 
H    -1.7398025   -0.6012553    3.2511253 
H     3.3649943   -2.9462552    2.2524966 
H     4.0507169   -1.4507404   -0.0712964 
H    -4.4061481    1.1489046    1.2411326 
H    -1.7558562   -2.7443975   -0.6744898 
H     3.3029715   -5.4634224    2.2035628 
H     6.2820694   -0.3855137    0.3938369 
H    -4.8122311    3.6111295    1.7306131 
H    -3.6541274   -4.2557273   -1.4260073 
H    -0.4339521   -5.1800035    0.0240311 
H     4.3253542    2.0480445    3.4045975 
H    -0.5108819    4.1641578    1.6715077 
H    -6.3820692   -1.5263337    0.5531093 
H     1.3612133   -6.6055472    1.0574325 
H     6.4230491    1.3995401    2.1783892 
H    -2.8144036    5.1421884    1.9480388 
H    -6.0175532   -3.6142658   -0.7989011 
