77
Energy =
C    -1.3571209   -2.2530579   -0.9098944 
C     0.0324916   -2.3758947   -1.2103542 
C     0.9936115   -2.4967594   -0.1693915 
H     0.3688763   -2.1725524   -2.2345975 
Pd   -0.1792548   -0.6345446    0.0805955 
P     1.4874189    0.7315752    0.9340244 
P    -1.5725331    1.1932574    0.3123464 
H    -1.7245117   -2.7555392   -0.0018818 
H     0.6547713   -2.9409679    0.7797665 
C    -4.3370444   -1.5066364   -3.9272662 
C    -4.6445833   -2.2813338   -2.7993715 
C    -3.6771293   -2.4975482   -1.8083363 
C    -2.3790663   -1.9544408   -1.9336921 
C    -2.0945140   -1.1457588   -3.0604081 
C    -3.0603826   -0.9315438   -4.0476722 
H    -5.0905079   -1.3413202   -4.7043435 
H    -5.6390043   -2.7278265   -2.6936783 
H    -3.9185122   -3.1179825   -0.9376024 
H    -1.1139917   -0.6639724   -3.1473481 
H    -2.8221413   -0.3029281   -4.9118309 
C     5.2777611   -2.2716897   -0.5446373 
C     4.6776669   -2.5667877    0.6883075 
C     3.2842255   -2.6539164    0.7874551 
C     2.4593702   -2.4354467   -0.3401794 
C     3.0783360   -2.1292765   -1.5740800 
C     4.4711515   -2.0566973   -1.6741568 
H     6.3678145   -2.2103837   -0.6268409 
H     5.2964441   -2.7359871    1.5756135 
H     2.8213832   -2.8870307    1.7530213 
H     2.4702140   -1.9409626   -2.4639139 
H     4.9313303   -1.8236591   -2.6397427 
N    -2.4708918    2.5097375   -1.8670367 
N    -1.7293587    0.5793598    2.9172639 
N     3.6339470    0.4988762    2.6720533 
N     2.0311777    1.2211588   -1.5858694 
C    -0.4465860    2.6792974    0.3646321 
C     0.7264408    2.4022996    1.3191785 
C    -2.8381311    1.5925960   -0.9546133 
C    -2.4215972    1.2242242    1.9530630 
C     2.3376893    0.2008617    2.4825853 
C     2.6921750    1.0752452   -0.4166567 
C    -4.0590220    0.8913083   -1.0032570 
C    -3.6316959    1.8975982    2.2002367 
C     1.5665991   -0.5278484    3.4104259 
C     4.0862822    1.1784991   -0.2936276 
C    -4.9506481    1.1943020   -2.0385473 
C    -4.1473999    1.8835182    3.5042246 
C     2.1884580   -0.9675477    4.5861372 
C     4.8251499    1.4302085   -1.4590621 
C    -3.3319630    2.7838158   -2.8599099 
C    -2.2263865    0.5872305    4.1645596 
C     4.2218763    0.0631031    3.7981870 
C     2.7514550    1.4788225   -2.6875218 
C    -4.5836443    2.1607403   -2.9848686 
C    -3.4339189    1.2152489    4.5074447 
C     3.5451554   -0.6740440    4.7823885 
C     4.1521376    1.5832703   -2.6770678 
H    -0.1094498    2.8192159   -0.6771031 
H    -1.0191988    3.5731677    0.6668780 
H     1.5007175    3.1855664    1.2525855 
H     0.3831414    2.3409892    2.3672440 
H    -4.3004495    0.1284832   -0.2564250 
H    -4.1553528    2.4207303    1.3940937 
H     0.5081430   -0.7242883    3.2027202 
H     4.5519739    1.0565830    0.6875519 
H    -5.9088881    0.6715122   -2.1129538 
H    -5.0897888    2.3924134    3.7321381 
H     1.6261769   -1.5376564    5.3333217 
H     5.9166949    1.5041636   -1.4112866 
H    -3.0066590    3.5380080   -3.5879047 
H    -1.6334559    0.0629685    4.9253054 
H     5.2829540    0.3157430    3.9185986 
H     2.1848544    1.6012362   -3.6194132 
H    -5.2497904    2.4231480   -3.8125063 
H    -3.8014413    1.1801688    5.5375915 
H     4.0733919   -1.0070896    5.6812163 
H     4.6965577    1.7806673   -3.6059042 
