77
Energy =
C    -1.2849087   -2.4129812    0.0334492 
C    -0.0184642   -2.5550854   -0.6038995 
C     1.1767964   -2.4745903    0.1668334 
H     0.0340168   -2.5421426   -1.7002668 
Pd   -0.0233744   -0.6053887    0.3689597 
P     1.6354360    0.9756314    0.7258123 
P    -1.5290020    1.1414648    0.5915387 
H    -1.3563554   -2.7416853    1.0818264 
H     1.0989803   -2.7537506    1.2292109 
C    -5.0812907   -2.0405156   -1.9653825 
C    -4.9801858   -2.7356057   -0.7510075 
C    -3.7396915   -2.8560334   -0.1089543 
C    -2.5734390   -2.3004891   -0.6803166 
C    -2.6879568   -1.6084007   -1.9093325 
C    -3.9286020   -1.4759675   -2.5409311 
H    -6.0512718   -1.9379362   -2.4626642 
H    -5.8714376   -3.1823926   -0.2979005 
H    -3.6698326   -3.3887831    0.8457145 
H    -1.8025880   -1.1326559   -2.3452088 
H    -4.0005887   -0.9219300   -3.4828587 
C     5.2250296   -2.4354681   -1.2890793 
C     4.1663042   -2.1862298   -2.1785754 
C     2.8446961   -2.1876005   -1.7234189 
C     2.5499382   -2.4543416   -0.3655359 
C     3.6262252   -2.6937655    0.5196506 
C     4.9496761   -2.6836938    0.0632437 
H     6.2586014   -2.4338884   -1.6501201 
H     4.3746238   -1.9834435   -3.2339092 
H     2.0354267   -1.9732325   -2.4287954 
H     3.4153309   -2.8948451    1.5759877 
H     5.7680936   -2.8783871    0.7641946 
N    -1.1248407    1.5891522   -2.0319388 
N    -2.9658383    1.3759651    2.8622302 
N     1.6476826    1.2098700    3.3457293 
N     4.1713553    0.9798562   -0.3709463 
C    -0.6111887    2.5591060    1.3709072 
C     0.8052383    2.6551875    0.7856280 
C    -2.0558472    1.7632956   -1.0692244 
C    -3.0576585    0.9427666    1.5919388 
C     2.4670547    0.8048694    2.3537834 
C     2.8631176    1.0875058   -0.6452067 
C    -3.2919288    2.3896715   -1.3103100 
C    -4.1861185    0.2741821    1.0771153 
C     3.7323043    0.2316364    2.5726682 
C     2.3501241    1.2491686   -1.9491421 
C    -3.5796737    2.8225574   -2.6123673 
C    -5.2740074    0.0672433    1.9351029 
C     4.1556141    0.0863968    3.9022232 
C     3.2631097    1.3484335   -3.0057084 
C    -1.4059322    2.0226710   -3.2713067 
C    -4.0156816    1.1711253    3.6724322 
C     2.0698631    1.0678308    4.6106095 
C     5.0345557    1.0517716   -1.3970051 
C    -2.6225164    2.6310304   -3.6166798 
C    -5.1914617    0.5241258    3.2573741 
C     3.3147026    0.5070663    4.9406082 
C     4.6333631    1.2507915   -2.7266436 
H    -1.1774646    3.4962989    1.2320103 
H    -0.5793716    2.3169872    2.4470654 
H     0.7851521    3.0149528   -0.2586625 
H     1.4348804    3.3403425    1.3780756 
H    -4.0135561    2.5344074   -0.5008208 
H    -4.2132174   -0.0734793    0.0398346 
H     4.3587801   -0.0499847    1.7238604 
H     1.2644964    1.2886068   -2.1087910 
H    -4.5365049    3.3058532   -2.8355359 
H    -6.1683689   -0.4497536    1.5721496 
H     5.1372731   -0.3471199    4.1211709 
H     2.9108985    1.4874378   -4.0334147 
H    -0.6234727    1.8712691   -4.0264898 
H    -3.9127427    1.5400222    4.7008761 
H     1.3830854    1.4143250    5.3931630 
H     6.0964010    0.9458507   -1.1423829 
H    -2.8074997    2.9508051   -4.6467272 
H    -6.0190280    0.3815355    3.9592262 
H     3.6137844    0.4078218    5.9887045 
H     5.3808974    1.3146786   -3.5234477 
