77
Energy =
C    -1.2626541   -2.3418699   -0.1847669 
C    -0.0271761   -2.5338594   -0.8690151 
C     1.2085211   -2.4613400   -0.1715933 
H    -0.0275485   -2.5496867   -1.9662597 
Pd    0.0623693   -0.5642901    0.0777292 
P     1.7226082    1.0160039    0.4212321 
P    -1.4020695    1.1976653    0.4762041 
H    -1.3046227   -2.6463401    0.8722604 
H     1.1868579   -2.6595160    0.9117032 
C    -5.0994339   -2.0947661   -2.1293373 
C    -3.9480471   -1.6414289   -2.7945729 
C    -2.6988263   -1.7067370   -2.1700804 
C    -2.5689942   -2.2447611   -0.8683365 
C    -3.7354819   -2.6987226   -0.2112041 
C    -4.9886295   -2.6214384   -0.8341269 
H    -6.0769525   -2.0384230   -2.6191868 
H    -4.0272620   -1.2210539   -3.8021537 
H    -1.8167233   -1.3105312   -2.6841557 
H    -3.6517014   -3.1357709    0.7908180 
H    -5.8790137   -2.9861362   -0.3111996 
C     5.1598483   -2.6440216   -1.8722094 
C     4.9728319   -2.3438898   -0.5134877 
C     3.6823139   -2.2949870    0.0224575 
C     2.5470530   -2.5339898   -0.7876287 
C     2.7506999   -2.8290404   -2.1545843 
C     4.0441320   -2.8884483   -2.6877434 
H     6.1697889   -2.6916159   -2.2919543 
H     5.8364014   -2.1492865    0.1305645 
H     3.5421524   -2.0566175    1.0834131 
H     1.8961360   -3.0385098   -2.8059635 
H     4.1820055   -3.1350772   -3.7457866 
N    -1.7573321    1.6378422   -2.1082326 
N    -2.3184366    2.1038380    2.8822507 
N     0.8845515    0.9672093    2.8949009 
N     4.4319284    1.3664101   -0.0004776 
C    -0.4409857    2.7869252    0.6548359 
C     0.9483799    2.6688965    0.0140285 
C    -2.4896112    1.4970640   -0.9832913 
C    -2.4957070    1.1430152    1.9614483 
C     2.0538081    1.1045194    2.2306364 
C     3.2739465    0.9874249   -0.5678997 
C    -3.8916493    1.5665646   -0.9604872 
C    -3.4244114    0.0943354    2.1081775 
C     3.2903416    1.2862489    2.8712570 
C     3.1664801    0.5783594   -1.9110364 
C    -4.5602549    1.7892947   -2.1727848 
C    -4.2114363    0.0637159    3.2663226 
C     3.2974166    1.3116601    4.2748299 
C     4.3225453    0.5847003   -2.6997188 
C    -2.4091980    1.8660318   -3.2582999 
C    -3.0724800    2.0609570    3.9926584 
C     0.9035897    1.0187571    4.2340876 
C     5.5363951    1.3583980   -0.7641781 
C    -3.8091115    1.9440210   -3.3440393 
C    -4.0322473    1.0648065    4.2314679 
C     2.0889729    1.1779360    4.9706577 
C     5.5324346    0.9826862   -2.1161534 
H    -1.0207137    3.6077567    0.2003656 
H    -0.3952990    2.9617057    1.7427498 
H     0.8741368    2.6857837   -1.0882220 
H     1.6210006    3.4822520    0.3378847 
H    -4.4468511    1.4536446   -0.0252786 
H    -3.5295565   -0.6700105    1.3310774 
H     4.1948609    1.4103095    2.2694123 
H     2.2011101    0.2524368   -2.3135732 
H    -5.6535713    1.8419004   -2.1979520 
H    -4.9492158   -0.7319307    3.4142912 
H     4.2400951    1.4426439    4.8166984 
H     4.2816860    0.2689525   -3.7466689 
H    -1.7859951    1.9866779   -4.1537082 
H    -2.9023609    2.8618058    4.7237692 
H    -0.0680743    0.9239334    4.7345352 
H     6.4668475    1.6683000   -0.2719344 
H    -4.2935045    2.1211699   -4.3092273 
H    -4.6229599    1.0768546    5.1527121 
H     2.0599031    1.1968021    6.0645833 
H     6.4619499    0.9958797   -2.6935099 
