77
Energy =
C    -1.4621698   -2.3038683   -0.2839310 
C    -0.1199573   -2.5184922   -0.7101658 
C     0.9347962   -2.5564079    0.2456845 
H     0.1263140   -2.4781309   -1.7791232 
Pd   -0.1466208   -0.6056959    0.3351580 
P     1.4639430    0.9170294    1.0160702 
P    -1.6203608    1.1854073    0.3553033 
H    -1.7130199   -2.6209298    0.7402747 
H     0.6802042   -2.9082491    1.2574045 
C    -4.9034554   -1.7777980   -2.8122333 
C    -3.6184643   -1.5481421   -3.3320623 
C    -2.4898228   -1.7043087   -2.5224852 
C    -2.6203267   -2.1104417   -1.1735146 
C    -3.9199444   -2.3303205   -0.6621639 
C    -5.0499022   -2.1645968   -1.4722345 
H    -5.7848374   -1.6538608   -3.4497187 
H    -3.4978215   -1.2368582   -4.3745089 
H    -1.4983375   -1.4980779   -2.9386661 
H    -4.0379532   -2.6447959    0.3809551 
H    -6.0472268   -2.3476847   -1.0590042 
C     5.1427000   -2.6782447   -0.6621584 
C     4.2677301   -1.9573568   -1.4949048 
C     2.8970684   -1.9260438   -1.2188858 
C     2.3709713   -2.6073849   -0.0956603 
C     3.2613222   -3.3209536    0.7371706 
C     4.6328802   -3.3642850    0.4503048 
H     6.2150637   -2.7036418   -0.8814155 
H     4.6588459   -1.4102106   -2.3591838 
H     2.2286813   -1.3332070   -1.8528815 
H     2.8713682   -3.8481363    1.6147068 
H     5.3059531   -3.9317929    1.1015889 
N    -3.8182713    1.4702469   -1.2766947 
N    -2.3791823    1.6822430    2.8529498 
N     2.2783041    0.9253362    3.5838715 
N     1.7754597    1.4560049   -1.5987459 
C    -0.6240042    2.7344956    0.6815956 
C     0.5728602    2.4426706    1.5971409 
C    -2.4780883    1.4807684   -1.2497716 
C    -2.8530327    1.1360853    1.7169723 
C     2.6459801    0.5027240    2.3605034 
C     2.4647653    1.4718315   -0.4371135 
C    -1.6748587    1.6695582   -2.3932553 
C    -4.1060761    0.5031377    1.6193694 
C     3.7785204   -0.3010380    2.1230926 
C     3.8018249    1.8989018   -0.3509159 
C    -2.3184849    1.9129860   -3.6124685 
C    -4.9016594    0.4585277    2.7724175 
C     4.5692181   -0.6616621    3.2219740 
C     4.4553069    2.2915732   -1.5276004 
C    -4.4224998    1.6780648   -2.4574154 
C    -3.1525086    1.6301192    3.9485234 
C     3.0454443    0.5729950    4.6267669 
C     2.4074433    1.8507417   -2.7156748 
C    -3.7199184    1.9220642   -3.6473860 
C    -4.4207455    1.0285910    3.9590906 
C     4.2001194   -0.2168390    4.4984707 
C     3.7493640    2.2615684   -2.7367285 
H    -0.2953767    3.0970057   -0.3083603 
H    -1.2905664    3.4883235    1.1329492 
H     1.2748105    3.2933337    1.6411803 
H     0.2372954    2.2078892    2.6219998 
H    -0.5819363    1.6161048   -2.3103162 
H    -4.4467479    0.0961836    0.6652836 
H     4.0338392   -0.6348942    1.1127920 
H     4.3215434    1.9225374    0.6114114 
H    -1.7358991    2.0814158   -4.5244851 
H    -5.8894188   -0.0134563    2.7410404 
H     5.4563673   -1.2869327    3.0775630 
H     5.4996122    2.6193160   -1.4969190 
H    -5.5192118    1.6491613   -2.4501072 
H    -2.7396324    2.0889987    4.8556964 
H     2.7223866    0.9372559    5.6102638 
H     1.8149229    1.8319949   -3.6397661 
H    -4.2628261    2.1011938   -4.5806305 
H    -5.0150888    1.0114128    4.8779360 
H     4.7906892   -0.4771911    5.3823096 
H     4.2223363    2.5561308   -3.6785288 
