77
Energy =
C    -1.2351741   -2.6849268    0.0439493 
C    -0.0874785   -2.5735750   -0.7790101 
C     1.2100208   -2.4549845   -0.1908779 
H    -0.2135646   -2.4035922   -1.8560258 
Pd   -0.0923518   -0.7745272    0.4420009 
P     1.4784983    0.8657554    0.9449394 
P    -1.6425172    0.9465933    0.7537731 
H    -1.0897599   -3.1167071    1.0468071 
H     1.3573936   -2.9565058    0.7778533 
C    -5.3184632   -2.7139663   -1.3074470 
C    -4.3674183   -1.9223678   -1.9747474 
C    -3.0341254   -1.9150891   -1.5543439 
C    -2.6258419   -2.7001944   -0.4516860 
C    -3.5898186   -3.4911109    0.2131378 
C    -4.9246434   -3.5009316   -0.2150505 
H    -6.3623525   -2.7142902   -1.6375755 
H    -4.6723431   -1.2976588   -2.8209143 
H    -2.3063174   -1.2599686   -2.0452291 
H    -3.2871149   -4.1047861    1.0692961 
H    -5.6581286   -4.1254084    0.3057601 
C     4.7980032   -1.9370439   -2.5094703 
C     4.8413780   -2.5842407   -1.2663293 
C     3.6729501   -2.7222931   -0.5047588 
C     2.4388474   -2.2226993   -0.9760371 
C     2.4185108   -1.5330026   -2.2117980 
C     3.5833896   -1.4034000   -2.9729945 
H     5.7076118   -1.8372895   -3.1105995 
H     5.7852741   -2.9947540   -0.8925825 
H     3.7086527   -3.2485988    0.4562662 
H     1.4852542   -1.0796685   -2.5637754 
H     3.5492049   -0.8724843   -3.9297717 
N    -1.0892491    1.0045588   -1.8933022 
N    -3.8722959    2.1914943    1.6610595 
N     2.8623396    1.7404906    3.1115431 
N     2.3341301    1.9314504   -1.3609799 
C    -0.7986290    2.3108437    1.7078975 
C     0.6203624    2.5015759    1.1597156 
C    -1.7724071    1.6798077   -0.9481723 
C    -3.3701773    0.9672504    1.4119702 
C     2.4102688    0.6184443    2.5252247 
C     2.7859984    1.2427132   -0.2983450 
C    -2.4691879    2.8745106   -1.2031744 
C    -4.0920880   -0.2209739    1.6039423 
C     2.6425138   -0.6692942    3.0385553 
C     4.1180310    0.8190532   -0.1540942 
C    -2.4384217    3.3908054   -2.5060132 
C    -5.4098066   -0.1236093    2.0738562 
C     3.3970673   -0.7882107    4.2151006 
C     5.0233450    1.1494730   -1.1704278 
C    -1.0603696    1.5143156   -3.1349840 
C    -5.1318632    2.2728959    2.1176153 
C     3.5767313    1.6185951    4.2403916 
C     3.2120459    2.2449345   -2.3251108 
C    -1.7152591    2.7031458   -3.4903488 
C    -5.9402524    1.1449404    2.3385281 
C     3.8751389    0.3769696    4.8277324 
C     4.5668007    1.8795801   -2.2750961 
H    -1.4044779    3.2297813    1.6359035 
H    -0.7893652    1.9967714    2.7677233 
H     0.6131300    2.9490743    0.1499367 
H     1.2529126    3.1147895    1.8249580 
H    -3.0206576    3.3714776   -0.3980715 
H    -3.6423794   -1.1906115    1.3768382 
H     2.2398181   -1.5480092    2.5255907 
H     4.4376332    0.2515917    0.7242123 
H    -2.9685713    4.3181675   -2.7470476 
H    -6.0082420   -1.0276435    2.2265533 
H     3.6026013   -1.7729185    4.6475628 
H     6.0697479    0.8364969   -1.1000283 
H    -0.4885823    0.9443491   -3.8783707 
H    -5.5130829    3.2830085    2.3140955 
H     3.9274483    2.5529616    4.6967514 
H     2.8152514    2.8147341   -3.1752691 
H    -1.6614926    3.0766025   -4.5177819 
H    -6.9627775    1.2662790    2.7094222 
H     4.4645364    0.3312685    5.7487945 
H     5.2442071    2.1597855   -3.0876159 
