77
Energy =
C    -1.2111964   -2.6960930    0.0427891 
C    -0.0674294   -2.5729050   -0.7840121 
C     1.2311125   -2.4439307   -0.2003860 
H    -0.1989612   -2.4015100   -1.8601503 
Pd   -0.0840152   -0.7769075    0.4413772 
P     1.4739243    0.8765522    0.9416285 
P    -1.6483867    0.9292161    0.7627816 
H    -1.0585640   -3.1292641    1.0439730 
H     1.3867766   -2.9460768    0.7667314 
C    -5.2988351   -2.7558500   -1.2945885 
C    -4.3568602   -1.9541612   -1.9626933 
C    -3.0222195   -1.9369049   -1.5469003 
C    -2.6034765   -2.7217737   -0.4480137 
C    -3.5583984   -3.5228489    0.2176807 
C    -4.8945436   -3.5428069   -0.2060282 
H    -6.3438303   -2.7640067   -1.6211023 
H    -4.6699865   -1.3294943   -2.8058985 
H    -2.3016713   -1.2742935   -2.0384537 
H    -3.2475455   -4.1365493    1.0709074 
H    -5.6208513   -4.1752291    0.3152608 
C     4.8057817   -1.8886742   -2.5309027 
C     4.8596960   -2.5370441   -1.2887729 
C     3.6953538   -2.6871531   -0.5232429 
C     2.4548754   -2.1987901   -0.9895554 
C     2.4236337   -1.5076634   -2.2242876 
C     3.5845398   -1.3659310   -2.9893957 
H     5.7122606   -1.7795479   -3.1351291 
H     5.8087674   -2.9390744   -0.9189198 
H     3.7394965   -3.2140793    0.4370843 
H     1.4848556   -1.0628542   -2.5724026 
H     3.5419265   -0.8340469   -3.9452952 
N    -1.1039832    0.9982690   -1.8857209 
N    -3.8888750    2.1513284    1.6748027 
N     2.8709720    1.7593306    3.0958193 
N     2.3087221    1.9554336   -1.3657773 
C    -0.8136090    2.2986765    1.7176130 
C     0.6014934    2.5039141    1.1645855 
C    -1.7899882    1.6654982   -0.9369680 
C    -3.3738661    0.9322477    1.4267443 
C     2.4156565    0.6347466    2.5168480 
C     2.7719873    1.2688885   -0.3066149 
C    -2.4977937    2.8547361   -1.1871028 
C    -4.0814508   -0.2636181    1.6243992 
C     2.6514153   -0.6508464    3.0337989 
C     4.1086145    0.8575124   -0.1694190 
C    -2.4753930    3.3742384   -2.4888479 
C    -5.3986558   -0.1800707    2.0984057 
C     3.4129409   -0.7647963    4.2063946 
C     5.0059964    1.1983879   -1.1893205 
C    -1.0834581    1.5109306   -3.1263670 
C    -5.1475707    2.2195284    2.1358876 
C     3.5924132    1.6421633    4.2206509 
C     3.1790171    2.2786398   -2.3335907 
C    -1.7495078    2.6949569   -3.4769891 
C    -5.9424956    1.0830336    2.3618965 
C     3.8945850    0.4029450    4.8112434 
C     4.5373721    1.9259570   -2.2906109 
H    -1.4282271    3.2121494    1.6500876 
H    -0.7975545    1.9819091    2.7765472 
H     0.5860354    2.9541414    0.1561025 
H     1.2312625    3.1212603    1.8286530 
H    -3.0510124    3.3450165   -0.3791206 
H    -3.6213568   -1.2286323    1.3983911 
H     2.2459598   -1.5317180    2.5267108 
H     4.4375955    0.2914249    0.7062999 
H    -3.0141340    4.2976215   -2.7260881 
H    -5.9864049   -1.0904100    2.2551042 
H     3.6212701   -1.7476912    4.6416361 
H     6.0556617    0.8953149   -1.1243270 
H    -0.5093703    0.9473898   -3.8728718 
H    -5.5393701    3.2256864    2.3318412 
H     3.9454762    2.5784394    4.6712593 
H     2.7728260    2.8459866   -3.1809524 
H    -1.7022358    3.0710860   -4.5037702 
H    -6.9651881    1.1936984    2.7356654 
H     4.4897184    0.3610780    5.7287974 
H     5.2082800    2.2139133   -3.1058091 
