77
Energy =
C    -1.2616277   -2.3296360   -0.7095953 
C     0.0827030   -2.3740260   -1.1680276 
C     1.1660714   -2.4263021   -0.2401913 
H     0.2916984   -2.1784469   -2.2269888 
Pd   -0.0766647   -0.6210211    0.1227410 
P     1.4415002    0.8465331    1.0792870 
P    -1.5901527    1.1279042    0.2558762 
H    -1.4661090   -2.7804892    0.2746927 
H     0.9768367   -2.9384532    0.7157514 
C    -4.7699895   -1.8826511   -3.1627460 
C    -4.8595050   -2.4423172   -1.8802583 
C    -3.7095324   -2.5733136   -1.0908970 
C    -2.4483356   -2.1451861   -1.5652231 
C    -2.3789964   -1.5591973   -2.8507143 
C    -3.5251185   -1.4409794   -3.6417693 
H    -5.6647691   -1.7874614   -3.7863953 
H    -5.8243502   -2.7920676   -1.4984355 
H    -3.7801678   -3.0400903   -0.1010960 
H    -1.4245398   -1.1783703   -3.2277249 
H    -3.4505969   -0.9912055   -4.6368940 
C     5.3365416   -2.0984864   -1.2699863 
C     4.9439509   -2.6436283   -0.0387475 
C     3.5846891   -2.7405367    0.2854330 
C     2.5892917   -2.2910207   -0.6113587 
C     3.0025046   -1.7156447   -1.8362162 
C     4.3587531   -1.6327095   -2.1645093 
H     6.3979810   -2.0320536   -1.5301500 
H     5.6979212   -3.0080225    0.6668886 
H     3.2855577   -3.1860869    1.2409418 
H     2.2588728   -1.3161249   -2.5333782 
H     4.6566620   -1.1902572   -3.1204132 
N    -1.9479266    1.8109332   -2.2869017 
N    -2.6133284    2.1186276    2.5764684 
N     3.0067390    1.4472997    3.1908841 
N     2.2574861    1.8381690   -1.2388555 
C    -0.5891170    2.6771552    0.4464740 
C     0.5537356    2.4492732    1.4458941 
C    -2.6645164    1.4483325   -1.2066322 
C    -2.6960636    1.0758133    1.7324489 
C     2.3032837    0.4324805    2.6535510 
C     2.7656183    1.3067017   -0.1102083 
C    -4.0631956    1.3152311   -1.2116843 
C    -3.5327893   -0.0357095    1.9552631 
C     2.2083794   -0.8419701    3.2361230 
C     4.1362656    1.0952507    0.1046174 
C    -4.7430174    1.5902223   -2.4060940 
C    -4.3450341   -0.0349582    3.0964560 
C     2.8912869   -1.0710776    4.4401407 
C     5.0209573    1.4682209   -0.9164893 
C    -2.6121048    2.0851457   -3.4187820 
C    -3.3850887    2.1015825    3.6760572 
C     3.6529072    1.2185670    4.3443470 
C     3.1164357    2.1988351   -2.2038705 
C    -4.0090415    1.9901633   -3.5293107 
C    -4.2713424    1.0550952    3.9755186 
C     3.6284873   -0.0226931    5.0044180 
C     4.5066632    2.0324071   -2.0904410 
H    -0.2051751    2.8852848   -0.5674366 
H    -1.2539949    3.4907205    0.7813185 
H     1.2850507    3.2738319    1.4372120 
H     0.1555604    2.3540108    2.4719706 
H    -4.6078554    1.0161174   -0.3121006 
H    -3.5473156   -0.8699332    1.2451918 
H     1.6116045   -1.6243547    2.7578100 
H     4.5011440    0.6533734    1.0346702 
H    -5.8325076    1.4946264   -2.4540766 
H    -5.0189941   -0.8735707    3.3006490 
H     2.8455227   -2.0497335    4.9291221 
H     6.0979564    1.3137481   -0.7953206 
H    -2.0007391    2.3900282   -4.2777672 
H    -3.2905420    2.9648103    4.3470138 
H     4.2161109    2.0632559    4.7613352 
H     2.6738650    2.6366810   -3.1075781 
H    -4.5046909    2.2202079   -4.4774580 
H    -4.8835833    1.0936435    4.8818332 
H     4.1751559   -0.1572409    5.9430181 
H     5.1666682    2.3367429   -2.9086941 
