77
Energy =
C    -1.2442328   -2.3454677   -0.4046801 
C     0.0743516   -2.5801985   -0.8854397 
C     1.1852811   -2.4428124    0.0001093 
H     0.2527562   -2.7010873   -1.9616784 
Pd    0.0259930   -0.5415096   -0.1193140 
P     1.5191058    1.0971695    0.5578059 
P    -1.4238865    1.2384890   -0.3547098 
H    -1.4058903   -2.5038457    0.6736421 
H     1.0047156   -2.6583437    1.0643426 
C    -4.8835234   -2.4318990   -2.6986670 
C    -3.6610460   -2.1817204   -3.3448369 
C    -2.4706327   -2.1304456   -2.6142327 
C    -2.4740848   -2.3469156   -1.2165811 
C    -3.7136269   -2.5793275   -0.5769587 
C    -4.9066459   -2.6230722   -1.3097805 
H    -5.8126239   -2.4725816   -3.2763971 
H    -3.6385508   -2.0168886   -4.4268112 
H    -1.5316338   -1.9059833   -3.1303434 
H    -3.7334766   -2.7547788    0.5054333 
H    -5.8539856   -2.8188331   -0.7966177 
C     5.2884188   -2.7970538   -1.2533084 
C     4.3495318   -2.1861119   -2.1020911 
C     3.0188076   -2.0471162   -1.6973951 
C     2.5939785   -2.5237775   -0.4343935 
C     3.5555455   -3.1055671    0.4220262 
C     4.8880652   -3.2494540    0.0123768 
H     6.3288445   -2.9099227   -1.5751037 
H     4.6605679   -1.8087291   -3.0816245 
H     2.3011753   -1.5434328   -2.3548976 
H     3.2458718   -3.4711107    1.4078336 
H     5.6141755   -3.7217858    0.6825150 
N    -2.1812515    1.2932997   -2.8952556 
N    -1.8779350    2.8060617    1.8138312 
N     0.4679385    0.3933751    2.9264513 
N     3.5737386    1.7641251   -1.0512482 
C    -0.3979531    2.7242816   -0.7741838 
C     0.8957181    2.7939037    0.0558791 
C    -2.7181012    1.2089470   -1.6631114 
C    -2.2195845    1.6296861    1.2606532 
C     1.4812014    1.1141259    2.4045537 
C     3.2878942    1.0653945    0.0610666 
C    -4.0965935    1.0837818   -1.4238598 
C    -3.0317557    0.6770904    1.9069186 
C     2.3730546    1.8694910    3.1875766 
C     4.2262812    0.2664233    0.7412769 
C    -4.9537666    1.0609806   -2.5325132 
C    -3.5329450    0.9863591    3.1764788 
C     2.1927091    1.8761882    4.5778083 
C     5.5323531    0.2177461    0.2391483 
C    -3.0138780    1.2870172   -3.9460259 
C    -2.3509404    3.0850059    3.0402043 
C     0.2999943    0.4148852    4.2581706 
C     4.8283558    1.7063959   -1.5242017 
C    -4.4075585    1.1724501   -3.8168511 
C    -3.1842047    2.2142814    3.7583305 
C     1.1337076    1.1390949    5.1249488 
C     5.8421897    0.9504626   -0.9142902 
H    -0.1891122    2.5992829   -1.8510506 
H    -1.0107126    3.6291108   -0.6283626 
H     1.7119437    3.2625873   -0.5198950 
H     0.7216695    3.3562193    0.9873716 
H    -4.4915163    1.0179426   -0.4064718 
H    -3.2512899   -0.2827528    1.4264301 
H     3.1845018    2.4372048    2.7203250 
H     3.9419948   -0.3012842    1.6322425 
H    -6.0345994    0.9601206   -2.3910335 
H    -4.1761471    0.2776861    3.7088115 
H     2.8662413    2.4509814    5.2220775 
H     6.2919840   -0.3932307    0.7360653 
H    -2.5467395    1.3704567   -4.9355737 
H    -2.0488896    4.0498212    3.4671719 
H    -0.5385341   -0.1755904    4.6483569 
H     5.0320878    2.2909778   -2.4302815 
H    -5.0453801    1.1652052   -4.7059962 
H    -3.5463294    2.4926043    4.7529416 
H     0.9566169    1.1201578    6.2048257 
H     6.8501961    0.9357585   -1.3399332 
