77
Energy =
C    -1.2862397   -2.2794813   -0.3797428 
C     0.0670420   -2.4563675   -0.7879391 
C     1.1218764   -2.3751602    0.1664607 
H     0.3066436   -2.4575228   -1.8582727 
Pd   -0.0689204   -0.4963538    0.1788119 
P     1.4277016    1.0794619    0.9500059 
P    -1.6551998    1.1794488    0.2503576 
H    -1.5333666   -2.5561973    0.6569278 
H     0.8737460   -2.6368572    1.2069895 
C    -4.7390468   -1.9273152   -2.9231993 
C    -3.4577436   -1.7135339   -3.4596832 
C    -2.3251417   -1.8155051   -2.6472099 
C    -2.4475557   -2.1488679   -1.2773939 
C    -3.7441567   -2.3397025   -0.7472671 
C    -4.8777475   -2.2323171   -1.5617254 
H    -5.6232942   -1.8501719   -3.5641746 
H    -3.3432581   -1.4602860   -4.5185972 
H    -1.3371391   -1.6262410   -3.0798643 
H    -3.8573957   -2.5831037    0.3152224 
H    -5.8722457   -2.3940336   -1.1331306 
C     5.3600162   -2.3118604   -0.6022425 
C     4.4599826   -2.2285574   -1.6776034 
C     3.0798114   -2.2424443   -1.4488214 
C     2.5656747   -2.3604200   -0.1360869 
C     3.4844764   -2.4435995    0.9365301 
C     4.8648369   -2.4146427    0.7071065 
H     6.4394651   -2.2997282   -0.7845138 
H     4.8368074   -2.1472555   -2.7025207 
H     2.3984138   -2.1612184   -2.3016746 
H     3.1055446   -2.5258769    1.9616508 
H     5.5563825   -2.4777096    1.5535189 
N    -3.8771999    1.2822689   -1.3885955 
N    -2.0987316    0.9311086    2.8230951 
N     3.7616501    0.6989055    2.3659212 
N     1.9459798    2.6144034   -1.1586554 
C    -0.7800206    2.7908833    0.6250958 
C     0.4565017    2.5709536    1.5088436 
C    -2.5496507    1.4709604   -1.3318482 
C    -2.7944805    0.8986149    1.6638618 
C     2.4290188    0.5573303    2.4054357 
C     2.5248033    1.6617567   -0.3975466 
C    -1.7676627    1.8136129   -2.4555450 
C    -4.1654482    0.6004902    1.5876030 
C     1.7374348   -0.0182342    3.4918780 
C     3.7703890    1.0800873   -0.6925395 
C    -2.4178131    1.9998922   -3.6807570 
C    -4.8409243    0.3373607    2.7893806 
C     2.4859756   -0.4542623    4.5915578 
C     4.4514591    1.5406672   -1.8272094 
C    -4.4864419    1.4465139   -2.5738947 
C    -2.7641918    0.6881735    3.9622838 
C     4.4700679    0.2670845    3.4228671 
C     2.6162146    3.0490549   -2.2376096 
C    -3.8057967    1.8138806   -3.7436801 
C    -4.1347575    0.3824179    3.9979115 
C     3.8817148   -0.3135279    4.5565871 
C     3.8718521    2.5453489   -2.6129550 
H    -0.4669240    3.1971794   -0.3510377 
H    -1.4955244    3.4883238    1.0934209 
H     1.1170074    3.4547479    1.5008571 
H     0.1530298    2.3472133    2.5452643 
H    -0.6808956    1.9297807   -2.3653577 
H    -4.6599756    0.5982293    0.6125706 
H     0.6449318   -0.1145437    3.4639617 
H     4.1941197    0.3104849   -0.0444623 
H    -1.8486183    2.2777062   -4.5739337 
H    -5.9109151    0.1039840    2.7777897 
H     1.9908760   -0.9029592    5.4591070 
H     5.4250987    1.1142917   -2.0900640 
H    -5.5696135    1.2745679   -2.5863102 
H    -2.1759925    0.7342638    4.8878871 
H     5.5585518    0.3906595    3.3572043 
H     2.1263237    3.8328471   -2.8295527 
H    -4.3532400    1.9420585   -4.6824892 
H    -4.6301016    0.1841624    4.9534290 
H     4.5051243   -0.6479883    5.3916213 
H     4.3768256    2.9326650   -3.5033102 
