77
Energy =
C    -1.2388506   -2.4411382   -0.1543229 
C    -0.0229958   -2.4674115   -0.8909796 
C     1.2297422   -2.4192825   -0.2087951 
H    -0.0491855   -2.3430214   -1.9812781 
Pd   -0.0003354   -0.6253036    0.2671952 
P     1.5574445    0.9994163    0.8073025 
P    -1.5754390    1.0489852    0.5813411 
H    -1.2099927   -2.8436423    0.8702380 
H     1.2585111   -2.8579898    0.8009043 
C    -5.2039371   -2.1640873   -1.8100868 
C    -4.1185709   -1.5910997   -2.4976963 
C    -2.8243478   -1.6823847   -1.9761590 
C    -2.5870365   -2.3411593   -0.7465369 
C    -3.6878342   -2.8992344   -0.0585253 
C    -4.9819775   -2.8217185   -0.5911867 
H    -6.2150895   -2.0970055   -2.2245808 
H    -4.2845253   -1.0673687   -3.4450689 
H    -1.9920465   -1.2083320   -2.5051390 
H    -3.5230742   -3.4048226    0.8993344 
H    -5.8197337   -3.2726765   -0.0489800 
C     5.0582104   -2.1824084   -2.1635075 
C     4.9358663   -2.7921947   -0.9068847 
C     3.6875415   -2.8484851   -0.2720657 
C     2.5374889   -2.2996941   -0.8827486 
C     2.6836584   -1.6562358   -2.1347930 
C     3.9274996   -1.6093554   -2.7702732 
H     6.0305262   -2.1447667   -2.6653659 
H     5.8117826   -3.2380578   -0.4239910 
H     3.5933527   -3.3515023    0.6977543 
H     1.8188658   -1.1714278   -2.6004680 
H     4.0210109   -1.1109382   -3.7403908 
N    -1.2280929    1.3233093   -2.0651667 
N    -2.9819990    1.0863230    2.8725145 
N     2.1302779    1.8639142    3.3263516 
N     2.6765304    1.8630234   -1.4576818 
C    -0.7232971    2.5011300    1.3799400 
C     0.7017092    2.6446434    0.8278369 
C    -2.0883306    1.6612886   -1.0837959 
C    -3.1055989    0.7944985    1.5638711 
C     2.2331475    0.7978387    2.5159225 
C     3.0044258    1.2474396   -0.3072416 
C    -3.2305371    2.4535622   -1.2999300 
C    -4.2638003    0.2278681    0.9985126 
C     2.7856980   -0.4323901    2.9221780 
C     4.3023960    0.7985032   -0.0090610 
C    -3.4920257    2.8976124   -2.6037298 
C    -5.3514452   -0.0226407    1.8460106 
C     3.2819539   -0.5363762    4.2281460 
C     5.3064092    1.0178915   -0.9611341 
C    -1.4783124    1.7709867   -3.3052802 
C    -4.0318044    0.8423263    3.6711103 
C     2.5940193    1.7490756    4.5815401 
C     3.6492920    2.0757087   -2.3559018 
C    -2.6001396    2.5513470   -3.6275349 
C    -5.2385174    0.2923568    3.2063355 
C     3.1843380    0.5755204    5.0764395 
C     4.9792211    1.6724601   -2.1550123 
H    -1.3185593    3.4163306    1.2169578 
H    -0.7257052    2.2815072    2.4624513 
H     0.7160269    2.9799999   -0.2242519 
H     1.2990365    3.3336837    1.4479154 
H    -3.8984290    2.7135857   -0.4723479 
H    -4.3127423   -0.0125900   -0.0682818 
H     2.8265510   -1.2781911    2.2275737 
H     4.5259099    0.2983393    0.9368854 
H    -4.3755515    3.5093414   -2.8140222 
H    -6.2691839   -0.4643592    1.4443062 
H     3.7288793   -1.4717086    4.5809038 
H     6.3295201    0.6789650   -0.7704972 
H    -0.7516775    1.4864166   -4.0768735 
H    -3.9037899    1.0959118    4.7311910 
H     2.4887740    2.6355531    5.2197171 
H     3.3527863    2.5903644   -3.2789201 
H    -2.7662387    2.8802730   -4.6580898 
H    -6.0653907    0.1128841    3.9004848 
H     3.5513755    0.5353661    6.1066644 
H     5.7363623    1.8654493   -2.9212516 
