77
Energy =
C    -1.6341366   -2.1150649   -0.4966032 
C    -0.3152260   -2.6612644   -0.4903541 
C     0.4901074   -2.5497079    0.6770924 
H     0.1279691   -3.0128355   -1.4308384 
Pd   -0.1244741   -0.5371998   -0.0460850 
P     1.6510814    0.8392921    0.4847733 
P    -1.1831347    1.4551459   -0.5808825 
H    -2.1691925   -2.0908454    0.4650840 
H    -0.0475984   -2.4583971    1.6344006 
C    -4.1558016   -2.0492178   -3.9851809 
C    -2.7725303   -1.8400965   -4.1193050 
C    -1.9472537   -1.8382043   -2.9910968 
C    -2.4866082   -2.0539077   -1.7005565 
C    -3.8831849   -2.2294165   -1.5771354 
C    -4.7085426   -2.2362476   -2.7098343 
H    -4.7993479   -2.0561160   -4.8709679 
H    -2.3377340   -1.6691205   -5.1094354 
H    -0.8743058   -1.6452005   -3.1035718 
H    -4.3191437   -2.3880996   -0.5841153 
H    -5.7862488   -2.3942135   -2.5955265 
C     4.5678667   -3.8435495    1.1374416 
C     4.0695022   -3.5615806   -0.1457677 
C     2.7537131   -3.1212898   -0.3142812 
C     1.8971565   -2.9699249    0.8009154 
C     2.4173488   -3.2404034    2.0877376 
C     3.7387384   -3.6739105    2.2553931 
H     5.5989911   -4.1894096    1.2630624 
H     4.7165666   -3.6782593   -1.0209919 
H     2.3918600   -2.8792473   -1.3187095 
H     1.7646113   -3.1341654    2.9625509 
H     4.1172346   -3.8912798    3.2596748 
N    -1.6274825    2.0607402   -3.1666516 
N    -1.9023419    1.2192295    1.9912500 
N     1.2914830    2.8008091    2.3271640 
N     3.6654380    0.1069219   -1.0768442 
C     0.0759579    2.8384776   -0.7285341 
C     1.5228088    2.3305126   -0.6089855 
C    -2.2546668    1.6127099   -2.0650562 
C    -2.2106382    1.9206042    0.8812793 
C     1.4951184    1.4778334    2.2063052 
C     3.3765523    0.2503712    0.2306557 
C    -3.5935298    1.1777484   -2.0542750 
C    -3.1620844    2.9565782    0.8636890 
C     1.4772096    0.5885887    3.2987193 
C     4.2828799   -0.0432489    1.2628468 
C    -4.3123878    1.2383925   -3.2543211 
C    -3.8175848    3.2748330    2.0614984 
C     1.2663286    1.1156056    4.5780628 
C     5.5601691   -0.4945365    0.9033105 
C    -2.3262798    2.1095645   -4.3113644 
C    -2.5291586    1.5401245    3.1340522 
C     1.0737694    3.2935390    3.5581614 
C     4.8961109   -0.3100920   -1.4070646 
C    -3.6697457    1.7127348   -4.4055278 
C    -3.4935321    2.5567834    3.2205172 
C     1.0572911    2.4962899    4.7125143 
C     5.8788355   -0.6233584   -0.4539999 
H    -0.0982099    3.3123840   -1.7094043 
H    -0.1441446    3.5547965    0.0796644 
H     1.9161710    1.9780364   -1.5784803 
H     2.1865766    3.1172011   -0.2138792 
H    -4.0560733    0.8005817   -1.1374261 
H    -3.3815120    3.4991997   -0.0617435 
H     1.6158799   -0.4867069    3.1413967 
H     4.0069181    0.0859587    2.3128403 
H    -5.3549336    0.9082581   -3.2899701 
H    -4.5660093    4.0737143    2.0889776 
H     1.2550450    0.4600463    5.4552463 
H     6.2957435   -0.7389475    1.6763248 
H    -1.7884095    2.4834004   -5.1918096 
H    -2.2481666    0.9554476    4.0191032 
H     0.9054563    4.3761033    3.6229957 
H     5.1046027   -0.4043669   -2.4804141 
H    -4.1957469    1.7717158   -5.3632881 
H    -3.9802028    2.7758759    4.1760032 
H     0.8804191    2.9492474    5.6930255 
H     6.8677929   -0.9659650   -0.7734511 
