77
Energy =
C    -1.6387110   -2.1120666    0.4956375 
C    -0.3255199   -2.6708651    0.4690755 
C     0.6578075   -2.2071274    1.3870943 
H    -0.0353566   -3.3287582   -0.3601937 
Pd   -0.1099620   -0.5274394    0.1461022 
P     1.6916620    0.8957809   -0.0927480 
P    -1.2833864    1.2073132   -0.8484079 
H    -2.0077482   -1.7509669    1.4677757 
H     0.2822609   -1.7882032    2.3343765 
C    -4.7047855   -3.1097152   -2.3567905 
C    -3.3680871   -3.0027305   -2.7774209 
C    -2.3671356   -2.6592604   -1.8641805 
C    -2.6798169   -2.4217077   -0.5044918 
C    -4.0321699   -2.4999133   -0.1027056 
C    -5.0337290   -2.8499741   -1.0184197 
H    -5.4861333   -3.3846599   -3.0728606 
H    -3.1078707   -3.1799319   -3.8259991 
H    -1.3323729   -2.5499189   -2.2082705 
H    -4.2933227   -2.3092029    0.9445166 
H    -6.0736671   -2.9253617   -0.6833328 
C     4.7820948   -3.4183192    1.5788580 
C     4.0756719   -3.5473216    0.3709986 
C     2.7412661   -3.1410050    0.2834240 
C     2.0749544   -2.6104948    1.4125350 
C     2.8036222   -2.4687833    2.6161256 
C     4.1431575   -2.8698463    2.7000220 
H     5.8267234   -3.7398686    1.6419002 
H     4.5738099   -3.9605950   -0.5118475 
H     2.2153978   -3.2223452   -0.6732500 
H     2.3005873   -2.0637163    3.5024224 
H     4.6848134   -2.7648302    3.6458843 
N    -2.1803300    0.9252154   -3.3728087 
N    -1.5826299    1.8488759    1.7411035 
N     1.5470925    3.3674799    1.0204252 
N     3.4793561   -0.3497266   -1.6058931 
C    -0.0975041    2.4105158   -1.6643984 
C     1.3648391    1.9377883   -1.5905994 
C    -2.5982993    0.9020268   -2.0952943 
C    -2.0565111    2.1756072    0.5215772 
C     1.7713272    2.0766019    1.3199654 
C     3.3753865    0.2123924   -0.3866727 
C    -3.9074664    0.5557783   -1.7106916 
C    -2.9870271    3.2087557    0.3076858 
C     1.9377231    1.6049493    2.6369679 
C     4.4236755    0.2389101    0.5479789 
C    -4.8256176    0.2409071   -2.7197783 
C    -3.4368316    3.9363965    1.4183512 
C     1.8988912    2.5340638    3.6829001 
C     5.6452853   -0.3397250    0.1777366 
C    -3.0690259    0.6176527   -4.3302181 
C    -2.0136198    2.5589838    2.7956584 
C     1.4945622    4.2481139    2.0340063 
C     4.6585011   -0.8849997   -1.9533033 
C    -4.4016800    0.2720686   -4.0549173 
C    -2.9381671    3.6097973    2.6867302 
C     1.6699576    3.8839871    3.3774682 
C     5.7713538   -0.9049750   -1.0970267 
H    -0.4309458    2.5077980   -2.7116249 
H    -0.2137858    3.3739717   -1.1421536 
H     1.6245866    1.2715895   -2.4317747 
H     2.0577555    2.7952796   -1.5824455 
H    -4.1964811    0.5305773   -0.6557787 
H    -3.3469762    3.4373404   -0.7009246 
H     2.0819754    0.5361813    2.8297010 
H     4.2968530    0.7053313    1.5286661 
H    -5.8529629   -0.0356712   -2.4642374 
H    -4.1616476    4.7477202    1.2938041 
H     2.0340048    2.2104653    4.7203712 
H     6.4867530   -0.3449221    0.8779063 
H    -2.6994784    0.6497580   -5.3630044 
H    -1.6011578    2.2724987    3.7712631 
H     1.3037255    5.2929138    1.7576485 
H     4.7151166   -1.3233332   -2.9578312 
H    -5.0878102    0.0290117   -4.8719927 
H    -3.2609896    4.1554406    3.5788420 
H     1.6230348    4.6425841    4.1650367 
H     6.7111350   -1.3601418   -1.4242530 
