77
Energy =
C    -1.3608994   -2.3502934   -0.3896678 
C     0.0010787   -2.5674494   -0.7307649 
C     1.0056640   -2.5957352    0.2822106 
H     0.3116484   -2.5056074   -1.7817320 
Pd   -0.1021802   -0.6706386    0.3489682 
P     1.4181071    0.9009887    1.0947541 
P    -1.6181557    1.0875352    0.3195182 
H    -1.6768423   -2.6012637    0.6346949 
H     0.7090741   -2.9921598    1.2656085 
C    -4.6013289   -1.6328171   -3.1323434 
C    -3.3706029   -2.0957509   -3.6227130 
C    -2.3076884   -2.3455973   -2.7456797 
C    -2.4597560   -2.1473799   -1.3554346 
C    -3.7136361   -1.7046950   -0.8729383 
C    -4.7687982   -1.4396897   -1.7518231 
H    -5.4282019   -1.4323715   -3.8212020 
H    -3.2382003   -2.2676199   -4.6961805 
H    -1.3590970   -2.7150058   -3.1488311 
H    -3.8465406   -1.5517139    0.2037839 
H    -5.7263079   -1.0832811   -1.3584356 
C     5.2492751   -2.6447481   -0.4687278 
C     4.7142448   -3.3084548    0.6452274 
C     3.3328263   -3.2920767    0.8772619 
C     2.4580817   -2.6126619    0.0006623 
C     3.0123643   -1.9424665   -1.1147533 
C     4.3913245   -1.9627649   -1.3476016 
H     6.3287691   -2.6568571   -0.6510253 
H     5.3747475   -3.8463422    1.3333671 
H     2.9203994   -3.8228793    1.7432579 
H     2.3591660   -1.3720826   -1.7854370 
H     4.8010227   -1.4316549   -2.2131669 
N    -3.6704736    2.1988648   -1.1244904 
N    -2.5736086   -0.2334425    2.4376082 
N     3.3761566    1.7690466    2.7410896 
N     1.5248514    1.7494835   -1.4242800 
C    -0.7184503    2.6845212    0.7115844 
C     0.4652400    2.4123028    1.6512670 
C    -2.5422852    1.4775464   -1.2288792 
C    -2.8435483    0.8509872    1.6794241 
C     2.6643836    0.6685125    2.4281458 
C     2.3506687    1.4619306   -0.3947569 
C    -2.0126797    1.0304865   -2.4519561 
C    -3.9272172    1.7147159    1.9231541 
C     2.8235847   -0.5707648    3.0676874 
C     3.7504247    1.5128496   -0.4928259 
C    -2.7119449    1.3444493   -3.6244690 
C    -4.7694316    1.4249526    3.0063146 
C     3.7866074   -0.6698875    4.0829548 
C     4.3110159    1.8780269   -1.7254668 
C    -4.3318161    2.4944848   -2.2545564 
C    -3.3843491   -0.4928415    3.4766564 
C     4.2906063    1.6636506    3.7174177 
C     2.0744513    2.1124484   -2.5932290 
C    -3.8954322    2.0872325   -3.5255248 
C    -4.4944933    0.3036181    3.7999900 
C     4.5340537    0.4666958    4.4140791 
C     3.4623164    2.1831148   -2.7970062 
H    -0.3645491    3.0631873   -0.2615438 
H    -1.4259261    3.4143281    1.1421770 
H     1.1597584    3.2667478    1.7173061 
H     0.1197609    2.1733586    2.6740645 
H    -1.0861094    0.4483438   -2.4683679 
H    -4.1115827    2.5614061    1.2567391 
H     2.2106683   -1.4261621    2.7723818 
H     4.3813716    1.2765108    0.3667703 
H    -2.3446740    1.0033305   -4.5975436 
H    -5.6287146    2.0675473    3.2252121 
H     3.9480739   -1.6184780    4.6052277 
H     5.3987077    1.9224977   -1.8440551 
H    -5.2507978    3.0832274   -2.1397653 
H    -3.1370743   -1.3793534    4.0741234 
H     4.8553178    2.5743310    3.9545830 
H     1.3739366    2.3508293   -3.4040863 
H    -4.4760460    2.3483546   -4.4157039 
H    -5.1273827    0.0450113    4.6547049 
H     5.2942987    0.4341892    5.2007914 
H     3.8627739    2.4713420   -3.7738051 
