77
Energy =
C    -1.2832006   -2.3715819    0.3747886 
C    -0.0130929   -2.6014018   -0.2255043 
C     1.1866194   -2.3738925    0.5107809 
H     0.0433803   -2.7649957   -1.3088674 
Pd   -0.0289279   -0.5226224    0.4425111 
P     1.6664734    1.0487974    0.5796655 
P    -1.4799271    1.2709084    0.2906544 
H    -1.3498878   -2.4961801    1.4671320 
H     1.1407368   -2.5062270    1.6027505 
C    -5.0868274   -2.5010209   -1.6425486 
C    -3.9157450   -2.2506484   -2.3773124 
C    -2.6750059   -2.1969040   -1.7355446 
C    -2.5729243   -2.4122581   -0.3410889 
C    -3.7596989   -2.6628008    0.3857597 
C    -5.0041462   -2.7031880   -0.2571469 
H    -6.0569862   -2.5402565   -2.1484110 
H    -3.9725774   -2.0862765   -3.4581072 
H    -1.7778375   -1.9655677   -2.3188647 
H    -3.6983203   -2.8488245    1.4646064 
H    -5.9097021   -2.9080242    0.3235660 
C     5.1884671   -2.2556075   -1.0731492 
C     4.9655033   -2.3951590    0.3038227 
C     3.6581619   -2.4445109    0.8039627 
C     2.5459963   -2.3595795   -0.0635017 
C     2.7869583   -2.2124101   -1.4507111 
C     4.0922353   -2.1650348   -1.9478078 
H     6.2099104   -2.2163573   -1.4652687 
H     5.8126749   -2.4650109    0.9940505 
H     3.4908771   -2.5463121    1.8820161 
H     1.9470121   -2.1158506   -2.1463411 
H     4.2573312   -2.0483134   -3.0237452 
N    -1.8290435    1.1095072   -2.3344090 
N    -2.3693854    2.8043860    2.3534067 
N     2.0688638    0.7867114    3.1429460 
N     3.9051667    1.3357241   -1.0148783 
C    -0.4589935    2.8139250    0.0711716 
C     0.8538896    2.7084644    0.8598174 
C    -2.5563141    1.2279705   -1.2040078 
C    -2.5574250    1.6215655    1.7451846 
C     2.7995412    0.8419613    2.0095331 
C     2.5725196    1.1727060   -1.0243939 
C    -3.9589568    1.2786453   -1.1907615 
C    -3.4698662    0.6499590    2.2009765 
C     4.1947703    0.6892866    1.9720752 
C     1.8135497    1.0658604   -2.2092764 
C    -4.6325372    1.2057168   -2.4182872 
C    -4.2414343    0.9493465    3.3310011 
C     4.8543935    0.4661640    3.1907641 
C     2.4899841    1.1480541   -3.4332144 
C    -2.4852126    1.0564303   -3.5030483 
C    -3.1035721    3.0742992    3.4454430 
C     2.7151888    0.5835360    4.2994485 
C     4.5435009    1.3897598   -2.1947129 
C    -3.8857638    1.0973500   -3.5975495 
C    -4.0550641    2.1845632    3.9682011 
C     4.1083756    0.4105390    4.3741475 
C     3.8824502    1.3054613   -3.4295673 
H    -0.2826588    2.9017473   -1.0153166 
H    -1.0587503    3.6724762    0.4171939 
H     1.5559104    3.5192839    0.5993470 
H     0.6596539    2.7428389    1.9469998 
H    -4.5099046    1.3760033   -0.2512009 
H    -3.5725395   -0.3066936    1.6771087 
H     4.7202448    0.7592815    1.0168996 
H     0.7250425    0.9199020   -2.1743931 
H    -5.7264298    1.2358801   -2.4495234 
H    -4.9707478    0.2272157    3.7127994 
H     5.9420720    0.3395525    3.2103857 
H     1.9368585    1.0785318   -4.3758376 
H    -1.8652819    0.9718311   -4.4047850 
H    -2.9230993    4.0459379    3.9222381 
H     2.0950935    0.5518522    5.2042536 
H     5.6334649    1.5076058   -2.1493030 
H    -4.3741199    1.0423782   -4.5752080 
H    -4.6316957    2.4549766    4.8581636 
H     4.5903195    0.2378901    5.3415404 
H     4.4504117    1.3607266   -4.3635184 
