77
Energy =
C    -1.3813628   -2.2960163   -0.4803383 
C    -0.0341513   -2.6031286   -0.8385650 
C     0.9964318   -2.4954679    0.1366651 
H     0.2224483   -2.7572335   -1.8945114 
Pd   -0.0459955   -0.5468749   -0.1206984 
P     1.5860781    1.0443456    0.2425666 
P    -1.4674125    1.2846115   -0.1114859 
H    -1.6733316   -2.4786996    0.5650995 
H     0.6879047   -2.6152099    1.1875688 
C    -4.6390062   -2.2367823   -3.2939430 
C    -3.3709130   -1.7732369   -3.6841259 
C    -2.3108457   -1.7693545   -2.7730442 
C    -2.4934085   -2.2366119   -1.4497531 
C    -3.7815276   -2.6683669   -1.0615474 
C    -4.8417796   -2.6774763   -1.9780430 
H    -5.4661972   -2.2442680   -4.0112401 
H    -3.2118215   -1.4049759   -4.7028057 
H    -1.3334827   -1.3787557   -3.0784770 
H    -3.9430464   -3.0241447   -0.0375237 
H    -5.8280863   -3.0351750   -1.6639026 
C     5.2106077   -3.1118791   -0.4738370 
C     4.3948556   -2.7629739   -1.5634878 
C     3.0271360   -2.5395515   -1.3822142 
C     2.4387384   -2.6780396   -0.1036628 
C     3.2748248   -3.0114978    0.9869181 
C     4.6466475   -3.2279954    0.8046196 
H     6.2810705   -3.2872720   -0.6222708 
H     4.8322357   -2.6563841   -2.5613351 
H     2.4124527   -2.2410268   -2.2373974 
H     2.8335533   -3.1280485    1.9841197 
H     5.2735868   -3.4994995    1.6603762 
N    -2.6274419    2.0918173   -2.4061749 
N    -1.5347752    0.5993375    2.4843662 
N     1.3255263    2.6784424    2.3935067 
N     3.3048790    0.8746688   -1.7702146 
C    -0.4890206    2.8690044   -0.3376101 
C     1.0095468    2.6076420   -0.5700112 
C    -2.8877609    1.4234419   -1.2692691 
C    -2.1569773    1.4032771    1.5982961 
C     1.7071678    1.4395354    2.0384794 
C     3.2832853    0.7971623   -0.4259367 
C    -4.1073976    0.7688838   -1.0129420 
C    -3.1764507    2.3035420    1.9580177 
C     2.0611361    0.4422365    2.9684264 
C     4.4203040    0.5302612    0.3544997 
C    -5.1075502    0.8397067   -1.9901385 
C    -3.5563761    2.3710395    3.3057747 
C     2.0441403    0.7695177    4.3290074 
C     5.6420268    0.3518655   -0.3087185 
C    -3.5931813    2.1495254   -3.3362707 
C    -1.9013593    0.6792369    3.7733034 
C     1.2962820    2.9762176    3.7035112 
C     4.4830120    0.7181702   -2.3907325 
C    -4.8488370    1.5426955   -3.1742950 
C    -2.9041909    1.5472772    4.2332941 
C     1.6510096    2.0620592    4.7068390 
C     5.6797063    0.4552463   -1.7045467 
H    -0.9406390    3.3869698   -1.2009131 
H    -0.6352657    3.4659516    0.5770952 
H     1.2375579    2.4436195   -1.6376941 
H     1.6200912    3.4458923   -0.1958447 
H    -4.2662281    0.2190766   -0.0804822 
H    -3.6571157    2.9348807    1.2032935 
H     2.3302375   -0.5638163    2.6282812 
H     4.3590879    0.4744143    1.4446666 
H    -6.0694550    0.3427189   -1.8321271 
H    -4.3461188    3.0586879    3.6259764 
H     2.3221088    0.0263354    5.0838471 
H     6.5517530    0.1377081    0.2612792 
H    -3.3526074    2.7061071   -4.2509114 
H    -1.3688956    0.0177357    4.4682577 
H     0.9741549    3.9931762    3.9612016 
H     4.4695131    0.7995470   -3.4850943 
H    -5.6031203    1.6181598   -3.9635092 
H    -3.1683879    1.5715258    5.2951101 
H     1.6144185    2.3573982    5.7600764 
H     6.6160039    0.3290912   -2.2566943 
