77
Energy =
C    -1.4169566   -2.5235334    0.1801976 
C    -0.1127729   -2.7167956   -0.3559215 
C     1.0291282   -2.6768819    0.4939580 
H     0.0221710   -2.7031731   -1.4448897 
Pd   -0.1052374   -0.7658321    0.6210020 
P     1.4907959    0.8130432    1.1822292 
P    -1.5305037    1.0620663    0.7007481 
H    -1.5804532   -2.8269986    1.2256607 
H     0.8791449   -2.9680388    1.5449983 
C    -5.0269462   -2.1501134   -2.1376220 
C    -3.7996075   -1.7327415   -2.6839566 
C    -2.6200143   -1.8482796   -1.9420408 
C    -2.6416470   -2.3826529   -0.6316347 
C    -3.8836501   -2.7783019   -0.0871881 
C    -5.0631388   -2.6729506   -0.8369228 
H    -5.9475158   -2.0652811   -2.7243330 
H    -3.7651897   -1.3115618   -3.6943570 
H    -1.6772468   -1.4856000   -2.3632651 
H    -3.9204212   -3.1820479    0.9306788 
H    -6.0135264   -2.9981646   -0.4009746 
C     5.1597208   -2.6863480   -0.7205742 
C     4.1604293   -2.3830176   -1.6609122 
C     2.8128092   -2.3795570   -1.2857167 
C     2.4325895   -2.6894827    0.0414430 
C     3.4487501   -2.9966583    0.9746324 
C     4.7971459   -2.9942329    0.5987450 
H     6.2132852   -2.6860948   -1.0179792 
H     4.4356880   -2.1445474   -2.6938249 
H     2.0507238   -2.1152072   -2.0264579 
H     3.1723519   -3.2413464    2.0058564 
H     5.5667404   -3.2362019    1.3387627 
N    -0.8279134    1.0747263   -1.9088727 
N    -3.4813197    1.2555793    2.5618360 
N     4.1945638    0.5334023    1.4614545 
N     1.3791536    2.9537206   -0.4366256 
C    -0.7776532    2.4173201    1.7545094 
C     0.6343518    2.0621463    2.2680185 
C    -1.5948763    1.7360211   -1.0205241 
C    -3.2819463    0.9695824    1.2628055 
C     3.0226065    0.2889635    2.0655163 
C     2.0106699    1.7752190   -0.2957614 
C    -2.3436434    2.8802411   -1.3500025 
C    -4.3022139    0.5323922    0.3974751 
C     2.9109288   -0.3868936    3.2966769 
C     2.9070596    1.2533300   -1.2466071 
C    -2.2748747    3.3634343   -2.6636505 
C    -5.5969140    0.4120578    0.9198701 
C     4.0891279   -0.7875094    3.9389786 
C     3.1527614    2.0131575   -2.3962032 
C    -0.7658398    1.5492812   -3.1627732 
C    -4.7252624    1.1345611    3.0498976 
C     5.3165521    0.1252819    2.0748696 
C     1.6207156    3.6703039   -1.5466710 
C    -1.4657755    2.6891713   -3.5882372 
C    -5.8168425    0.7202632    2.2686717 
C     5.3184874   -0.5265444    3.3176937 
C     2.4972449    3.2432208   -2.5546807 
H    -0.7366982    3.3235060    1.1309149 
H    -1.4842158    2.5611888    2.5902548 
H     1.2683051    2.9612308    2.3396592 
H     0.5795473    1.5908474    3.2654141 
H    -2.9633304    3.3793438   -0.5974475 
H    -4.0906377    0.2885417   -0.6487674 
H     1.9292327   -0.5956664    3.7368292 
H     3.3994395    0.2928787   -1.0794701 
H    -2.8419340    4.2524575   -2.9588869 
H    -6.4169955    0.0741224    0.2783396 
H     4.0473875   -1.3030100    4.9041427 
H     3.8496987    1.6495278   -3.1587665 
H    -0.1255279    0.9927166   -3.8586845 
H    -4.8560307    1.3801123    4.1114268 
H     6.2567267    0.3305904    1.5477252 
H     1.0867543    4.6250714   -1.6325165 
H    -1.3791373    3.0355904   -4.6228081 
H    -6.8133525    0.6396513    2.7138096 
H     6.2624783   -0.8282604    3.7819235 
H     2.6624949    3.8636628   -3.4410975 
