77
Energy =
C    -1.4545274   -2.2828802   -0.3828060 
C    -0.1240813   -2.4662487   -0.8496400 
C     0.9682845   -2.5127521    0.0667912 
H     0.0817727   -2.3774536   -1.9234023 
Pd   -0.1433303   -0.6009504    0.2921501 
P     1.4591138    0.8650842    1.0650958 
P    -1.6074732    1.1987848    0.3493613 
H    -1.6757248   -2.6216463    0.6416026 
H     0.7588522   -2.9132783    1.0705380 
C    -4.9771235   -1.6813130   -2.7786788 
C    -3.7078405   -1.5165295   -3.3586407 
C    -2.5520747   -1.6954857   -2.5934744 
C    -2.6396317   -2.0617687   -1.2296013 
C    -3.9233937   -2.2101235   -0.6563384 
C    -5.0800348   -2.0212609   -1.4222342 
H    -5.8798215   -1.5422955   -3.3823858 
H    -3.6202372   -1.2411163   -4.4144616 
H    -1.5736740   -1.5450862   -3.0609089 
H    -4.0085357   -2.4847263    0.4011394 
H    -6.0647173   -2.1497290   -0.9608932 
C     5.1530201   -2.4843226   -0.9660869 
C     4.7320627   -2.8697370    0.3157921 
C     3.3684974   -2.8810968    0.6339109 
C     2.3945787   -2.4987430   -0.3171478 
C     2.8367148   -2.0932163   -1.5982972 
C     4.1977311   -2.0975125   -1.9202023 
H     6.2178681   -2.4858254   -1.2207250 
H     5.4674237   -3.1756500    1.0673383 
H     3.0476400   -3.2009009    1.6313001 
H     2.1127683   -1.7580389   -2.3483787 
H     4.5167020   -1.7859672   -2.9201841 
N    -3.7621782    1.4805328   -1.3525127 
N    -2.2636930    1.3960629    2.8944984 
N     3.5384343    1.3369925    2.7320817 
N     1.8887502    1.9911443   -1.3131934 
C    -0.6036837    2.7388963    0.7064446 
C     0.6018735    2.4308115    1.6050041 
C    -2.4244199    1.5241979   -1.2702287 
C    -2.8373535    1.1005715    1.7094637 
C     2.5574792    0.4497408    2.4829869 
C     2.5554042    1.3495187   -0.3294500 
C    -1.5830437    1.7596255   -2.3781140 
C    -4.1689799    0.6684002    1.5743173 
C     2.3225726   -0.6918026    3.2672041 
C     3.9157800    1.0129895   -0.4117170 
C    -2.1839029    2.0009082   -3.6192762 
C    -4.9360426    0.5569976    2.7433267 
C     3.1614653   -0.9212998    4.3676997 
C     4.6171311    1.3849182   -1.5666308 
C    -4.3246745    1.6963708   -2.5524450 
C    -3.0134362    1.2875611    4.0017482 
C     4.3377974    1.1055423    3.7848229 
C     2.5767062    2.3507945   -2.4083157 
C    -3.5826244    1.9728751   -3.7103549 
C    -4.3539247    0.8695073    3.9786868 
C     4.1901641   -0.0080320    4.6301329 
C     3.9417012    2.0721990   -2.5823925 
H    -0.2659565    3.1080791   -0.2758242 
H    -1.2667040    3.4893443    1.1694788 
H     1.3331201    3.2567179    1.6215472 
H     0.2596016    2.2274293    2.6344446 
H    -0.4926531    1.7572807   -2.2533684 
H    -4.5778045    0.4671481    0.5816693 
H     1.5013748   -1.3717153    3.0197107 
H     4.4112270    0.4743680    0.3990443 
H    -1.5696928    2.2014359   -4.5035217 
H    -5.9809001    0.2337450    2.6856756 
H     3.0138812   -1.7974478    5.0076755 
H     5.6780744    1.1350008   -1.6690658 
H    -5.4198355    1.6441768   -2.5877843 
H    -2.5213944    1.5443309    4.9484556 
H     5.1307427    1.8429838    3.9636668 
H     2.0105762    2.8821246   -3.1844651 
H    -4.0928233    2.1515424   -4.6619055 
H    -4.9237943    0.7945467    4.9100551 
H     4.8690672   -0.1492541    5.4769563 
H     4.4557829    2.3839246   -3.4967638 
