77
Energy =
C    -1.2624481   -2.3841991   -0.2992847 
C     0.0599190   -2.4849986   -0.8188515 
C     1.1849521   -2.4584312    0.0556028 
H     0.2193878   -2.3778913   -1.8987829 
Pd   -0.0388365   -0.6296652    0.3293452 
P     1.6025979    0.8787377    0.9607302 
P    -1.5135205    1.1398732    0.4476234 
H    -1.4265044   -2.7702393    0.7192236 
H     1.0402375   -2.8477821    1.0752647 
C    -4.8830531   -1.9535991   -2.5925452 
C    -3.6413351   -1.7007582   -3.1988217 
C    -2.4574196   -1.8217183   -2.4654010 
C    -2.4855985   -2.2208271   -1.1085414 
C    -3.7432082   -2.4591405   -0.5086008 
C    -4.9294295   -2.3253491   -1.2409682 
H    -5.8079300   -1.8592799   -3.1708548 
H    -3.5969749   -1.3998907   -4.2504531 
H    -1.5029786   -1.5958850   -2.9514708 
H    -3.7860630   -2.7684910    0.5421108 
H    -5.8916991   -2.5254922   -0.7582156 
C     5.3160643   -2.0221951   -1.0772915 
C     4.9665293   -2.4703693    0.2042178 
C     3.6186723   -2.6188681    0.5547096 
C     2.5917415   -2.3260838   -0.3706829 
C     2.9599483   -1.8680830   -1.6584473 
C     4.3055877   -1.7225514   -2.0068020 
H     6.3692489   -1.9058888   -1.3527257 
H     5.7460586   -2.7059141    0.9363042 
H     3.3521283   -2.9632466    1.5600887 
H     2.1883210   -1.6067004   -2.3897864 
H     4.5694507   -1.3653918   -3.0074198 
N    -1.6265270    1.6186709   -2.1662589 
N    -3.2960058    2.4097610    2.0498814 
N     1.7935378    0.1565311    3.4631146 
N     3.9698086    1.4708531   -0.3347761 
C    -0.5173174    2.7037134    0.6542992 
C     0.7338897    2.4442561    1.5059627 
C    -2.4456564    1.4231603   -1.1130449 
C    -2.7682232    1.1979944    1.7990820 
C     2.6108312    0.3831848    2.4130297 
C     2.6436276    1.3376715   -0.4938888 
C    -3.8448361    1.3890459   -1.2145862 
C    -3.1326008    0.0327882    2.4943213 
C     3.9993316    0.1758337    2.4463267 
C     1.9906322    1.5064177   -1.7336204 
C    -4.4155237    1.5832817   -2.4798811 
C    -4.1083033    0.1389648    3.4966186 
C     4.5554061   -0.2933211    3.6466122 
C     2.7712434    1.8440459   -2.8466655 
C    -2.1865547    1.8146399   -3.3695613 
C    -4.2250294    2.5022984    3.0134461 
C     2.3420286   -0.2812790    4.6050306 
C     4.7084302    1.7730350   -1.4143805 
C    -3.5751360    1.8069299   -3.5772428 
C    -4.6666122    1.3960027    3.7603173 
C     3.7189675   -0.5278636    4.7444683 
C     4.1576574    1.9740364   -2.6891690 
H    -0.2570596    3.0259669   -0.3691116 
H    -1.1811353    3.4626501    1.1045217 
H     1.4379360    3.2934619    1.4699883 
H     0.4716383    2.2515138    2.5619767 
H    -4.4682474    1.2185179   -0.3330468 
H    -2.6561586   -0.9232132    2.2555721 
H     4.6007811    0.3968035    1.5617776 
H     0.9034218    1.3763337   -1.8257864 
H    -5.5028291    1.5582212   -2.6041075 
H    -4.4216715   -0.7430377    4.0646828 
H     5.6339182   -0.4695612    3.7189129 
H     2.3024522    1.9925867   -3.8251519 
H    -1.4958033    1.9814841   -4.2059393 
H    -4.6348534    3.5032127    3.1991081 
H     1.6536035   -0.4474246    5.4433009 
H     5.7900466    1.8591451   -1.2510763 
H    -3.9827790    1.9672385   -4.5799730 
H    -5.4278092    1.5251158    4.5360913 
H     4.1190101   -0.8935583    5.6953164 
H     4.8046266    2.2242095   -3.5357651 
