77
Energy =
C    -1.2131200   -2.6311138    0.1289169 
C    -0.1184659   -2.5744013   -0.7709325 
C     1.2155722   -2.4566365   -0.2730219 
H    -0.3082789   -2.4458061   -1.8444607 
Pd   -0.0262055   -0.7433152    0.3952742 
P     1.5960609    0.8710812    0.7927226 
P    -1.5334943    1.0070861    0.6929617 
H    -1.0112513   -3.0340522    1.1339959 
H     1.4306573   -2.9078389    0.7072162 
C    -5.3746729   -2.6084316   -0.9632570 
C    -4.4511181   -1.8593302   -1.7130227 
C    -3.0938998   -1.8715923   -1.3777385 
C    -2.6327768   -2.6329790   -0.2792962 
C    -3.5692364   -3.3829261    0.4668813 
C    -4.9286055   -3.3735550    0.1244205 
H    -6.4373773   -2.5932665   -1.2262207 
H    -4.7953239   -1.2530139   -2.5575847 
H    -2.3844154   -1.2524460   -1.9374456 
H    -3.2254656   -3.9797220    1.3195590 
H    -5.6405803   -3.9662680    0.7084622 
C     4.5760333   -2.0786500   -2.9353402 
C     3.3661527   -1.4308507   -3.2387261 
C     2.2803032   -1.5182681   -2.3630405 
C     2.3771402   -2.2701940   -1.1674223 
C     3.6103756   -2.8831025   -0.8550902 
C     4.6977193   -2.7945643   -1.7356837 
H     5.4227623   -2.0142102   -3.6265691 
H     3.2747969   -0.8455058   -4.1595104 
H     1.3513169   -0.9809877   -2.5868386 
H     3.7052882   -3.4586477    0.0727885 
H     5.6397764   -3.2947637   -1.4872083 
N    -1.1193308    1.0196789   -1.9823649 
N    -3.6953064    2.2945538    1.7211354 
N     1.7132190   -0.3695634    3.1774671 
N     2.7213586    1.9875502   -1.3778573 
C    -0.6217826    2.4198251    1.5079359 
C     0.7759786    2.5456019    0.8901958 
C    -1.8142637    1.6643961   -1.0238787 
C    -3.1897539    1.0637134    1.5114986 
C     2.3311566    0.5925812    2.4626051 
C     2.9999987    1.1522903   -0.3604046 
C    -2.6397793    2.7732629   -1.2831619 
C    -3.8544905   -0.1183853    1.8728823 
C     3.4089405    1.3504403    2.9584127 
C     4.2241463    0.4706511   -0.2280857 
C    -2.7437187    3.2247587   -2.6063009 
C    -5.1168902   -0.0098998    2.4737149 
C     3.8643633    1.0865848    4.2575176 
C     5.2101323    0.6976089   -1.1960441 
C    -1.2193455    1.4690692   -3.2439884 
C    -4.9004447    2.3872071    2.3050154 
C     2.1538890   -0.6071044    4.4239360 
C     3.6747370    2.1958297   -2.2981693 
C    -2.0184784    2.5639264   -3.6070610 
C    -5.6501312    1.2652975    2.6971300 
C     3.2249760    0.0892995    5.0061306 
C     4.9351641    1.5793882   -2.2492906 
H    -1.2145268    3.3435224    1.3976566 
H    -0.5716117    2.1760434    2.5851273 
H     0.7401143    2.8959443   -0.1573649 
H     1.4176656    3.2400150    1.4600884 
H    -3.1822654    3.2560175   -0.4634761 
H    -3.4026548   -1.0932461    1.6751017 
H     3.8815469    2.1222632    2.3415567 
H     4.3980884   -0.2176781    0.6039818 
H    -3.3798289    4.0821482   -2.8502083 
H    -5.6707771   -0.9101001    2.7591931 
H     4.7027694    1.6518477    4.6777684 
H     6.1740812    0.1836368   -1.1326362 
H    -0.6362165    0.9253248   -3.9982784 
H    -5.2855490    3.4022713    2.4653675 
H     1.6281200   -1.3927619    4.9809162 
H     3.4202148    2.8872407   -3.1117071 
H    -2.0700622    2.8868101   -4.6515898 
H    -6.6301218    1.3963779    3.1664809 
H     3.5482502   -0.1483597    6.0243496 
H     5.6787516    1.7823922   -3.0260871 
