77
Energy =
C    -1.4209270   -2.2301577   -0.3822915 
C    -0.0900133   -2.4780446   -0.8293765 
C     0.9946234   -2.4658847    0.0890603 
H     0.1109257   -2.4917337   -1.9078258 
Pd   -0.0973630   -0.5168848    0.1453211 
P     1.5209895    0.9731879    0.8715453 
P    -1.5608758    1.2661299    0.3009408 
H    -1.6648674   -2.5306154    0.6484919 
H     0.7646102   -2.6791683    1.1441379 
C    -4.8376068   -1.7904495   -2.9682972 
C    -3.5654597   -1.3991112   -3.4184515 
C    -2.4508462   -1.5232801   -2.5841637 
C    -2.5797184   -2.0629331   -1.2828457 
C    -3.8662670   -2.4465316   -0.8406156 
C    -4.9847491   -2.3095217   -1.6740451 
H    -5.7088783   -1.6884098   -3.6233929 
H    -3.4452198   -0.9807577   -4.4227868 
H    -1.4735430   -1.1731485   -2.9331668 
H    -3.9830385   -2.8825909    0.1586501 
H    -5.9711191   -2.6225984   -1.3159726 
C     5.1940689   -2.7396921   -0.8358213 
C     4.2585281   -2.6562581   -1.8808114 
C     2.8901517   -2.5654375   -1.6011681 
C     2.4223970   -2.5717705   -0.2657506 
C     3.3760290   -2.6665282    0.7759327 
C     4.7453700   -2.7423544    0.4949808 
H     6.2638464   -2.8096860   -1.0577754 
H     4.5980355   -2.6594730   -2.9218778 
H     2.1823792   -2.4881821   -2.4322816 
H     3.0327812   -2.6738061    1.8159453 
H     5.4643538   -2.8111850    1.3179329 
N    -1.8427469    1.8571631   -2.2630339 
N    -2.4799870    2.1370559    2.7039726 
N     1.7654126   -0.4112945    3.1267790 
N     2.4358619    2.8000655   -0.8990131 
C    -0.5551641    2.8051822    0.5497902 
C     0.6471597    2.5091691    1.4588762 
C    -2.6016146    1.6042412   -1.1790151 
C    -2.6712018    1.1870523    1.7726633 
C     2.5075363    0.3466648    2.2939086 
C     2.7009371    1.5770955   -0.4047505 
C    -4.0055213    1.5761076   -1.2030656 
C    -3.6058097    0.1425034    1.9139339 
C     3.8731799    0.6086741    2.4972582 
C     3.7423033    0.7564934   -0.8795388 
C    -4.6449602    1.8285944   -2.4249669 
C    -4.3964660    0.1141892    3.0695393 
C     4.4958580    0.0348159    3.6154801 
C     4.5503130    1.2505390   -1.9111864 
C    -2.4676268    2.1142261   -3.4208518 
C    -3.2337374    2.0918600    3.8148880 
C     2.3677769   -0.9367239    4.2042164 
C     3.2152668    3.2597373   -1.8905002 
C    -3.8661681    2.1076781   -3.5542955 
C    -4.2081264    1.1075147    4.0412010 
C     3.7325757   -0.7538317    4.4853989 
C     4.2841164    2.5253970   -2.4293785 
H    -0.2191673    3.1094261   -0.4566705 
H    -1.2024523    3.5824501    0.9888797 
H     1.3613197    3.3495991    1.4561887 
H     0.3142131    2.3063651    2.4920248 
H    -4.5838485    1.3709129   -0.2982041 
H    -3.7112424   -0.6184109    1.1334577 
H     4.4347797    1.2382378    1.8007821 
H     3.9187049   -0.2341129   -0.4509621 
H    -5.7376651    1.8091940   -2.4892409 
H    -5.1430640   -0.6740842    3.2125277 
H     5.5607115    0.2065445    3.8043517 
H     5.3713497    0.6417999   -2.3041159 
H    -1.8228590    2.3285695   -4.2827706 
H    -3.0501727    2.8795255    4.5566071 
H     1.7351098   -1.5398276    4.8678082 
H     2.9747726    4.2605428   -2.2709679 
H    -4.3286562    2.3139345   -4.5244258 
H    -4.8002970    1.1191296    4.9614641 
H     4.1807780   -1.2201009    5.3682184 
H     4.8899209    2.9470120   -3.2374831 
