77
Energy =
C    -1.4786099   -2.1506051   -0.1649938 
C    -0.2031890   -2.5103108   -0.6951412 
C     0.9503509   -2.4275485    0.1289079 
H    -0.0902667   -2.6741655   -1.7738858 
Pd   -0.0796608   -0.4388833    0.0246619 
P     1.6074534    1.0850410    0.4713409 
P    -1.5488476    1.3016588    0.4213059 
H    -1.6246647   -2.2946707    0.9164290 
H     0.7858594   -2.4903291    1.2157036 
C    -5.1735074   -1.7364230   -2.3383351 
C    -5.1675088   -1.8304448   -0.9379270 
C    -3.9578812   -1.9766122   -0.2481507 
C    -2.7261575   -2.0227687   -0.9418983 
C    -2.7468862   -1.9132317   -2.3525812 
C    -3.9573263   -1.7808970   -3.0411800 
H    -6.1189119   -1.6289924   -2.8798358 
H    -6.1087702   -1.7929251   -0.3799990 
H    -3.9603565   -2.0509202    0.8450333 
H    -1.8092790   -1.9178240   -2.9180601 
H    -3.9525802   -1.7028084   -4.1333377 
C     5.0627441   -3.0913216   -0.9541913 
C     4.0992350   -2.9323616   -1.9646156 
C     2.7578376   -2.7079523   -1.6358099 
C     2.3462331   -2.6510089   -0.2838375 
C     3.3287911   -2.8039917    0.7236861 
C     4.6722227   -3.0207929    0.3928885 
H     6.1106277   -3.2709814   -1.2156990 
H     4.3967508   -2.9802938   -3.0172489 
H     2.0265396   -2.5705581   -2.4388116 
H     3.0277665   -2.7517916    1.7761976 
H     5.4152499   -3.1427284    1.1878706 
N    -1.6788892    3.2623729   -1.4000973 
N    -4.1688034    1.1305407    1.2284810 
N     1.4971307    0.0430493    2.9282224 
N     2.8168651    2.4611312   -1.5138723 
C    -0.5809037    2.6321246    1.2988208 
C     0.8256576    2.7593112    0.6987989 
C    -2.2996509    2.1278035   -1.0323656 
C    -2.9107522    0.8157017    1.5670261 
C     2.3726945    0.6434320    2.0914418 
C     2.9680631    1.3753473   -0.7344545 
C    -3.3701209    1.5536973   -1.7418771 
C    -2.5722177    0.0889449    2.7276909 
C     3.7092029    0.9061964    2.4392777 
C     4.0180545    0.4498417   -0.8913133 
C    -3.8164726    2.2172760   -2.8910144 
C    -3.6102485   -0.3124810    3.5772539 
C     4.1572553    0.5073454    3.7070426 
C     4.9609749    0.6898978   -1.8989822 
C    -2.1186605    3.8878000   -2.5038185 
C    -5.1570162    0.7303105    2.0460074 
C     1.9344323   -0.3159640    4.1458547 
C     3.7262797    2.6792467   -2.4754645 
C    -3.1829033    3.4054688   -3.2815690 
C    -4.9309613    0.0101989    3.2290979 
C     3.2558341   -0.1174681    4.5779750 
C     4.8175767    1.8256338   -2.7067085 
H    -1.1328159    3.5832075    1.2126765 
H    -0.5449620    2.3285029    2.3602677 
H     0.7824421    3.1870699   -0.3185429 
H     1.4818195    3.3963940    1.3166468 
H    -3.8447763    0.6327519   -1.3961974 
H    -1.5235638   -0.1521162    2.9438718 
H     4.3819993    1.4076151    1.7369568 
H     4.0958502   -0.4321804   -0.2486896 
H    -4.6501374    1.8081398   -3.4711993 
H    -3.3951868   -0.8743625    4.4922684 
H     5.1942423    0.6871103    4.0093058 
H     5.7890663   -0.0100866   -2.0507168 
H    -1.5965477    4.8133976   -2.7770333 
H    -6.1760571    0.9977407    1.7385314 
H     1.1971397   -0.7922291    4.8047701 
H     3.5754187    3.5756924   -3.0902599 
H    -3.5042920    3.9522919   -4.1735523 
H    -5.7720939   -0.2910260    3.8612312 
H     3.5649084   -0.4450967    5.5753000 
H     5.5318679    2.0478671   -3.5055750 
