77
Energy =
C    -1.3266669   -2.4072087   -0.3540681 
C    -0.0463715   -2.6002226   -0.9466440 
C     1.1350642   -2.4459495   -0.1661107 
H     0.0335591   -2.7151680   -2.0356887 
Pd   -0.0694356   -0.5683370   -0.1585835 
P     1.5152699    1.0833381    0.2090072 
P    -1.5298485    1.2269277   -0.0954127 
H    -1.4104758   -2.6080275    0.7253545 
H     1.0483651   -2.6397751    0.9141072 
C    -5.0304154   -2.6741813   -2.5239803 
C    -3.9061625   -2.0921270   -3.1344896 
C    -2.7013161   -1.9846565   -2.4338368 
C    -2.5948295   -2.4564266   -1.1049032 
C    -3.7408774   -3.0110870   -0.4934895 
C    -4.9433321   -3.1312269   -1.2005172 
H    -5.9711749   -2.7633577   -3.0769987 
H    -3.9736728   -1.7154383   -4.1603123 
H    -1.8365341   -1.5081940   -2.9098550 
H    -3.6781060   -3.3682154    0.5403725 
H    -5.8161112   -3.5817641   -0.7162428 
C     5.1182013   -2.8415347   -1.7447493 
C     4.8321836   -3.2199518   -0.4251764 
C     3.5389458   -3.0554375    0.0888835 
C     2.5025271   -2.5276262   -0.7136801 
C     2.8142142   -2.1204368   -2.0325846 
C     4.1056983   -2.2805723   -2.5420816 
H     6.1272216   -2.9721652   -2.1492272 
H     5.6166257   -3.6511627    0.2057076 
H     3.3171989   -3.3645165    1.1167051 
H     2.0397918   -1.6585089   -2.6549020 
H     4.3286668   -1.9598944   -3.5648500 
N    -4.0527155    0.3659045   -0.2417068 
N    -1.1010250    2.7910504    2.0608538 
N     0.9960722    0.3319818    2.7396315 
N     3.3222360    1.5651150   -1.7299831 
C    -0.6074836    2.6592470   -0.8411824 
C     0.8523235    2.7446517   -0.3459302 
C    -3.1783104    1.1460418   -0.9050231 
C    -1.8358481    1.7418432    1.6540008 
C     1.7411086    1.2089713    2.0376865 
C     3.2057584    1.0076652   -0.5119409 
C    -3.4812871    1.7814550   -2.1226929 
C    -2.6848604    1.0097850    2.5053773 
C     2.5686712    2.1742491    2.6391298 
C     4.2548258    0.3305322    0.1371432 
C    -4.7659181    1.6036114   -2.6558997 
C    -2.7764032    1.4163538    3.8420095 
C     2.6044766    2.2377530    4.0386440 
C     5.4912371    0.2576745   -0.5160695 
C    -5.2786331    0.2094397   -0.7582902 
C    -1.1891197    3.1624420    3.3490391 
C     1.0350015    0.4051841    4.0795006 
C     4.5123087    1.4884899   -2.3452757 
C    -5.6838075    0.8056171   -1.9634221 
C    -2.0127191    2.5095781    4.2770960 
C     1.8174515    1.3412462    4.7742391 
C     5.6265980    0.8493697   -1.7788528 
H    -0.6218927    2.4783577   -1.9305685 
H    -1.1512133    3.5949026   -0.6289295 
H     1.5258450    3.0796685   -1.1530605 
H     0.9208600    3.4249786    0.5164713 
H    -2.7481770    2.4061521   -2.6405400 
H    -3.2595310    0.1676085    2.1107308 
H     3.1668663    2.8580104    2.0275027 
H     4.1068264   -0.1242876    1.1210032 
H    -5.0431534    2.0870608   -3.5984078 
H    -3.4330498    0.8827793    4.5373659 
H     3.2342536    2.9763556    4.5456147 
H     6.3327607   -0.2620727   -0.0479312 
H    -5.9651577   -0.4303599   -0.1912858 
H    -0.5708676    4.0178702    3.6493536 
H     0.4099904   -0.3155422    4.6211588 
H     4.5780900    1.9589069   -3.3345544 
H    -6.6952936    0.6415552   -2.3467402 
H    -2.0522477    2.8513355    5.3160932 
H     1.8108872    1.3609125    5.8685392 
H     6.5760631    0.8134600   -2.3216508 
