84
Energy =
C     2.3102118   -1.4661032   -0.3647573 
C     2.0640504   -0.7594356   -1.5823488 
C     2.0203119    0.6544199   -1.5947579 
H     1.7734218   -1.3176231   -2.4817533 
Pd    0.4744566   -0.2207981   -0.1611904 
P    -1.3022262    1.2832082   -0.4328637 
P    -0.4388788   -1.0948888    1.7971630 
H     2.9284143   -0.9567915    0.3899462 
H     2.5429880    1.1695543   -0.7733810 
C     2.3967029   -5.7604593   -0.1265239 
C     1.5437961   -5.1325992   -1.0494827 
C     1.4848065   -3.7369295   -1.1155114 
C     2.2875496   -2.9373235   -0.2675002 
C     3.1153210   -3.5830754    0.6770039 
C     3.1737178   -4.9801021    0.7419921 
H     2.4460934   -6.8531490   -0.0787134 
H     0.9215424   -5.7356088   -1.7191568 
H     0.8025318   -3.2594079   -1.8284716 
H     3.7293996   -2.9801814    1.3544439 
H     3.8284309   -5.4613161    1.4754320 
C     1.2329618    3.2316408   -4.9435676 
C     2.0129822    3.6731216   -3.8645962 
C     2.2497752    2.8240582   -2.7766499 
C     1.7368189    1.5063921   -2.7600392 
C     0.9696603    1.0685851   -3.8645517 
C     0.7107676    1.9258772   -4.9375268 
H     1.0338569    3.8985571   -5.7886781 
H     2.4290482    4.6858171   -3.8640313 
H     2.8406171    3.1812982   -1.9261799 
H     0.5538503    0.0575899   -3.8756262 
H     0.0976901    1.5754281   -5.7740712 
C    -3.0915260   -0.5162984    0.7717983 
C    -2.7192942    0.9819975    0.7431446 
C    -2.2891637   -1.3738955    1.7692489 
C    -0.9433709    3.0716927   -0.3126764 
C    -2.1059506    1.0127385   -2.0625191 
C     0.2132469   -2.6490318    2.5165592 
C    -0.1880823    0.1707983    3.1133732 
C    -0.9675244    3.7199437    0.9420686 
C    -2.9699233    1.9684943   -2.6362880 
C    -0.1689242   -3.8876237    1.9580857 
C    -0.8014218    0.0429708    4.3789131 
C    -0.5450870    3.7959231   -1.4570141 
C    -1.9054575   -0.2196409   -2.7172262 
C     1.1384586   -2.6267887    3.5806983 
C     0.6438161    1.2804769    2.8626518 
C    -0.6116818    5.0709591    1.0443571 
C    -3.5992743    1.6996520   -3.8589407 
C     0.3250220   -5.0830682    2.4928058 
C    -0.5974280    1.0185471    5.3628602 
C    -0.1936253    5.1480199   -1.3455886 
C    -2.5469351   -0.4903150   -3.9339081 
C     1.6334664   -3.8285458    4.1070357 
C     0.8467501    2.2563201    3.8498601 
C    -0.2254738    5.7886055   -0.0985221 
C    -3.3877170    0.4733813   -4.5096038 
C     1.2194076   -5.0569677    3.5734908 
C     0.2233246    2.1279134    5.0988456 
H    -4.1600965   -0.6129572    1.0330956 
H    -2.9929681   -0.9402573   -0.2450991 
H    -3.5633609    1.5984996    0.3888212 
H    -2.4396271    1.3430512    1.7489123 
H    -2.4449934   -2.4432215    1.5505623 
H    -2.6446248   -1.2078673    2.8014873 
H    -1.2599995    3.1770306    1.8458007 
H    -3.1438097    2.9266752   -2.1348429 
H    -0.8495465   -3.9274765    1.1006949 
H    -1.4278581   -0.8268180    4.6065883 
H    -0.5169852    3.3093446   -2.4364605 
H    -1.2336807   -0.9627877   -2.2672454 
H     1.4597266   -1.6731038    4.0118442 
H     1.1254677    1.3827494    1.8814646 
H    -0.6417894    5.5649327    2.0211281 
H    -4.2607775    2.4499111   -4.3042400 
H     0.0182644   -6.0376568    2.0546450 
H    -1.0773531    0.9111161    6.3410161 
H     0.1085965    5.6983201   -2.2424286 
H    -2.3849539   -1.4502591   -4.4350607 
H     2.3402246   -3.8013809    4.9428786 
H     1.4888866    3.1171705    3.6377849 
H     0.0471437    6.8457937   -0.0164298 
H    -3.8828836    0.2685327   -5.4644223 
H     1.6017981   -5.9939057    3.9910312 
H     0.3788980    2.8885503    5.8709130 
