84
Energy =
C     0.8512917   -0.6339245   -2.7012191 
C     1.7807850   -1.1155360   -1.7442176 
C     1.4995709   -2.2491198   -0.9322118 
H     2.6683046   -0.5147235   -1.5080820 
Pd   -0.0561717   -0.6766313   -0.6160164 
P    -0.6475280   -1.2324589    1.5674978 
P    -1.6603912    1.0225554   -0.7406786 
H     0.1193636   -1.3520198   -3.1013268 
H     0.8219387   -3.0129140   -1.3443521 
C     1.3322884    2.8831602   -5.1389900 
C     2.1865862    2.6774027   -4.0424174 
C     2.0467741    1.5389819   -3.2424861 
C     1.0443749    0.5775968   -3.5185649 
C     0.2046767    0.7926091   -4.6340859 
C     0.3449233    1.9325373   -5.4339117 
H     1.4444624    3.7753782   -5.7633866 
H     2.9700782    3.4075956   -3.8138802 
H     2.7279644    1.3980464   -2.3963389 
H    -0.5685246    0.0558607   -4.8727650 
H    -0.3215765    2.0769793   -6.2899072 
C     4.1674518   -3.6800609    2.1257959 
C     4.0348272   -2.2982411    1.9091064 
C     3.1608445   -1.8215314    0.9271079 
C     2.4013869   -2.7175942    0.1397390 
C     2.5256026   -4.1015639    0.3852559 
C     3.4067049   -4.5782179    1.3637415 
H     4.8536907   -4.0525742    2.8932779 
H     4.6121008   -1.5899127    2.5125585 
H     3.0486413   -0.7412007    0.7831312 
H     1.9307719   -4.8082160   -0.2029241 
H     3.4934829   -5.6558225    1.5353107 
C    -3.1101135    0.2304675    1.6545463 
C    -2.4858349   -1.1576145    1.8782807 
C    -3.2375863    0.6708066    0.1840600 
C    -0.2220429   -2.9103355    2.1681466 
C     0.0330443   -0.0313912    2.7731786 
C    -1.0015143    2.5901349   -0.0591326 
C    -2.3070917    1.4213585   -2.4110426 
C    -0.8202549   -4.0152125    1.5239714 
C    -0.3558787   -0.0495526    4.1308083 
C     0.2721516    2.9988013   -0.5111927 
C    -2.8623378    0.3680766   -3.1687849 
C     0.6870808   -3.1289343    3.2200797 
C     0.9163223    0.9685330    2.3212699 
C    -1.6769430    3.3730013    0.8972567 
C    -2.2790936    2.7229898   -2.9446898 
C    -0.5435130   -5.3179258    1.9565987 
C     0.1336494    0.9216821    5.0135964 
C     0.8601051    4.1670497   -0.0132711 
C    -3.4071304    0.6208853   -4.4338370 
C     0.9650563   -4.4368633    3.6429047 
C     1.3994092    1.9423963    3.2058471 
C    -1.0761478    4.5342335    1.4063366 
C    -2.8122237    2.9669074   -4.2190881 
C     0.3452380   -5.5300803    3.0224233 
C     1.0078893    1.9196871    4.5518831 
C     0.1904931    4.9321439    0.9556031 
C    -3.3813380    1.9223499   -4.9611699 
H    -4.1306137    0.2104668    2.0786356 
H    -2.5508224    0.9828223    2.2404291 
H    -2.6513242   -1.4867428    2.9191831 
H    -2.9555997   -1.9152846    1.2248488 
H    -3.8676998    1.5744714    0.0996231 
H    -3.7443527   -0.1135962   -0.4075180 
H    -1.5039433   -3.8604806    0.6803597 
H    -1.0352356   -0.8238647    4.5039632 
H     0.7950916    2.4025700   -1.2665960 
H    -2.8632601   -0.6549661   -2.7715246 
H     1.1864790   -2.2841005    3.7029128 
H     1.2083730    0.9912436    1.2653952 
H    -2.6716381    3.0918514    1.2542920 
H    -1.8390017    3.5446171   -2.3709885 
H    -1.0205953   -6.1688951    1.4594281 
H    -0.1695895    0.9012385    6.0654740 
H     1.8430684    4.4793370   -0.3812374 
H    -3.8450759   -0.1989956   -5.0125812 
H     1.6774993   -4.5982132    4.4581715 
H     2.0738146    2.7219781    2.8378955 
H    -1.6055929    5.1320405    2.1552408 
H    -2.7820226    3.9807112   -4.6312126 
H     0.5624351   -6.5486660    3.3598671 
H     1.3821677    2.6801578    5.2450788 
H     0.6530039    5.8409501    1.3542723 
H    -3.8016567    2.1193144   -5.9527553 
