84
Energy =
C     2.4173484   -0.8492572   -0.0570374 
C     2.0306521   -0.5684901   -1.3964051 
C     1.6810154    0.7565858   -1.7740169 
H     1.8699474   -1.3948352   -2.0995634 
Pd    0.3290004    0.0065268   -0.1278323 
P    -1.5176418    1.3401573   -0.6110746 
P    -0.4594850   -0.9208033    1.8577253 
H     2.8415144   -0.0090051    0.5131265 
H     2.1154861    1.5648487   -1.1665140 
C     3.6399295   -4.6761167    1.4663225 
C     2.8095594   -4.6151403    0.3342986 
C     2.3742360   -3.3815437   -0.1567078 
C     2.7732741   -2.1771555    0.4682841 
C     3.5785389   -2.2550968    1.6277104 
C     4.0136168   -3.4922557    2.1183241 
H     3.9835097   -5.6448084    1.8433764 
H     2.4942307   -5.5375748   -0.1632547 
H     1.7146391   -3.3539310   -1.0300877 
H     3.8793621   -1.3310198    2.1345374 
H     4.6514774   -3.5310986    3.0074296 
C     0.5430797    2.0704808   -5.7034796 
C     0.3943336    0.7168966   -5.3566884 
C     0.7289086    0.2753363   -4.0738850 
C     1.2350923    1.1793883   -3.1112057 
C     1.3469808    2.5442925   -3.4629709 
C     1.0099048    2.9849872   -4.7485053 
H     0.2853172    2.4101279   -6.7118256 
H     0.0080105    0.0031835   -6.0910632 
H     0.5924754   -0.7802300   -3.8177463 
H     1.7197941    3.2602515   -2.7215479 
H     1.1192503    4.0433874   -5.0067327 
C    -2.7951918    0.7526348    1.8920789 
C    -3.0502976    0.9890085    0.3919865 
C    -2.2725214   -0.6598627    2.2118892 
C    -1.2157136    3.1257519   -0.3176295 
C    -2.1242261    1.1537265   -2.3315638 
C    -0.3026429   -2.7457493    1.9403083 
C     0.3665771   -0.2247875    3.3407812 
C     0.0400118    3.5459807    0.1636324 
C    -2.1509209    2.2052773   -3.2664377 
C     0.5150360   -3.4126419    2.8719099 
C     1.3386521    0.7827819    3.1825604 
C    -2.2273200    4.0877937   -0.5327441 
C    -2.5448803   -0.1362489   -2.7266540 
C    -1.0140859   -3.4983262    0.9787728 
C     0.0222313   -0.6509955    4.6426172 
C     0.2886564    4.9026438    0.4154595 
C    -2.6311072    1.9753046   -4.5638301 
C     0.5841974   -4.8132236    2.8652331 
C     1.9645765    1.3503736    4.3014888 
C    -1.9752627    5.4429563   -0.2837272 
C    -3.0286863   -0.3573297   -4.0212487 
C    -0.9451388   -4.8962724    0.9817659 
C     0.6521726   -0.0854054    5.7584887 
C    -0.7176501    5.8522499    0.1882914 
C    -3.0795178    0.7022424   -4.9407452 
C    -0.1501530   -5.5568336    1.9316407 
C     1.6240614    0.9141310    5.5897513 
H    -2.1132849    1.5243891    2.2996707 
H    -3.7539951    0.8865875    2.4241172 
H    -3.5390790    0.1083206   -0.0621835 
H    -3.7324116    1.8432504    0.2392023 
H    -2.8287324   -1.4184555    1.6323931 
H    -2.4239224   -0.9021168    3.2780367 
H     0.8202765    2.7994595    0.3493572 
H    -1.7905189    3.2002496   -2.9915562 
H     1.1042855   -2.8454620    3.5975454 
H     1.5944895    1.1271498    2.1741638 
H    -3.2119596    3.7843067   -0.9057311 
H    -2.4905248   -0.9733356   -2.0192301 
H    -1.6233365   -2.9891840    0.2216324 
H    -0.7308838   -1.4334130    4.7895053 
H     1.2675219    5.2170215    0.7918852 
H    -2.6454498    2.7988002   -5.2846761 
H     1.2246495   -5.3224393    3.5921639 
H     2.7159074    2.1352913    4.1666645 
H    -2.7637429    6.1823413   -0.4578084 
H    -3.3625272   -1.3580697   -4.3143837 
H    -1.5095264   -5.4708279    0.2400071 
H     0.3828222   -0.4252414    6.7637823 
H    -0.5253475    6.9123773    0.3828255 
H    -3.4569483    0.5310261   -5.9540359 
H    -0.0945190   -6.6502249    1.9347437 
H     2.1125432    1.3549301    6.4648426 
