84
Energy =
C     0.8275460   -0.6078674   -2.7095447 
C     1.7618520   -1.1035190   -1.7646125 
C     1.4839648   -2.2441046   -0.9614868 
H     2.6531537   -0.5082669   -1.5287838 
Pd   -0.0652662   -0.6712619   -0.6167322 
P    -0.6304855   -1.2392366    1.5702286 
P    -1.6739794    1.0250622   -0.7158706 
H     0.0890448   -1.3176446   -3.1122480 
H     0.8000883   -3.0017980   -1.3745976 
C     1.3081447    2.9390322   -5.1047015 
C     2.1778286    2.7077133   -4.0254282 
C     2.0382920    1.5592873   -3.2398600 
C     1.0210685    0.6126688   -3.5135424 
C     0.1663626    0.8530016   -4.6124258 
C     0.3059488    2.0033401   -5.3973882 
H     1.4198619    3.8392312   -5.7176098 
H     2.9731681    3.4257260   -3.7992007 
H     2.7307886    1.3996360   -2.4063839 
H    -0.6187088    0.1283968   -4.8494322 
H    -0.3729937    2.1675877   -6.2399439 
C     4.1827745   -3.7124767    2.0512910 
C     4.0509447   -2.3282138    1.8503753 
C     3.1661550   -1.8393840    0.8841221 
C     2.3953244   -2.7256111    0.0966174 
C     2.5184285   -4.1122653    0.3270551 
C     3.4100367   -4.6009607    1.2899574 
H     4.8776642   -4.0944838    2.8062229 
H     4.6373117   -1.6274523    2.4538955 
H     3.0545898   -0.7573188    0.7529863 
H     1.9147173   -4.8114665   -0.2609946 
H     3.4958396   -5.6804384    1.4498511 
C    -3.0888243    0.2279564    1.6985278 
C    -2.4635609   -1.1615116    1.9099602 
C    -3.2374100    0.6707732    0.2308255 
C    -0.2003047   -2.9203595    2.1581449 
C     0.0700714   -0.0428465    2.7693616 
C    -1.0100455    2.5955504   -0.0464006 
C    -2.3451731    1.4170528   -2.3780562 
C    -0.8116856   -4.0210118    1.5191240 
C    -0.2926378   -0.0692916    4.1340900 
C    -1.6693623    3.3731839    0.9253992 
C    -2.3429183    2.7197036   -2.9098319 
C     0.7250516   -3.1457384    3.1944005 
C     0.9400374    0.9633692    2.3054895 
C     0.2524665    3.0106967   -0.5231867 
C    -2.8931638    0.3564876   -3.1308873 
C    -0.5312411   -5.3262571    1.9416238 
C     0.2099087    0.8995636    5.0121827 
C    -1.0632829    4.5357313    1.4251541 
C    -2.8934558    2.9571713   -4.1781061 
C     1.0064428   -4.4561454    3.6071554 
C     1.4358554    1.9350217    3.1854608 
C     0.8455080    4.1800473   -0.0339820 
C    -3.4549631    0.6024832   -4.3898288 
C     0.3741800   -5.5451938    2.9919178 
C     1.0708073    1.9036713    4.5387432 
C     0.1925149    4.9398923    0.9502685 
C    -3.4541421    1.9048824   -4.9157217 
H    -4.1028190    0.2088729    2.1379871 
H    -2.5194130    0.9782120    2.2773271 
H    -2.6126607   -1.4920766    2.9529006 
H    -2.9451908   -1.9172078    1.2629280 
H    -3.8690127    1.5743103    0.1566555 
H    -3.7519539   -0.1128378   -0.3550705 
H    -1.5083222   -3.8611114    0.6871455 
H    -0.9618009   -0.8480887    4.5162759 
H    -2.6552365    3.0867591    1.3021153 
H    -1.9086932    3.5469761   -2.3397322 
H     1.2344445   -2.3042977    3.6726595 
H     1.2117778    0.9925131    1.2442466 
H     0.7628985    2.4193117   -1.2908681 
H    -2.8743711   -0.6668089   -2.7346735 
H    -1.0185071   -6.1738829    1.4486432 
H    -0.0728847    0.8726059    6.0695968 
H    -1.5801467    5.1295898    2.1858977 
H    -2.8832194    3.9718467   -4.5890876 
H     1.7313359   -4.6226813    4.4103066 
H     2.0993530    2.7195906    2.8083430 
H     1.8194792    4.4972132   -0.4211828 
H    -3.8866069   -0.2231621   -4.9650968 
H     0.5947223   -6.5657815    3.3210334 
H     1.4553519    2.6621536    5.2284923 
H     0.6592857    5.8495366    1.3420159 
H    -3.8879491    2.0966496   -5.9025021 
