84
Energy =
C     0.8279161   -0.6713733   -2.7101130 
C     1.7621572   -1.1394655   -1.7429424 
C     1.4857567   -2.2691410   -0.9313945 
H     2.6420604   -0.5272964   -1.5076008 
Pd   -0.0988231   -0.6846955   -0.6661452 
P    -0.6169542   -1.0296067    1.5892347 
P    -1.7750061    0.9274252   -0.8510764 
H     0.1487491   -1.4127405   -3.1574289 
H     0.7815764   -3.0166619   -1.3291674 
C     1.2594779    2.9427755   -5.0139307 
C     2.0025832    2.7779773   -3.8328726 
C     1.8756205    1.6080111   -3.0767050 
C     1.0042622    0.5704156   -3.4868995 
C     0.2769681    0.7463701   -4.6847040 
C     0.3989564    1.9201035   -5.4375402 
H     1.3573985    3.8610700   -5.6017935 
H     2.6843453    3.5678050   -3.4998408 
H     2.4534696    1.5054933   -2.1516446 
H    -0.3902118   -0.0502538   -5.0276337 
H    -0.1812624    2.0346714   -6.3584019 
C     4.1091751   -3.7830606    2.1216271 
C     4.0851353   -2.4048689    1.8491365 
C     3.2264798   -1.8962136    0.8700625 
C     2.3721553   -2.7561486    0.1415213 
C     2.3872331   -4.1349092    0.4452667 
C     3.2541114   -4.6443523    1.4193737 
H     4.7855434   -4.1803502    2.8854419 
H     4.7381021   -1.7239127    2.4049895 
H     3.2086829   -0.8180007    0.6800742 
H     1.7182715   -4.8121925   -0.0961073 
H     3.2561948   -5.7175143    1.6346629 
C    -3.3665657   -0.8785921    0.7775398 
C    -2.4394790   -0.8126365    2.0047259 
C    -3.4013204    0.3898630   -0.0928563 
C    -0.2403523   -2.6906713    2.2710865 
C     0.2433279    0.1783071    2.6641593 
C    -1.1865037    2.4027885    0.0645395 
C    -2.2944126    1.5000017   -2.5162342 
C    -0.9364686   -3.7972637    1.7372227 
C    -0.0958208    0.3077610    4.0284784 
C    -0.0550054    3.0709615   -0.4563412 
C    -2.7552577    0.5116250   -3.4129017 
C     0.7188868   -2.8948882    3.2800013 
C     1.2354075    1.0124278    2.1142396 
C    -1.7235273    2.8216934    1.2968186 
C    -2.2853438    2.8486903   -2.9164843 
C    -0.7043326   -5.0840761    2.2381535 
C     0.5530362    1.2604275    4.8246790 
C     0.5104365    4.1481691    0.2350980 
C    -3.2240524    0.8713942   -4.6818859 
C     0.9508364   -4.1879108    3.7718116 
C     1.8819718    1.9637565    2.9142579 
C    -1.1414031    3.8903637    1.9945547 
C    -2.7359119    3.2004017   -4.1977041 
C     0.2360324   -5.2801990    3.2622099 
C     1.5418552    2.0882388    4.2688443 
C    -0.0281404    4.5571307    1.4657612 
C    -3.2108630    2.2182416   -5.0779136 
H    -3.0923603   -1.7464035    0.1473288 
H    -4.3974516   -1.0671488    1.1292065 
H    -2.5464833    0.1528797    2.5288904 
H    -2.6980772   -1.6067338    2.7251139 
H    -3.8225963    1.2471065    0.4623280 
H    -4.0690366    0.2230829   -0.9546097 
H    -1.6636517   -3.6556355    0.9284444 
H    -0.8597886   -0.3395436    4.4734840 
H     0.3786168    2.7475155   -1.4089053 
H    -2.7442835   -0.5454398   -3.1176297 
H     1.2895332   -2.0512536    3.6786071 
H     1.4775696    0.9303955    1.0483764 
H    -2.5958886    2.3228821    1.7287027 
H    -1.9363234    3.6277255   -2.2323785 
H    -1.2568086   -5.9354649    1.8272121 
H     0.2875959    1.3556941    5.8826498 
H     1.3782937    4.6660639   -0.1867736 
H    -3.5887753    0.0990147   -5.3669866 
H     1.7015641   -4.3383064    4.5541391 
H     2.6431467    2.6158206    2.4746037 
H    -1.5636562    4.2008371    2.9554307 
H    -2.7227401    4.2517130   -4.5029236 
H     0.4180618   -6.2863953    3.6533160 
H     2.0449033    2.8331937    4.8940653 
H     0.4207823    5.3927605    2.0121999 
H    -3.5693013    2.5002747   -6.0732007 
