84
Energy =
C     1.1459699   -0.2399136   -2.5227447 
C     2.1224881   -0.6924012   -1.5894063 
C     1.8979892   -1.8585707   -0.8109070 
H     2.9704300   -0.0417746   -1.3432323 
Pd    0.2543753   -0.3599568   -0.4774358 
P    -0.2559066   -0.7681877    1.7554424 
P    -1.6529825    0.9481272   -0.7627600 
H     0.4881048   -0.9992990   -2.9722110 
H     1.2078530   -2.6058833   -1.2332626 
C     1.2611321    3.4616435   -4.7203083 
C     2.0954307    3.2921498   -3.6018497 
C     2.0739232    2.0946220   -2.8813663 
C     1.2173956    1.0344342   -3.2631373 
C     0.3869960    1.2188195   -4.3910674 
C     0.4093676    2.4193708   -5.1116756 
H     1.2798293    4.4006692   -5.2828403 
H     2.7662513    4.1002598   -3.2916663 
H     2.7264540    1.9867549   -2.0078414 
H    -0.2876747    0.4125786   -4.6990861 
H    -0.2447554    2.5392211   -5.9813646 
C     4.4608347   -3.4875837    2.2329071 
C     3.3967976   -4.2383412    1.7125218 
C     2.5628986   -3.6855602    0.7334537 
C     2.7773348   -2.3735836    0.2515779 
C     3.8369887   -1.6193815    0.8070342 
C     4.6719772   -2.1745649    1.7802855 
H     5.1199379   -3.9191088    2.9931249 
H     3.2206638   -5.2605102    2.0630929 
H     1.7389460   -4.2800039    0.3228369 
H     4.0129340   -0.5905298    0.4779770 
H     5.4901815   -1.5774732    2.1947464 
C    -2.8198087    0.5657132    1.8590621 
C    -1.3794900    0.5633252    2.4161796 
C    -3.0033791    0.2963500    0.3465031 
C    -1.1007612   -2.3434380    2.1415612 
C     1.2060059   -0.6358587    2.8496720 
C    -1.4995091    2.7276848   -0.3807485 
C    -2.3812033    0.8160659   -2.4385086 
C    -1.6354588   -2.5968588    3.4235861 
C     1.9337410    0.5749719    2.8194840 
C    -2.6295083    3.5367084   -0.1334316 
C    -2.6021874   -0.4791213   -2.9565081 
C    -1.2477012   -3.3098763    1.1263877 
C     1.6387175   -1.6872465    3.6786983 
C    -0.2110102    3.2969135   -0.3332525 
C    -2.6670649    1.9411137   -3.2340131 
C    -2.2987276   -3.8038467    3.6809182 
C     3.0541642    0.7427370    3.6417762 
C    -2.4649601    4.8973046    0.1590523 
C    -3.1229706   -0.6430922   -4.2457026 
C    -1.9119424   -4.5166386    1.3878650 
C     2.7674611   -1.5141843    4.4925482 
C    -0.0524630    4.6594558   -0.0457591 
C    -3.1859055    1.7699501   -4.5267332 
C    -2.4362608   -4.7638974    2.6651285 
C     3.4693213   -0.3009449    4.4841411 
C    -1.1784043    5.4587351    0.2023871 
C    -3.4159051    0.4834403   -5.0333562 
H    -3.4183303   -0.1869897    2.4022390 
H    -3.2562553    1.5501685    2.1040273 
H    -0.8644612    1.5084631    2.1631990 
H    -1.4013023    0.4984754    3.5177751 
H    -3.9757938    0.6908366    0.0046368 
H    -3.0135906   -0.7902440    0.1429905 
H    -1.5274569   -1.8572217    4.2247297 
H     1.6231780    1.3877787    2.1511965 
H    -3.6380145    3.1108594   -0.1766182 
H    -2.3577609   -1.3618186   -2.3520891 
H    -0.8416059   -3.1065761    0.1287466 
H     1.1040284   -2.6416235    3.6859948 
H     0.6621798    2.6658579   -0.5321124 
H    -2.4725089    2.9487945   -2.8544325 
H    -2.7099004   -3.9963045    4.6772015 
H     3.6066562    1.6879004    3.6228959 
H    -3.3432209    5.5221412    0.3512704 
H    -3.2970930   -1.6497760   -4.6394832 
H    -2.0215063   -5.2629017    0.5942635 
H     3.1008950   -2.3377046    5.1319669 
H     0.9505990    5.0972267   -0.0175349 
H    -3.4024118    2.6495929   -5.1415759 
H    -2.9560108   -5.7053462    2.8706108 
H     4.3468735   -0.1706912    5.1257130 
H    -1.0553568    6.5226722    0.4297787 
H    -3.8187843    0.3549415   -6.0431643 
