84
Energy =
C     2.3356948   -1.4008337   -0.5500575 
C     1.8789247   -1.0836069   -1.8558109 
C     1.5977728    0.2498545   -2.2435159 
H     1.6064473   -1.9007983   -2.5334834 
Pd    0.3288483   -0.3531084   -0.4481976 
P    -1.4293098    1.1823556   -0.6024014 
P    -0.4067544   -1.0303614    1.6640040 
H     2.8382814   -0.5988832    0.0117164 
H     2.0899756    1.0471564   -1.6658389 
C     3.4146054   -5.3264852    0.8339642 
C     2.7126633   -5.1883119   -0.3745397 
C     2.3230984   -3.9228411   -0.8229012 
C     2.6432974   -2.7616287   -0.0802703 
C     3.3335368   -2.9204187    1.1434412 
C     3.7156403   -4.1874937    1.5954541 
H     3.7201429   -6.3183519    1.1822130 
H     2.4691994   -6.0734787   -0.9713756 
H     1.7750553   -3.8402538   -1.7671627 
H     3.5779923   -2.0339624    1.7392374 
H     4.2505010   -4.2867666    2.5450760 
C     0.3154544    1.5484723   -6.1394212 
C     0.6052310    2.4796069   -5.1309114 
C     1.0067273    2.0394068   -3.8660128 
C     1.1221377    0.6603569   -3.5750490 
C     0.8095829   -0.2653351   -4.5982987 
C     0.4194507    0.1749691   -5.8666481 
H     0.0087567    1.8904223   -7.1330604 
H     0.5186987    3.5520792   -5.3308090 
H     1.2384474    2.7741481   -3.0869845 
H     0.8866307   -1.3412186   -4.4117147 
H     0.1971536   -0.5575946   -6.6495236 
C    -3.1011631   -0.0371837    1.4657208 
C    -3.0587195    0.5525552    0.0457433 
C    -2.2542976   -1.2987663    1.6994347 
C    -1.0255837    2.7047859    0.3373909 
C    -1.9448508    1.7651532   -2.2612404 
C     0.2024742   -2.5929518    2.3992954 
C    -0.1064628    0.2692660    2.9232231 
C     0.2222839    3.3129853    0.0783054 
C    -2.1487077    0.7965128   -3.2658042 
C     0.8395715   -2.6369005    3.6551909 
C    -0.8571809    0.3361120    4.1171061 
C    -1.8825662    3.2814809    1.2944199 
C    -2.2004004    3.1229565   -2.5356268 
C    -0.0108693   -3.7898323    1.6826334 
C     0.8954200    1.2309719    2.6855287 
C     0.6030372    4.4751873    0.7580276 
C    -2.6314792    1.1803789   -4.5218059 
C     1.2215743   -3.8703923    4.2022488 
C    -0.6148505    1.3578133    5.0445937 
C    -1.4888997    4.4346475    1.9900202 
C    -2.6750631    3.5009909   -3.7997556 
C     0.3679753   -5.0167989    2.2379855 
C     1.1390430    2.2482934    3.6174458 
C    -0.2500405    5.0335542    1.7235097 
C    -2.8958759    2.5326557   -4.7896515 
C     0.9792890   -5.0595615    3.5008544 
C     0.3807709    2.3155116    4.7948584 
H    -2.8228437    0.7307050    2.2089792 
H    -4.1544084   -0.2988317    1.6770088 
H    -3.3626163   -0.2087701   -0.6963639 
H    -3.7814932    1.3828352   -0.0505582 
H    -2.4662675   -2.0695051    0.9360033 
H    -2.5004935   -1.7468292    2.6780527 
H     0.8972606    2.8686788   -0.6612459 
H    -1.9193775   -0.2570341   -3.0654107 
H     1.0290039   -1.7128546    4.2103466 
H    -1.6290464   -0.4106924    4.3314465 
H    -2.8623452    2.8443917    1.5054702 
H    -2.0343133    3.8821640   -1.7644183 
H    -0.4697497   -3.7628343    0.6874978 
H     1.4736836    1.1892624    1.7553850 
H     1.5694412    4.9418449    0.5408662 
H    -2.7842408    0.4253372   -5.2989732 
H     1.7092511   -3.8991448    5.1822077 
H    -1.2036898    1.4046867    5.9664779 
H    -2.1591697    4.8682273    2.7391251 
H    -2.8756372    4.5569060   -4.0089273 
H     0.1990735   -5.9410033    1.6769037 
H     1.9132283    2.9949545    3.4163145 
H     0.0509510    5.9355302    2.2661138 
H    -3.2664307    2.8318766   -5.7754103 
H     1.2770771   -6.0208482    3.9317580 
H     0.5648396    3.1144266    5.5205810 
