84
Energy =
C     1.2904835   -0.0063785   -2.2686640 
C     2.1610465   -0.3494054   -1.1988661 
C     2.0085230   -1.5834337   -0.5097449 
H     2.8529674    0.4045400   -0.8050388 
Pd    0.1286944   -0.3425047   -0.3610206 
P    -0.6109003   -1.1355951    1.6999961 
P    -1.6282831    1.1207263   -0.8048304 
H     0.8233655   -0.8448176   -2.8072102 
H     1.5350529   -2.4022803   -1.0723081 
C     1.3749621    3.6294834   -4.5644223 
C     0.6447576    2.5177231   -5.0084774 
C     0.6138668    1.3472060   -4.2409254 
C     1.3122473    1.2636914   -3.0144459 
C     2.0202455    2.4033481   -2.5664482 
C     2.0573317    3.5678780   -3.3379336 
H     1.4085628    4.5432205   -5.1665836 
H     0.1049464    2.5574529   -5.9602178 
H     0.0513906    0.4783391   -4.5993956 
H     2.5465082    2.3830748   -1.6071218 
H     2.6159179    4.4372891   -2.9775686 
C     4.3928038   -2.9662799    2.7916043 
C     3.5696420   -3.8517266    2.0811724 
C     2.7855228   -3.3820300    1.0205756 
C     2.8094195   -2.0186177    0.6473841 
C     3.6221614   -1.1328927    1.3929100 
C     4.4102684   -1.6046711    2.4459328 
H     5.0138543   -3.3318188    3.6158037 
H     3.5448339   -4.9137991    2.3461136 
H     2.1539446   -4.0811931    0.4617720 
H     3.6391206   -0.0655745    1.1514252 
H     5.0373548   -0.9051064    3.0073363 
C    -2.4329470    1.1117269    1.9877134 
C    -2.1735055   -0.3555793    2.3778520 
C    -2.9204724    1.3019565    0.5393433 
C    -1.0018734   -2.9243348    1.7805943 
C     0.6345124   -0.7875959    3.0055420 
C    -0.9899855    2.8315062   -1.0109295 
C    -2.6500606    0.7306253   -2.2753572 
C    -1.5238666   -3.5072256    2.9569990 
C     1.1591986   -1.7765327    3.8586313 
C    -0.1560609    3.3394469    0.0102820 
C    -3.7792907    1.5101015   -2.6123278 
C    -0.8304074   -3.7243590    0.6340991 
C     1.0851993    0.5450998    3.1356863 
C    -1.2794497    3.6392083   -2.1265906 
C    -2.3393594   -0.4022430   -3.0528187 
C    -1.8425367   -4.8711727    2.9845555 
C     2.0872276   -1.4267259    4.8500778 
C     0.3359493    4.6483380   -0.0591589 
C    -4.5616049    1.1712276   -3.7240939 
C    -1.1526618   -5.0885326    0.6644967 
C     2.0040377    0.8902640    4.1339997 
C    -0.7752561    4.9459961   -2.1957840 
C    -3.1266115   -0.7405261   -4.1625914 
C    -1.6535428   -5.6637830    1.8411271 
C     2.5018339   -0.0962450    4.9992227 
C     0.0200599    5.4576810   -1.1613169 
C    -4.2342126    0.0494938   -4.5025289 
H    -3.2254079    1.4953414    2.6557582 
H    -1.5467767    1.7395076    2.1928858 
H    -2.1238964   -0.4541099    3.4761562 
H    -3.0061813   -0.9920085    2.0266615 
H    -3.3652154    2.3045982    0.4155713 
H    -3.7066402    0.5610205    0.3053903 
H    -1.6779325   -2.9008241    3.8560323 
H     0.8629890   -2.8224975    3.7427144 
H     0.1194979    2.7015978    0.8574473 
H    -4.0494069    2.3852440   -2.0116038 
H    -0.4522252   -3.2694226   -0.2876391 
H     0.7230824    1.3141473    2.4444845 
H    -1.8796464    3.2488734   -2.9527762 
H    -1.4819538   -1.0253304   -2.7767418 
H    -2.2421318   -5.3163423    3.9015225 
H     2.4940603   -2.2056464    5.5027665 
H     0.9733044    5.0336977    0.7434465 
H    -5.4316398    1.7837958   -3.9819383 
H    -1.0161464   -5.7008877   -0.2327724 
H     2.3375539    1.9286344    4.2313103 
H    -1.0003879    5.5621619   -3.0720699 
H    -2.8768853   -1.6241249   -4.7588853 
H    -1.9046740   -6.7291332    1.8666887 
H     3.2236630    0.1703505    5.7780044 
H     0.4070745    6.4801034   -1.2201826 
H    -4.8490035   -0.2124104   -5.3697590 
