84
Energy =
C     0.5062699    2.0682191    1.5339136 
C    -0.8962714    2.0322546    1.3142476 
C    -1.6583163    0.8857912    1.6627863 
H    -1.3735014    2.8373307    0.7431902 
Pd   -0.0560903    0.3353379    0.1720220 
P    -1.1992938   -1.4142440   -0.8412003 
P     2.0488174   -0.2140297   -0.6705509 
H     0.9085507    1.3953486    2.3068771 
H    -1.2387001    0.2439670    2.4521485 
C     3.1757980    5.2887117    0.5194795 
C     3.6123753    4.2107601    1.3034920 
C     2.7259258    3.1796010    1.6332536 
C     1.3894716    3.1909053    1.1731411 
C     0.9625458    4.2887344    0.3894542 
C     1.8443021    5.3266682    0.0730302 
H     3.8652809    6.0995574    0.2637597 
H     4.6447998    4.1783736    1.6665560 
H     3.0631937    2.3500851    2.2634354 
H    -0.0666378    4.3349879    0.0185510 
H     1.4927812    6.1712515   -0.5288556 
C    -5.9061640    0.4022012    1.2213459 
C    -5.2429089    1.3973337    0.4836636 
C    -3.8582942    1.5515200    0.5908875 
C    -3.1057783    0.7206134    1.4535064 
C    -3.7828435   -0.2942226    2.1684898 
C    -5.1696821   -0.4501232    2.0565293 
H    -6.9918133    0.2884652    1.1373616 
H    -5.8099594    2.0526227   -0.1847663 
H    -3.3595394    2.3240978   -0.0027503 
H    -3.2128819   -0.9558006    2.8303553 
H    -5.6769499   -1.2331135    2.6295792 
C     1.0898041   -2.6242568   -2.0561882 
C     2.1507050   -1.5104382   -2.0183424 
C    -0.3433432   -2.1338026   -2.3302047 
C     3.1072763    1.0976134   -1.3807747 
C     2.9418608   -0.9292435    0.7681344 
C    -1.4732311   -2.8734753    0.2367219 
C    -2.8206323   -0.9136006   -1.5336161 
C     4.4898308    0.9041149   -1.5943302 
C     2.4936308   -2.1613844    1.2953816 
C    -2.0526890   -4.0614966   -0.2613317 
C    -4.0387137   -1.5226611   -1.1801853 
C     2.4969454    2.2918366   -1.8080803 
C     3.9769030   -0.2374590    1.4313478 
C    -1.0606689   -2.8230170    1.5834776 
C    -2.8179754    0.1534692   -2.4598426 
C     5.2487365    1.9090002   -2.2076251 
C     3.0820612   -2.6978399    2.4473500 
C    -2.2238116   -5.1685871    0.5799637 
C    -5.2330662   -1.0907979   -1.7748215 
C     3.2607279    3.2920197   -2.4246066 
C     4.5586473   -0.7774511    2.5882114 
C    -1.2291627   -3.9341238    2.4219998 
C    -4.0132578    0.5739052   -3.0548767 
C     4.6361732    3.1037680   -2.6192396 
C     4.1159580   -2.0065451    3.0981779 
C    -1.8135234   -5.1065104    1.9215486 
C    -5.2230535   -0.0532493   -2.7170875 
H     1.3749730   -3.3135305   -2.8716229 
H     1.1126764   -3.2341250   -1.1343470 
H     3.1646315   -1.9442728   -1.9551725 
H     2.1074107   -0.9286383   -2.9574152 
H    -0.9752629   -2.9611852   -2.6971844 
H    -0.3545450   -1.3540093   -3.1133285 
H     4.9753457   -0.0264547   -1.2801659 
H     1.6725569   -2.7031143    0.8156175 
H    -2.3805959   -4.1247036   -1.3046787 
H    -4.0627184   -2.3219640   -0.4344124 
H     1.4233234    2.4363397   -1.6477861 
H     4.3326268    0.7214214    1.0438526 
H    -0.5921816   -1.9111967    1.9690941 
H    -1.8774604    0.6584477   -2.7130265 
H     6.3212304    1.7576701   -2.3680496 
H     2.7269769   -3.6570219    2.8385840 
H    -2.6778939   -6.0838022    0.1864863 
H    -6.1771997   -1.5663349   -1.4907979 
H     2.7803617    4.2219391   -2.7435626 
H     5.3652651   -0.2331195    3.0904093 
H    -0.9013782   -3.8829515    3.4654695 
H    -4.0014146    1.3941359   -3.7800947 
H     5.2341333    3.8872198   -3.0962063 
H     4.5744448   -2.4246251    4.0000840 
H    -1.9472074   -5.9749540    2.5747592 
H    -6.1587164    0.2758361   -3.1806004 
