84
Energy =
C    -1.9188248    1.3756050    0.9912037 
C    -0.7407047    1.7034634    1.7163592 
C     0.3605313    2.3082962    1.0506382 
H    -0.6290263    1.3646775    2.7535819 
Pd   -0.1256570    0.3014905    0.1376772 
P     1.9883793   -0.1760517   -0.7142293 
P    -1.2601482   -1.5075801   -0.7924445 
H    -2.1090519    1.9647033    0.0814052 
H     0.1238262    2.8802406    0.1407574 
C    -5.4946013   -0.3738758    2.6087396 
C    -4.2733907   -0.5488235    3.2814577 
C    -3.0942006   -0.0148031    2.7553997 
C    -3.1136446    0.7207271    1.5475022 
C    -4.3433570    0.8590451    0.8635875 
C    -5.5237331    0.3224352    1.3919690 
H    -6.4166175   -0.7892407    3.0281480 
H    -4.2411280   -1.1122193    4.2192578 
H    -2.1500590   -0.1741252    3.2862269 
H    -4.3710595    1.4097682   -0.0835984 
H    -6.4691122    0.4547244    0.8556417 
C     4.0576971    3.5350591    2.8637801 
C     3.6414232    4.0833107    1.6421893 
C     2.4496448    3.6488781    1.0493775 
C     1.6450362    2.6674581    1.6725706 
C     2.0964644    2.0978992    2.8859396 
C     3.2856142    2.5334619    3.4763886 
H     4.9855526    3.8770898    3.3335412 
H     4.2422246    4.8566643    1.1524552 
H     2.1226414    4.0856231    0.0987900 
H     1.5160651    1.3056856    3.3698237 
H     3.6186276    2.0848152    4.4174926 
C     1.0167040   -2.3409937   -2.3326164 
C    -0.1868866   -2.8496759   -1.5180405 
C     2.1960309   -1.8732224   -1.4599770 
C    -2.2803249   -2.4333815    0.4178043 
C    -2.3490354   -1.0306146   -2.1898698 
C     2.4793981    0.9497009   -2.0771764 
C     3.3196096   -0.1361840    0.5461916 
C    -1.6040744   -3.0196940    1.5114394 
C    -3.1108999   -1.9917871   -2.8905633 
C     3.7232309    0.8129890   -2.7324916 
C     3.2182798   -1.0508900    1.6187364 
C    -3.6802787   -2.5472400    0.3301735 
C    -2.4015975    0.3170748   -2.5974398 
C     1.5840085    1.9498607   -2.5050650 
C     4.3916407    0.7752235    0.5152096 
C    -2.3129793   -3.7474841    2.4740663 
C    -3.9188020   -1.6022433   -3.9664698 
C     4.0634166    1.6732185   -3.7843331 
C     4.1997704   -1.0836646    2.6161032 
C    -4.3849538   -3.2729109    1.3014671 
C    -3.2078144    0.7037020   -3.6774043 
C     1.9250275    2.8066017   -3.5613138 
C     5.3680794    0.7410963    1.5211962 
C    -3.7062061   -3.8815856    2.3656554 
C    -3.9698743   -0.2551818   -4.3599314 
C     3.1664287    2.6710376   -4.1990017 
C     5.2819612   -0.1909398    2.5641757 
H     1.3732219   -3.1732911   -2.9654282 
H     0.7060226   -1.5409587   -3.0326505 
H    -0.8451764   -3.4790745   -2.1416549 
H     0.1527740   -3.4817871   -0.6779781 
H     3.1319556   -1.8493863   -2.0447069 
H     2.3622930   -2.5762430   -0.6240677 
H    -0.5176752   -2.9041707    1.6125274 
H    -3.0848966   -3.0458628   -2.5922072 
H     4.4349780    0.0419168   -2.4170448 
H     2.3661250   -1.7395947    1.6762530 
H    -4.2253321   -2.0651626   -0.4858416 
H    -1.7969526    1.0614030   -2.0672923 
H     0.6111849    2.0457529   -2.0098057 
H     4.4646696    1.5174254   -0.2842629 
H    -1.7784517   -4.2077012    3.3115280 
H    -4.5100936   -2.3531107   -4.5005667 
H     5.0318095    1.5636195   -4.2832162 
H     4.1184443   -1.8040794    3.4366177 
H    -5.4739002   -3.3533917    1.2261134 
H    -3.2382467    1.7534414   -3.9869395 
H     1.2197611    3.5778934   -3.8875137 
H     6.1963876    1.4558228    1.4895623 
H    -4.2622884   -4.4502721    3.1179405 
H    -4.6016971    0.0446544   -5.2023004 
H     3.4355534    3.3398943   -5.0229504 
H     6.0502599   -0.2149511    3.3437316 
