84
Energy =
C     0.5585005    1.7713867    1.8317053 
C    -0.8070322    1.8644470    1.4482059 
C    -1.7226402    0.8277678    1.7757437 
H    -1.1210573    2.6641716    0.7669908 
Pd   -0.0272006    0.0350097    0.5120116 
P    -1.1974668   -1.6830729   -0.5381498 
P     2.0565830   -0.3396009   -0.4586835 
H     0.7779096    1.1475864    2.7113787 
H    -1.4739150    0.2158326    2.6559855 
C     3.6416712    4.6514201    0.9973387 
C     3.8378882    3.6488509    1.9578937 
C     2.8309912    2.7079053    2.2049430 
C     1.6071741    2.7505508    1.4983406 
C     1.4361836    3.7501746    0.5122819 
C     2.4388989    4.6934104    0.2725451 
H     4.4235306    5.3940090    0.8078639 
H     4.7736610    3.6043302    2.5245952 
H     2.9860848    1.9345707    2.9650840 
H     0.5136224    3.7927549   -0.0749850 
H     2.2858870    5.4628817   -0.4905596 
C    -5.9010681    0.7017454    0.7647175 
C    -5.3705129   -0.1651585    1.7307683 
C    -4.0046345   -0.1235388    2.0355856 
C    -3.1414671    0.7858271    1.3822341 
C    -3.6866615    1.6332236    0.3895141 
C    -5.0515708    1.5961937    0.0923836 
H    -6.9702144    0.6778859    0.5302692 
H    -6.0230550   -0.8697802    2.2566295 
H    -3.5987952   -0.7951612    2.7998124 
H    -3.0411893    2.3273399   -0.1575928 
H    -5.4559187    2.2640344   -0.6746268 
C     0.8604115   -1.9333416   -2.5756559 
C     2.1397598   -1.6912874   -1.7530788 
C    -0.2494806   -2.6783018   -1.8109377 
C     2.6104092    1.1554022   -1.3726668 
C     3.4065672   -0.8140380    0.6863589 
C    -1.8643828   -2.9904345    0.5593750 
C    -2.6053488   -0.9988047   -1.5007329 
C     1.7180993    1.7053777   -2.3199454 
C     4.6977709   -1.1283908    0.2066104 
C    -2.5384728   -4.1155333    0.0340395 
C    -2.3214261    0.0364138   -2.4193547 
C     3.8575868    1.7735567   -1.1642605 
C     3.1405197   -0.9200492    2.0655355 
C    -1.6529177   -2.9023096    1.9492467 
C    -3.9326539   -1.4442439   -1.3565271 
C     2.0879152    2.8210821   -3.0805425 
C     5.7052482   -1.5151081    1.0999932 
C    -3.0116711   -5.1163788    0.8926013 
C    -3.3374642    0.5788577   -3.2152206 
C     4.2184095    2.8973049   -1.9216069 
C     4.1503338   -1.3104939    2.9563844 
C    -2.1252107   -3.9073174    2.8052467 
C    -4.9482130   -0.8896122   -2.1488032 
C     3.3444760    3.4153589   -2.8871180 
C     5.4346297   -1.6022146    2.4749533 
C    -2.8098339   -5.0117530    2.2781003 
C    -4.6539927    0.1102239   -3.0859096 
H     0.4802774   -0.9884453   -3.0046566 
H     1.1396233   -2.5583674   -3.4433201 
H     2.4190791   -2.6126996   -1.2102272 
H     2.9796385   -1.4354521   -2.4221619 
H     0.1803986   -3.5373340   -1.2641161 
H    -0.9965734   -3.0783025   -2.5182289 
H     0.7241164    1.2645096   -2.4539805 
H     4.9225073   -1.0676713   -0.8636624 
H    -2.7006299   -4.2121852   -1.0449704 
H    -1.3014411    0.4274672   -2.5028960 
H     4.5429477    1.3957701   -0.4008244 
H     2.1328942   -0.7051163    2.4371315 
H    -1.1055127   -2.0456162    2.3567435 
H    -4.1837229   -2.2082039   -0.6158850 
H     1.3913423    3.2316786   -3.8188710 
H     6.7047620   -1.7516007    0.7208722 
H    -3.5376967   -5.9824117    0.4779172 
H    -3.1026089    1.3734417   -3.9310284 
H     5.1877832    3.3742200   -1.7452944 
H     3.9321387   -1.3908133    4.0262771 
H    -1.9542978   -3.8292764    3.8838936 
H    -5.9780976   -1.2382337   -2.0221943 
H     3.6343721    4.2904272   -3.4777030 
H     6.2246589   -1.9056478    3.1695590 
H    -3.1801007   -5.7967662    2.9454289 
H    -5.4511131    0.5356661   -3.7041113 
