84
Energy =
C     0.5146910    1.8799118    1.6594126 
C    -0.8569288    1.9900545    1.3012986 
C    -1.7605440    0.9350601    1.6046624 
H    -1.1877431    2.8235816    0.6697309 
Pd   -0.0906414    0.2037476    0.2732039 
P    -1.2321176   -1.5729434   -0.7080929 
P     2.0121204   -0.2317422   -0.6281137 
H     0.7439916    1.2168359    2.5071960 
H    -1.4867684    0.2893321    2.4525654 
C     3.5497899    4.8506915    1.0075584 
C     2.4029336    4.8435308    0.1956139 
C     1.4196960    3.8662797    0.3705402 
C     1.5561591    2.8801741    1.3752148 
C     2.7313669    2.8782871    2.1611821 
C     3.7160496    3.8577365    1.9835284 
H     4.3146307    5.6219530    0.8703784 
H     2.2798524    5.6016916   -0.5841027 
H     0.5407711    3.8668897   -0.2822625 
H     2.8604911    2.1085312    2.9306880 
H     4.6114136    3.8494571    2.6137299 
C    -5.9779633    0.8907658    0.7833845 
C    -5.1339931    1.7190369    0.0242505 
C    -3.7557466    1.7240457    0.2541864 
C    -3.1917162    0.9082440    1.2624792 
C    -4.0482344    0.0543075    1.9947093 
C    -5.4289081    0.0498101    1.7619013 
H    -7.0578689    0.8949540    0.6034053 
H    -5.5545902    2.3597244   -0.7571391 
H    -3.1123436    2.3646243   -0.3575409 
H    -3.6232340   -0.5983018    2.7658889 
H    -6.0777452   -0.6065122    2.3511006 
C     1.1686021   -2.7189840   -1.7916931 
C     2.0562444   -1.4803528   -2.0132700 
C    -0.3238758   -2.4641389   -2.0720651 
C     2.8009671    1.2346306   -1.3962556 
C     3.1900375   -0.9169964    0.6001329 
C    -1.6344578   -2.9112012    0.4806339 
C    -2.7911187   -1.0751044   -1.5354169 
C     4.0021633    1.8033592   -0.9331765 
C     2.7577396   -1.1452206    1.9215303 
C    -1.2228181   -2.7920040    1.8227894 
C    -4.0625288   -1.5316630   -1.1408064 
C     2.1241629    1.8334955   -2.4827288 
C     4.5142449   -1.2530385    0.2414121 
C    -2.3181790   -4.0774475    0.0714376 
C    -2.6860385   -0.1485265   -2.5973097 
C     4.5369215    2.9287136   -1.5767874 
C     3.6324917   -1.6880640    2.8733879 
C    -1.4970469   -3.8116882    2.7451827 
C    -5.2055284   -1.0979427   -1.8278913 
C     2.6663967    2.9532242   -3.1239774 
C     5.3875066   -1.7909172    1.1953508 
C    -2.5950780   -5.0925991    0.9959636 
C    -3.8304085    0.2756410   -3.2824188 
C     3.8799176    3.4983749   -2.6757191 
C     4.9490042   -2.0073619    2.5117737 
C    -2.1868334   -4.9607384    2.3330850 
C    -5.0932813   -0.2056153   -2.9025449 
H     1.5124896   -3.5096824   -2.4822737 
H     1.3116747   -3.1259417   -0.7715359 
H     3.1127972   -1.7724481   -2.1421080 
H     1.7589811   -0.9505714   -2.9360798 
H    -0.8596672   -3.4142748   -2.2407391 
H    -0.4484579   -1.8626387   -2.9903887 
H     4.5184305    1.3792301   -0.0677742 
H     1.7251438   -0.9031721    2.1971793 
H    -0.6755731   -1.8965618    2.1383469 
H    -4.1674847   -2.2160888   -0.2946472 
H     1.1664067    1.4241474   -2.8276430 
H     4.8719914   -1.0859695   -0.7807845 
H    -2.6464605   -4.1926295   -0.9676421 
H    -1.7044124    0.2462048   -2.8880598 
H     5.4702851    3.3650769   -1.2075868 
H     3.2845601   -1.8636095    3.8965228 
H    -1.1694390   -3.7093582    3.7848431 
H    -6.1900679   -1.4566412   -1.5117864 
H     2.1399393    3.4031021   -3.9720848 
H     6.4139819   -2.0431443    0.9100678 
H    -3.1305048   -5.9906987    0.6713122 
H    -3.7373794    0.9852975   -4.1110191 
H     4.3053903    4.3742182   -3.1761305 
H     5.6344892   -2.4295066    3.2538239 
H    -2.4037079   -5.7574846    3.0520388 
H    -5.9894829    0.1255518   -3.4370286 
