84
Energy =
C     0.5305606    1.7817764    1.8316767 
C    -0.8316258    1.8647750    1.4346587 
C    -1.7440572    0.8231850    1.7561171 
H    -1.1438599    2.6603118    0.7477375 
Pd   -0.0325113    0.0367890    0.5118690 
P    -1.1819188   -1.6946765   -0.5389175 
P     2.0613071   -0.3261109   -0.4417942 
H     0.7459321    1.1610444    2.7145104 
H    -1.5019566    0.2171518    2.6422405 
C     3.5992588    4.6846209    1.0241819 
C     2.4039669    4.7155932    0.2865384 
C     1.4067298    3.7642468    0.5167721 
C     1.5754333    2.7676114    1.5062697 
C     2.7922116    2.7357136    2.2254878 
C     3.7938831    3.6846010    1.9877111 
H     4.3767461    5.4336668    0.8422288 
H     2.2526222    5.4828621   -0.4791155 
H     0.4901599    3.7982839   -0.0803451 
H     2.9457171    1.9643318    2.9879702 
H     4.7243955    3.6479857    2.5635764 
C    -5.9087622    0.6649623    0.6936232 
C    -5.0557500    1.5583695    0.0243899 
C    -3.6951066    1.6061166    0.3390039 
C    -3.1579999    0.7707675    1.3462346 
C    -4.0243844   -0.1376615    1.9965706 
C    -5.3859250   -0.1899626    1.6744430 
H    -6.9746537    0.6329233    0.4457106 
H    -5.4538498    2.2168595   -0.7538879 
H    -3.0463131    2.2985858   -0.2062894 
H    -3.6246085   -0.8002783    2.7717599 
H    -6.0412939   -0.8934353    2.1983290 
C     0.8919298   -1.9408728   -2.5593149 
C     2.1653206   -1.6796270   -1.7333844 
C    -0.2131844   -2.6921079   -1.7937013 
C     2.6134681    1.1711082   -1.3530969 
C     3.4044165   -0.7887147    0.7160988 
C    -1.8509542   -2.9997578    0.5603470 
C    -2.5837754   -1.0264340   -1.5212565 
C     1.7292845    1.7090807   -2.3147789 
C     3.1262252   -0.8972696    2.0926743 
C    -2.5097978   -4.1340153    0.0352851 
C    -2.2978432    0.0091917   -2.4388325 
C     3.8510847    1.8026540   -1.1285724 
C     4.7028005   -1.0915503    0.2484531 
C    -1.6555415   -2.9008046    1.9518203 
C    -3.9083114   -1.4853381   -1.3944915 
C     2.0981470    2.8269866   -3.0726003 
C     4.1308207   -1.2797110    2.9928654 
C    -2.9839243   -5.1331954    0.8952959 
C    -3.3079657    0.5381841   -3.2511021 
C     4.2110461    2.9281691   -1.8837174 
C     5.7050134   -1.4700886    1.1511828 
C    -2.1286422   -3.9041368    2.8093112 
C    -4.9182105   -0.9439785   -2.2029762 
C     3.3454435    3.4350450   -2.8625458 
C     5.4220298   -1.5603647    2.5234666 
C    -2.7978863   -5.0179426    2.2821462 
C    -4.6211095    0.0557908   -3.1392962 
H     0.5032875   -1.0032209   -2.9965412 
H     1.1816485   -2.5688185   -3.4214203 
H     2.4546582   -2.5960980   -1.1874582 
H     3.0039890   -1.4145168   -2.4003478 
H     0.2237278   -3.5395039   -1.2344336 
H    -0.9504013   -3.1093017   -2.5014438 
H     0.7427280    1.2563530   -2.4633670 
H     2.1134487   -0.6903922    2.4547997 
H    -2.6595294   -4.2392633   -1.0447041 
H    -1.2810617    0.4111828   -2.5084592 
H     4.5295707    1.4336896   -0.3547448 
H     4.9369717   -1.0282159   -0.8196592 
H    -1.1197318   -2.0369728    2.3595263 
H    -4.1618462   -2.2499599   -0.6553691 
H     1.4080733    3.2283969   -3.8220045 
H     3.9032480   -1.3623871    4.0606207 
H    -3.4982780   -6.0062414    0.4806673 
H    -3.0713666    1.3332816   -3.9657629 
H     5.1727844    3.4155840   -1.6947879 
H     6.7100560   -1.6979650    0.7815047 
H    -1.9703981   -3.8174103    3.8892304 
H    -5.9461075   -1.3030200   -2.0899763 
H     3.6340540    4.3124619   -3.4502757 
H     6.2079117   -1.8577235    3.2253757 
H    -3.1678563   -5.8021804    2.9505534 
H    -5.4138120    0.4709313   -3.7700632 
