84
Energy =
C     0.4657969    2.4294887    1.2232075 
C    -0.9490843    2.2319308    1.2102557 
C    -1.5232536    1.1141435    1.8606752 
H    -1.5793279    2.8731814    0.5806353 
Pd   -0.0216417    0.4738794    0.2679872 
P    -1.0265998   -1.4841398   -0.5361378 
P     2.0214305   -0.0597837   -0.7203637 
H     1.0144059    2.0370850    2.0927973 
H    -0.9271337    0.6529072    2.6639812 
C     2.4035477    5.7258895   -0.7471471 
C     1.2166832    5.1975239   -1.2817763 
C     0.5934498    4.1064436   -0.6678481 
C     1.1370659    3.5270357    0.5033463 
C     2.3477002    4.0490646    1.0099663 
C     2.9707724    5.1409121    0.3944475 
H     2.8882137    6.5831073   -1.2255770 
H     0.7768688    5.6389935   -2.1822684 
H    -0.3232222    3.6937632   -1.1046254 
H     2.7931875    3.6012894    1.9047822 
H     3.9041639    5.5357923    0.8078468 
C    -5.6789117    0.0288268    2.0359346 
C    -4.7961298   -0.3396170    3.0618638 
C    -3.4431883    0.0126253    2.9832474 
C    -2.9526496    0.7665077    1.8921716 
C    -3.8589617    1.1485472    0.8760134 
C    -5.2035201    0.7729676    0.9414625 
H    -6.7341986   -0.2581551    2.0876572 
H    -5.1591992   -0.9132522    3.9208206 
H    -2.7531379   -0.2972616    3.7755233 
H    -3.5057059    1.7247937    0.0166945 
H    -5.8853212    1.0600257    0.1345051 
C     0.5989532   -1.4622365   -2.8266778 
C     1.9207009   -0.7648674   -2.4504506 
C     0.0305652   -2.4194568   -1.7567458 
C     3.3510359    1.1940235   -0.8550186 
C     2.7551753   -1.4164832    0.2884758 
C    -1.5693431   -2.7276448    0.6887799 
C    -2.4949210   -1.0677669   -1.5580423 
C     3.2634182    2.1906518   -1.8508389 
C     3.8822862   -2.1400091   -0.1585516 
C    -0.6655958   -3.7082951    1.1543953 
C    -3.4733604   -2.0293350   -1.8853488 
C     4.4305675    1.2155892    0.0518442 
C     2.1931087   -1.7285165    1.5427729 
C    -2.8619737   -2.6565038    1.2514135 
C    -2.5995435    0.2340203   -2.0889508 
C     4.2683998    3.1575538   -1.9687754 
C     4.4198845   -3.1655124    0.6295558 
C    -1.0553330   -4.6075555    2.1552085 
C    -4.5507618   -1.6799102   -2.7101060 
C     5.4304226    2.1914649   -0.0690983 
C     2.7336550   -2.7553487    2.3307660 
C    -3.2441205   -3.5622041    2.2503781 
C    -3.6717778    0.5762311   -2.9245360 
C     5.3579872    3.1549830   -1.0846504 
C     3.8447756   -3.4769974    1.8729299 
C    -2.3451442   -4.5378731    2.7047761 
C    -4.6527444   -0.3788949   -3.2285449 
H    -0.1623165   -0.7014318   -3.0818346 
H     0.7749980   -2.0314188   -3.7564179 
H     2.7727549   -1.4595226   -2.5544118 
H     2.1111689    0.0719459   -3.1426935 
H     0.8406337   -2.9379749   -1.2136350 
H    -0.6153728   -3.1904193   -2.2110135 
H     2.4093004    2.2213201   -2.5361295 
H     4.3548446   -1.8959961   -1.1165460 
H     0.3465599   -3.7751014    0.7442863 
H    -3.4006198   -3.0478746   -1.4891129 
H     4.5019334    0.4610345    0.8417871 
H     1.3174643   -1.1679791    1.8953082 
H    -3.5738970   -1.9010705    0.9060894 
H    -1.8354150    0.9802292   -1.8338612 
H     4.1926106    3.9228625   -2.7471743 
H     5.2938353   -3.7211538    0.2743577 
H    -0.3484847   -5.3682100    2.5028255 
H    -5.3124972   -2.4281688   -2.9523071 
H     6.2724092    2.1912854    0.6308783 
H     2.2806847   -2.9919473    3.2988524 
H    -4.2515042   -3.4981395    2.6741647 
H    -3.7444641    1.5898043   -3.3323107 
H     6.1435312    3.9113463   -1.1810485 
H     4.2680893   -4.2801380    2.4849738 
H    -2.6485427   -5.2448831    3.4837339 
H    -5.4961204   -0.1120204   -3.8737991 
