84
Energy =
C    -1.9453963    1.5253334    0.8338123 
C    -0.7467276    1.8193047    1.5387343 
C     0.3508788    2.4313733    0.8744407 
H    -0.6130574    1.4347432    2.5568130 
Pd   -0.1819743    0.4653240   -0.0983690 
P     1.9419489   -0.0833856   -0.8803918 
P    -1.3312690   -1.3799203   -0.9343080 
H    -2.1567567    2.1453741   -0.0505717 
H     0.1091161    3.0406926   -0.0095677 
C    -5.4576730   -0.3600363    2.4480414 
C    -5.5043109    0.3078038    1.2159105 
C    -4.3477641    0.9013639    0.6959924 
C    -3.1216181    0.8408219    1.3972079 
C    -3.0845175    0.1386332    2.6245811 
C    -4.2414951   -0.4462249    3.1460190 
H    -6.3621258   -0.8177046    2.8616831 
H    -6.4459764    0.3759773    0.6614248 
H    -4.3936357    1.4314590   -0.2614652 
H    -2.1449332    0.0457951    3.1780597 
H    -4.1940850   -0.9806068    4.0999368 
C     4.1496570    3.4352257    2.6228295 
C     3.3017955    2.5280978    3.2800871 
C     2.0749965    2.1707687    2.7145668 
C     1.6590527    2.7280665    1.4828001 
C     2.5320940    3.6228312    0.8225393 
C     3.7644503    3.9738651    1.3867749 
H     5.1088023    3.7142302    3.0709594 
H     3.6040130    2.0903847    4.2365492 
H     1.4372782    1.4506670    3.2366945 
H     2.2321154    4.0559604   -0.1378500 
H     4.4204679    4.6774964    0.8639397 
C     1.1505871   -2.8506267   -1.2878110 
C    -0.2970740   -2.6885322   -1.7875247 
C     2.1058208   -1.7344904   -1.7503347 
C    -2.1337144   -2.3042744    0.4361139 
C    -2.6204577   -1.0238056   -2.1872552 
C     2.6705689    1.0737382   -2.1005309 
C     3.1240259   -0.2246829    0.5191408 
C    -1.3203115   -2.6823637    1.5277140 
C    -3.3397626   -2.0647932   -2.8159592 
C     3.9246960    0.8156050   -2.6977227 
C     4.3435867    0.4754376    0.5773198 
C    -3.5014705   -2.6357436    0.4512912 
C    -2.8616759    0.3093116   -2.5729078 
C     1.9428259    2.2136263   -2.4942346 
C     2.7659223   -1.0759711    1.5883574 
C    -1.8546316   -3.4223405    2.5893363 
C    -4.2989359   -1.7669632   -3.7927200 
C     4.4450008    1.7001314   -3.6514346 
C     5.2054688    0.2926912    1.6682958 
C    -4.0334710   -3.3678878    1.5225286 
C    -3.8204310    0.6035475   -3.5526626 
C     2.4652286    3.0950636   -3.4512206 
C     3.6351510   -1.2626599    2.6698173 
C    -3.2135148   -3.7730967    2.5845600 
C    -4.5436595   -0.4337590   -4.1587609 
C     3.7189089    2.8419252   -4.0260724 
C     4.8621844   -0.5825870    2.7076738 
H     1.1795188   -2.9671018   -0.1890822 
H     1.5351310   -3.8035785   -1.6944202 
H    -0.2981854   -2.4234805   -2.8606336 
H    -0.8450559   -3.6409480   -1.6826114 
H     1.9512468   -1.5273057   -2.8249960 
H     3.1547240   -2.0542953   -1.6240072 
H    -0.2659616   -2.3851450    1.5517109 
H    -3.1580584   -3.1098011   -2.5423041 
H     4.5012215   -0.0725993   -2.4174693 
H     4.6178087    1.1779241   -0.2142444 
H    -4.1598560   -2.3097776   -0.3583079 
H    -2.2853084    1.1162016   -2.1078805 
H     0.9576112    2.4010802   -2.0540136 
H     1.7962916   -1.5861911    1.5792923 
H    -1.2115524   -3.7179105    3.4247791 
H    -4.8553680   -2.5790830   -4.2718252 
H     5.4200160    1.4957828   -4.1056344 
H     6.1477005    0.8485414    1.7064690 
H    -5.1003292   -3.6129777    1.5273346 
H    -3.9989328    1.6433345   -3.8454346 
H     1.8901518    3.9772439   -3.7508550 
H     3.3507420   -1.9332825    3.4873204 
H    -3.6349099   -4.3477014    3.4157263 
H    -5.2933054   -0.2055061   -4.9233675 
H     4.1286410    3.5298319   -4.7727916 
H     5.5418020   -0.7234699    3.5543749 
