84
Energy =
C    -2.0781834    1.6982749    0.7291374 
C    -0.9351134    2.1298502    1.4525552 
C     0.1960994    2.6697033    0.7755600 
H    -0.8535899    1.8817148    2.5177360 
Pd   -0.2409675    0.6130443    0.0196691 
P     1.7747948    0.1011812   -1.0310275 
P    -1.1501790   -1.4575054   -0.5288340 
H    -2.2471232    2.1709698   -0.2511896 
H     0.0148559    3.1786222   -0.1833433 
C    -5.6163216   -0.1556891    2.3209557 
C    -5.5888437    0.3277323    1.0048023 
C    -4.4231472    0.9148371    0.4988026 
C    -3.2626068    1.0338336    1.2978545 
C    -3.2976580    0.5159582    2.6134783 
C    -4.4640134   -0.0641882    3.1192825 
H    -6.5284306   -0.6085012    2.7229022 
H    -6.4800037    0.2557931    0.3727562 
H    -4.4102702    1.2999434   -0.5270315 
H    -2.4083408    0.5658237    3.2493568 
H    -4.4738871   -0.4545325    4.1416692 
C     3.9842838    3.6602752    2.5683198 
C     3.0835037    2.8328752    3.2609231 
C     1.8479816    2.5064665    2.6947478 
C     1.4812406    3.0013552    1.4203536 
C     2.3963723    3.8333341    0.7376604 
C     3.6338827    4.1595351    1.3062215 
H     4.9512593    3.9145393    3.0142553 
H     3.3483311    2.4413432    4.2487462 
H     1.1643085    1.8536059    3.2488225 
H     2.1342843    4.2210284   -0.2527980 
H     4.3267608    4.8052392    0.7571072 
C     1.0250704   -2.4643805   -2.1463456 
C     0.2029671   -2.6945076   -0.8598221 
C     1.4285245   -1.0100580   -2.4887240 
C    -2.0506724   -2.2191001    0.8715807 
C    -2.2355595   -1.5318215   -1.9986983 
C     2.5968246    1.5517508   -1.7895486 
C     3.0301596   -0.7636117   -0.0242806 
C    -3.4017573   -2.6043191    0.7954702 
C    -2.6084725   -0.3323878   -2.6377254 
C     3.9356461    1.8917073   -1.5208443 
C     4.0935402   -1.4799304   -0.6146410 
C    -1.3426747   -2.3889806    2.0826280 
C    -2.6789838   -2.7650734   -2.5243890 
C     1.8213563    2.3808692   -2.6297423 
C     2.9198310   -0.7115286    1.3799201 
C    -4.0252768   -3.1839494    1.9098001 
C    -3.4200018   -0.3613652   -3.7807796 
C     4.4961193    3.0390824   -2.1028625 
C     5.0290657   -2.1372308    0.1957023 
C    -1.9698998   -2.9768221    3.1874719 
C    -3.4899240   -2.7898518   -3.6666295 
C     2.3874770    3.5222707   -3.2101623 
C     3.8617300   -1.3655260    2.1857711 
C    -3.3118647   -3.3804029    3.1002345 
C    -3.8618494   -1.5896819   -4.2940370 
C     3.7278338    3.8528385   -2.9468246 
C     4.9139675   -2.0804788    1.5941813 
H     1.9384132   -3.0785533   -2.0562571 
H     0.4633537   -2.8623142   -3.0101113 
H    -0.2342373   -3.7079436   -0.8679705 
H     0.8539124   -2.6361467    0.0319586 
H     0.6109152   -0.4957161   -3.0267253 
H     2.3017216   -1.0057111   -3.1636963 
H    -3.9708819   -2.4460122   -0.1251518 
H    -2.2539956    0.6234309   -2.2347078 
H     4.5373221    1.2727394   -0.8483090 
H     4.1988888   -1.5201642   -1.7043381 
H    -0.2988686   -2.0603995    2.1609607 
H    -2.4001613   -3.7065740   -2.0382573 
H     0.7690924    2.1371079   -2.8233692 
H     2.0966211   -0.1484013    1.8331757 
H    -5.0779717   -3.4769593    1.8451511 
H    -3.7061102    0.5746443   -4.2713791 
H     5.5373475    3.2995080   -1.8867135 
H     5.8516822   -2.6935730   -0.2652673 
H    -1.4120909   -3.1172932    4.1191562 
H    -3.8328865   -3.7486386   -4.0688654 
H     1.7828544    4.1578938   -3.8653409 
H     3.7745493   -1.3156228    3.2759831 
H    -3.8033569   -3.8381914    3.9648432 
H    -4.4954362   -1.6138682   -5.1866119 
H     4.1689780    4.7478437   -3.3972744 
H     5.6478890   -2.5950590    2.2229627 
