84
Energy =
C    -2.1669379    1.9125383    0.0977498 
C    -1.0125747    2.4164972    0.7497525 
C     0.1309515    2.8564055    0.0279787 
H    -0.9286052    2.3189179    1.8395687 
Pd   -0.3101711    0.7220649   -0.4672827 
P     1.8593944    0.0417801   -0.9711322 
P    -1.2161578   -1.3626456   -1.0228859 
H    -2.3495868    2.2378035   -0.9376157 
H    -0.0285201    3.2514239   -0.9873558 
C    -5.6488354    0.3064919    2.0608874 
C    -4.4794046    0.5416268    2.8037923 
C    -3.3415732    1.0656893    2.1824034 
C    -3.3444143    1.3671535    0.7983640 
C    -4.5337487    1.1398974    0.0706018 
C    -5.6715050    0.6132918    0.6930695 
H    -6.5377802   -0.1043562    2.5502401 
H    -4.4574404    0.3195669    3.8759555 
H    -2.4433754    1.2412061    2.7839883 
H    -4.5619434    1.3752298   -0.9977150 
H    -6.5781466    0.4422522    0.1042892 
C     3.7270313    4.2278579    1.9524326 
C     2.9983381    3.1663817    2.5146406 
C     1.8374378    2.7016616    1.8887522 
C     1.3785396    3.2917613    0.6882035 
C     2.1351439    4.3386545    0.1202161 
C     3.2942616    4.8071918    0.7510923 
H     4.6346182    4.5927234    2.4442228 
H     3.3406532    2.6958610    3.4422579 
H     1.2917665    1.8565758    2.3233533 
H     1.8045594    4.7936061   -0.8193746 
H     3.8644584    5.6244987    0.2982046 
C     1.1723500   -2.3821066   -2.3370401 
C    -0.3584534   -2.2374659   -2.4246168 
C     1.9679643   -1.0718352   -2.4641156 
C    -1.1676772   -2.5053847    0.4073958 
C    -2.9514963   -1.3536250   -1.6185842 
C     3.1021183    1.3303241   -1.3617823 
C     2.5472470   -0.9946986    0.3755819 
C    -0.6365591   -3.8087331    0.3520564 
C    -3.9534596   -2.1633545   -1.0531320 
C     2.9011253    2.1162173   -2.5175887 
C     3.7720328   -1.6816476    0.2247501 
C    -1.6646702   -2.0130131    1.6338290 
C    -3.2686729   -0.5006385   -2.6974317 
C     4.2220524    1.5725833   -0.5442009 
C     1.8034174   -1.1611887    1.5604168 
C    -0.5872921   -4.5970999    1.5116491 
C    -5.2570327   -2.1244129   -1.5702612 
C     3.8321090    3.1007890   -2.8711373 
C     4.2359787   -2.5205639    1.2461385 
C    -1.6287118   -2.8094067    2.7839090 
C    -4.5682593   -0.4766962   -3.2185049 
C     5.1459297    2.5656543   -0.9005306 
C     2.2671538   -2.0067303    2.5774679 
C    -1.0797063   -4.1008989    2.7270359 
C    -5.5653771   -1.2886091   -2.6529522 
C     4.9605182    3.3220717   -2.0658092 
C     3.4830492   -2.6868956    2.4204914 
H     1.4636418   -2.8988620   -1.4042609 
H     1.4855342   -3.0452834   -3.1639719 
H    -0.6373954   -1.6651386   -3.3284054 
H    -0.8399870   -3.2266671   -2.5265262 
H     1.6264419   -0.4816183   -3.3339478 
H     3.0381870   -1.2896975   -2.6261334 
H    -0.2579772   -4.2238685   -0.5861801 
H    -3.7206996   -2.8185293   -0.2078699 
H     2.0147342    1.9618928   -3.1448992 
H     4.3694057   -1.5592389   -0.6855757 
H    -2.0930058   -1.0060203    1.6805049 
H    -2.4984121    0.1528238   -3.1265447 
H     4.3707186    0.9965863    0.3736635 
H     0.8465077   -0.6387884    1.6729464 
H    -0.1656316   -5.6061474    1.4607354 
H    -6.0340114   -2.7522820   -1.1222813 
H     3.6751159    3.6980431   -3.7753248 
H     5.1873089   -3.0487441    1.1245630 
H    -2.0293343   -2.4197297    3.7255929 
H    -4.8060887    0.1811324   -4.0608714 
H     6.0109659    2.7511021   -0.2559528 
H     1.6714739   -2.1384327    3.4861964 
H    -1.0413670   -4.7221886    3.6277992 
H    -6.5831799   -1.2656950   -3.0557758 
H     5.6876798    4.0926360   -2.3416318 
H     3.8472634   -3.3495285    3.2124620 
