84
Energy =
C     0.5177197    1.9007389    1.6349686 
C    -0.8522898    2.0110388    1.2708541 
C    -1.7607027    0.9645589    1.5888150 
H    -1.1781758    2.8361949    0.6259204 
Pd   -0.0901685    0.2062399    0.2718936 
P    -1.2367444   -1.5791941   -0.6879572 
P     2.0109453   -0.2458650   -0.6241548 
H     0.7411299    1.2488368    2.4929472 
H    -1.4905566    0.3304437    2.4466102 
C     3.5704565    4.8465051    0.9530045 
C     3.7304302    3.8629790    1.9395184 
C     2.7398976    2.8913491    2.1270332 
C     1.5650664    2.8917329    1.3404435 
C     1.4348018    3.8680324    0.3254593 
C     2.4238813    4.8375582    0.1407101 
H     4.3397759    5.6118815    0.8081516 
H     4.6253751    3.8561904    2.5703292 
H     2.8640173    2.1292940    2.9049780 
H     0.5560664    3.8672518   -0.3275627 
H     2.3054496    5.5883854   -0.6467840 
C    -5.9777596    0.9248453    0.7660275 
C    -5.4320744    0.0942631    1.7552455 
C    -4.0514285    0.0963651    1.9881563 
C    -3.1915185    0.9377704    1.2454061 
C    -3.7522639    1.7427938    0.2266855 
C    -5.1304772    1.7400143   -0.0035273 
H    -7.0576444    0.9311060    0.5859808 
H    -6.0835067   -0.5520017    2.3526435 
H    -3.6290545   -0.5478617    2.7677779 
H    -3.1063929    2.3733076   -0.3928324 
H    -5.5485520    2.3724461   -0.7929577 
C     1.1611996   -2.7438556   -1.7588130 
C     2.0495126   -1.5085826   -1.9963658 
C    -0.3313654   -2.4910355   -2.0402292 
C     2.8040616    1.2096019   -1.4084381 
C     3.1879910   -0.9215337    0.6102761 
C    -1.6435320   -2.9000768    0.5184423 
C    -2.7942076   -1.0878629   -1.5219674 
C     2.1264850    1.8016694   -2.4981433 
C     4.5075587   -1.2753740    0.2516389 
C    -2.3309566   -4.0695178    0.1249187 
C    -2.6866238   -0.1785090   -2.5983993 
C     4.0104896    1.7754817   -0.9557083 
C     2.7598723   -1.1227714    1.9374137 
C    -1.2318757   -2.7638361    1.8589968 
C    -4.0670233   -1.5329042   -1.1187683 
C     2.6729110    2.9116452   -3.1526310 
C     5.3802152   -1.8051213    1.2106716 
C    -2.6111579   -5.0712064    1.0630191 
C    -3.8301031    0.2396505   -3.2886715 
C     4.5490439    2.8916117   -1.6121057 
C     3.6341159   -1.6570061    2.8945824 
C    -1.5097096   -3.7699849    2.7950818 
C    -5.2091030   -1.1050728   -1.8110619 
C     3.8911199    3.4542474   -2.7141085 
C     4.9458425   -1.9949592    2.5325388 
C    -2.2028533   -4.9224263    2.3983535 
C    -5.0945031   -0.2301656   -2.8996875 
H     1.5033596   -3.5430297   -2.4404380 
H     1.3053985   -3.1387679   -0.7340817 
H     3.1052324   -1.8031956   -2.1260068 
H     1.7496558   -0.9878697   -2.9235054 
H    -0.8685660   -3.4428498   -2.1943961 
H    -0.4564531   -1.9028352   -2.9670468 
H     1.1649689    1.3944818   -2.8351023 
H     4.8624820   -1.1282885   -0.7746027 
H    -2.6599709   -4.1972791   -0.9124695 
H    -1.7037215    0.2072392   -2.8967372 
H     4.5279947    1.3561076   -0.0886999 
H     1.7307085   -0.8670659    2.2134326 
H    -0.6818451   -1.8658577    2.1624436 
H    -4.1737266   -2.2038464   -0.2620935 
H     2.1459927    3.3561390   -4.0032892 
H     6.4030030   -2.0716506    0.9251501 
H    -3.1493932   -5.9719273    0.7504934 
H    -3.7351549    0.9357767   -4.1284549 
H     5.4862520    3.3262714   -1.2506930 
H     3.2894330   -1.8115504    3.9221965 
H    -1.1823045   -3.6545328    3.8334250 
H    -6.1947227   -1.4545866   -1.4881300 
H     4.3195409    4.3229198   -3.2244121 
H     5.6308375   -2.4107042    3.2786415 
H    -2.4221052   -5.7088177    3.1279111 
H    -5.9900033    0.0964130   -3.4381533 
