84
Energy =
C    -1.9534931    1.5070032    0.8518285 
C    -0.7550225    1.7999210    1.5573649 
C     0.3376174    2.4257468    0.8976248 
H    -0.6168546    1.4047722    2.5707729 
Pd   -0.1858328    0.4681138   -0.0960824 
P     1.9401978   -0.0612192   -0.8865538 
P    -1.3260883   -1.3766467   -0.9464739 
H    -2.1704050    2.1353878   -0.0252984 
H     0.0903476    3.0440218    0.0213737 
C    -5.4507692   -0.4174458    2.4525006 
C    -5.5038791    0.2626140    1.2273325 
C    -4.3522089    0.8692944    0.7117496 
C    -3.1244478    0.8094182    1.4101984 
C    -3.0806989    0.0951376    2.6303513 
C    -4.2329667   -0.5024651    3.1477690 
H    -6.3514748   -0.8853812    2.8628234 
H    -6.4468613    0.3300122    0.6749975 
H    -4.4032927    1.4093654   -0.2398367 
H    -2.1395812    0.0027447    3.1812840 
H    -4.1805773   -1.0456819    4.0964166 
C     4.1344005    3.4293946    2.6506223 
C     3.7435921    3.9812401    1.4221833 
C     2.5120311    3.6303710    0.8560880 
C     1.6454205    2.7225190    1.5068473 
C     2.0669995    2.1523848    2.7308025 
C     3.2929261    2.5095367    3.2983011 
H     5.0930609    3.7079044    3.1000932 
H     4.3946697    4.6948424    0.9067443 
H     2.2074861    4.0741393   -0.0979749 
H     1.4345161    1.4221335    3.2451270 
H     3.5994519    2.0618278    4.2487431 
C     1.1637956   -2.8284532   -1.3218272 
C    -0.2860898   -2.6697269   -1.8161492 
C     2.1110008   -1.7017120   -1.7749845 
C    -2.1179733   -2.3197068    0.4173926 
C    -2.6214345   -1.0169318   -2.1920854 
C     2.6629179    1.1123119   -2.0946065 
C     3.1241223   -0.2124099    0.5104342 
C    -1.2986632   -2.7027556    1.5028179 
C    -3.3370228   -2.0563421   -2.8275711 
C     3.9167661    0.8647645   -2.6968757 
C     2.7697026   -1.0749964    1.5717628 
C    -3.4834365   -2.6605050    0.4336775 
C    -2.8707833    0.3181191   -2.5656924 
C     1.9312978    2.2546076   -2.4738740 
C     4.3418310    0.4904884    0.5739390 
C    -1.8245520   -3.4566754    2.5588207 
C    -4.3008656   -1.7552906   -3.7987375 
C     4.4328027    1.7615690   -3.6414021 
C     3.6408198   -1.2699344    2.6502420 
C    -4.0069846   -3.4069029    1.4992387 
C    -3.8337451    0.6155637   -3.5403366 
C     2.4497044    3.1487214   -3.4212480 
C     5.2054017    0.2997643    1.6622095 
C    -3.1809468   -3.8169080    2.5546882 
C    -4.5534464   -0.4203625   -4.1529598 
C     3.7030000    2.9057368   -4.0013041 
C     4.8658855   -0.5866544    2.6933620 
H     1.1964821   -2.9565977   -0.2245254 
H     1.5529522   -3.7746260   -1.7397350 
H    -0.2914725   -2.3930768   -2.8863109 
H    -0.8280687   -3.6265347   -1.7203092 
H     1.9518468   -1.4833989   -2.8467670 
H     3.1621392   -2.0167654   -1.6554938 
H    -0.2463418   -2.3984980    1.5265187 
H    -3.1484087   -3.1026793   -2.5638760 
H     4.4965353   -0.0247539   -2.4277185 
H     1.8013073   -1.5874593    1.5589637 
H    -4.1468005   -2.3305911   -0.3702191 
H    -2.2972310    1.1240616   -2.0955364 
H     0.9462358    2.4341517   -2.0300734 
H     4.6131701    1.2012814   -0.2111858 
H    -1.1768160   -3.7559172    3.3893431 
H    -4.8548692   -2.5662185   -4.2826491 
H     5.4073328    1.5649261   -4.1000165 
H     3.3594790   -1.9495963    3.4613158 
H    -5.0721662   -3.6591511    1.5049943 
H    -4.0183342    1.6568103   -3.8240073 
H     1.8717326    4.0328258   -3.7094066 
H     6.1458657    0.8582723    1.7049538 
H    -3.5956854   -4.4028390    3.3812819 
H    -5.3066131   -0.1896038   -4.9133389 
H     4.1094745    3.6033767   -4.7407353 
H     5.5468867   -0.7337846    3.5378824 
