84
Energy =
C    -2.1006538    1.7526669    0.5344541 
C    -0.9769480    2.2274639    1.2702862 
C     0.1781275    2.7109061    0.6003636 
H    -0.9338517    2.0546673    2.3526130 
Pd   -0.2734058    0.5994893   -0.0293190 
P     1.8773966   -0.2083397   -0.3989517 
P    -1.2385512   -1.2641941   -1.0398121 
H    -2.2697461    2.1865576   -0.4629377 
H     0.0265698    3.1082607   -0.4155894 
C    -5.5756121   -0.1772084    2.1906038 
C    -4.3945702   -0.1030952    2.9493325 
C    -3.2598377    0.5241352    2.4273940 
C    -3.2782158    1.0941500    1.1319942 
C    -4.4718370    1.0105303    0.3813088 
C    -5.6087001    0.3834276    0.9063055 
H    -6.4633015   -0.6682864    2.6021865 
H    -4.3609152   -0.5380512    3.9537731 
H    -2.3468177    0.5638528    3.0319048 
H    -4.5030716    1.4366929   -0.6274135 
H    -6.5223040    0.3310104    0.3053816 
C     3.8468642    4.0625019    2.3895229 
C     3.5725410    4.3123706    1.0371180 
C     2.3800357    3.8504058    0.4677166 
C     1.4359978    3.1331446    1.2383250 
C     1.7408155    2.8640880    2.5929032 
C     2.9289034    3.3310158    3.1614283 
H     4.7746646    4.4289391    2.8405797 
H     4.2845861    4.8761793    0.4256066 
H     2.1660355    4.0567434   -0.5870736 
H     1.0457060    2.2862509    3.2099255 
H     3.1450213    3.1180516    4.2129525 
C     1.1904052   -2.5573355   -1.9402973 
C    -0.1103787   -1.8576889   -2.4022033 
C     1.8497023   -2.0559654   -0.6368771 
C    -1.5374804   -2.7142416    0.0305368 
C    -2.8078455   -0.9051056   -1.9134037 
C     2.7715412    0.4470777   -1.8532749 
C     2.9645283   -0.0102735    1.0607706 
C    -1.7548498   -4.0012597   -0.5067380 
C    -2.8144838    0.1593926   -2.8417647 
C     3.9993991   -0.1092109   -2.2736229 
C     2.5302193   -0.5820544    2.2778038 
C    -1.5387061   -2.5333989    1.4282857 
C    -3.9996494   -1.6056624   -1.6507619 
C     2.2049735    1.5086422   -2.5866897 
C     4.1759257    0.7044227    1.0213347 
C    -1.9674004   -5.0899777    0.3495401 
C    -3.9939038    0.4996803   -3.5150419 
C     4.6492458    0.3999701   -3.4055454 
C     3.3216681   -0.4744805    3.4274566 
C    -1.7563365   -3.6248635    2.2802612 
C    -5.1791472   -1.2574528   -2.3266477 
C     2.8581451    2.0151905   -3.7192744 
C     4.9583711    0.8151749    2.1797003 
C    -1.9682992   -4.9027158    1.7413876 
C    -5.1792470   -0.2103329   -3.2582903 
C     4.0808578    1.4622090   -4.1273566 
C     4.5407020    0.2203056    3.3781654 
H     0.9886070   -3.6343257   -1.8028173 
H     1.9183781   -2.4773297   -2.7670083 
H     0.1228610   -0.9410649   -2.9747624 
H    -0.6772183   -2.5184107   -3.0806619 
H     2.8817997   -2.4404967   -0.5643555 
H     1.3048000   -2.4394112    0.2453359 
H    -1.7668741   -4.1552976   -1.5914362 
H    -1.8959397    0.7282914   -3.0334651 
H     4.4545706   -0.9334067   -1.7131860 
H     1.5711564   -1.1125883    2.3260555 
H    -1.3741871   -1.5312459    1.8395003 
H    -4.0137780   -2.4119558   -0.9111546 
H     1.2459951    1.9316263   -2.2655810 
H     4.5065334    1.1813197    0.0941326 
H    -2.1346418   -6.0872205   -0.0702498 
H    -3.9909000    1.3213963   -4.2386679 
H     5.6023190   -0.0332841   -3.7259001 
H     2.9854751   -0.9307678    4.3643048 
H    -1.7617152   -3.4773075    3.3651075 
H    -6.1033364   -1.8048457   -2.1147599 
H     2.4119478    2.8404435   -4.2837157 
H     5.8974698    1.3763942    2.1427484 
H    -2.1352749   -5.7564112    2.4062904 
H    -6.1021124    0.0584061   -3.7823861 
H     4.5922388    1.8568935   -5.0113340 
H     5.1589439    0.3062266    4.2776304 
