101
Energy =
C    -0.4564801    2.7255028    1.3574585 
C    -1.5477141    2.6387808    0.4593687 
C    -2.5470490    1.6333684    0.6277344 
H    -1.5426990    3.2426950   -0.4566791 
Pd   -0.5453388    0.6809856    0.3538340 
P    -1.1264278   -1.4978361   -0.1872914 
P     1.6732189   -0.0037266    0.2375483 
H    -0.5944733    2.2644482    2.3481067 
H    -2.7491722    1.3063775    1.6576920 
C     2.9117261    5.3999676    1.2054494 
C     2.6868676    4.5880514    2.3273585 
C     1.5735220    3.7396638    2.3655947 
C     0.6686433    3.6711444    1.2788187 
C     0.8948944    4.5170591    0.1681511 
C     2.0040522    5.3681133    0.1327787 
H     3.7791470    6.0668200    1.1720603 
H     3.3739379    4.6230129    3.1791190 
H     1.3899496    3.1254727    3.2548240 
H     0.2011535    4.5122424   -0.6775776 
H     2.1614569    6.0153705   -0.7361790 
C    -5.7249054    0.8069439   -2.1671301 
C    -5.8684066    0.4904431   -0.8078823 
C    -4.8364857    0.7779692    0.0949709 
C    -3.6337210    1.3794773   -0.3405645 
C    -3.5083264    1.6998878   -1.7122684 
C    -4.5424283    1.4206577   -2.6126375 
H    -6.5307076    0.5847119   -2.8739314 
H    -6.7922455    0.0271228   -0.4461225 
H    -4.9691527    0.5470466    1.1576901 
H    -2.5817937    2.1509763   -2.0823035 
H    -4.4239593    1.6773639   -3.6706792 
C    -2.3534847   -2.4947245    0.8753866 
C    -2.0671933   -1.8111513   -1.7940841 
C     2.8628382    0.6500532   -1.0720627 
C     2.7973586    0.4804487    1.6875537 
C    -3.4499433   -2.9743052   -0.1126681 
C    -2.8578693   -3.1047294   -1.5218190 
C     3.6544198    1.7281362   -0.3068696 
C     4.0569776    1.1002461    1.0347237 
C     0.4294431   -2.5047101   -0.1349980 
C     1.6706333   -1.8323813    0.0035762 
C    -2.9042239   -1.7645568    2.1231307 
C    -1.3606184   -1.7064342   -3.1683044 
C     2.2607537    1.0126732   -2.4472928 
C     3.0546939   -0.5733923    2.7878482 
C    -3.9262603   -2.6480667    2.8650307 
C    -1.7899748   -1.3140864    3.0761693 
C    -0.1126931   -2.5876662   -3.3414607 
C    -1.0696350   -0.2388866   -3.5201583 
C     3.3745529    1.1757840   -3.4995944 
C     1.3552141    2.2509486   -2.4067778 
C     1.7427776   -1.1060318    3.3811096 
C     3.9517124    0.0172907    3.8939839 
C     0.4212026   -3.9106470   -0.2445432 
C     2.8705912   -2.5723387   -0.0206398 
C     1.6186076   -4.6364681   -0.2497115 
C     2.8470414   -3.9664307   -0.1494532 
H    -1.7620096   -3.3632129    1.2231410 
H    -2.7980669   -0.9764801   -1.7437202 
H     3.5424911   -0.2108705   -1.2301464 
H     2.2199004    1.3066524    2.1423646 
H    -3.8925402   -3.9228211    0.2352400 
H    -4.2595921   -2.2210049   -0.1364311 
H    -3.6510225   -3.2281270   -2.2810644 
H    -2.2020089   -3.9912326   -1.6016145 
H     4.5366210    2.0531946   -0.8850224 
H     3.0279760    2.6219673   -0.1317721 
H     4.5052090    1.8491534    1.7094365 
H     4.8157392    0.3111703    0.8670921 
H    -3.4353192   -0.8660318    1.7594774 
H    -2.1180157   -2.0734685   -3.8896331 
H     1.6458683    0.1463726   -2.7560605 
H     3.5976247   -1.4243423    2.3328183 
H    -4.7981794   -2.8940729    2.2363561 
H    -4.2989184   -2.1280488    3.7644345 
H    -3.4612323   -3.5959950    3.1932523 
H    -2.2075248   -0.7754817    3.9445872 
H    -1.0809027   -0.6335017    2.5660331 
H    -1.2155187   -2.1777988    3.4569018 
H    -0.2925850   -3.6328940   -3.0375831 
H     0.1926992   -2.5954541   -4.4019089 
H     0.7397295   -2.2084866   -2.7515570 
H    -0.5092111    0.2523889   -2.7056056 
H    -0.4726531   -0.1585214   -4.4447656 
H    -2.0050594    0.3246377   -3.6648567 
H     4.0242463    2.0384045   -3.2671084 
H     2.9380469    1.3480463   -4.4986748 
H     4.0100092    0.2743305   -3.5573648 
H     0.5755851    2.1460515   -1.6276277 
H     0.8492051    2.3945941   -3.3766088 
H     1.9350689    3.1631132   -2.1870665 
H     1.1430534   -0.2834086    3.8124969 
H     1.9408034   -1.8362796    4.1843323 
H     1.1287151   -1.6105690    2.6164070 
H     3.4773142    0.9061268    4.3499730 
H     4.1127645   -0.7263896    4.6933321 
H     4.9416599    0.3164900    3.5112315 
H    -0.5251703   -4.4515434   -0.3373613 
H     3.8335497   -2.0582751    0.0687634 
H     1.5922533   -5.7271842   -0.3385565 
H     3.7853922   -4.5298857   -0.1609471 
