101
Energy =
C    -0.3960847    2.6599422    1.5376342 
C    -1.5107869    2.5651542    0.6715569 
C    -2.5076588    1.5626886    0.8673934 
H    -1.5293450    3.1588601   -0.2512391 
Pd   -0.5191518    0.6053141    0.5474323 
P    -1.0858884   -1.5337797   -0.1353108 
P     1.6748829   -0.0925221    0.2548783 
H    -0.5016279    2.2041101    2.5344729 
H    -2.6983319    1.2478240    1.9039602 
C     2.9381613    5.3682388    1.2463192 
C     1.9739654    5.3436027    0.2240231 
C     0.8767622    4.4805146    0.3062586 
C     0.7173783    3.6153732    1.4144059 
C     1.6818405    3.6731710    2.4482821 
C     2.7830836    4.5344154    2.3637679 
H     3.7957029    6.0451357    1.1776003 
H     2.0781486    6.0050028   -0.6423189 
H     0.1395894    4.4789277   -0.5022380 
H     1.5581865    3.0354274    3.3305707 
H     3.5170041    4.5594219    3.1759461 
C    -5.7408944    0.7948858   -1.8806004 
C    -5.9140634    0.5993099   -0.5018765 
C    -4.8614309    0.8595971    0.3853075 
C    -3.6118674    1.3213356   -0.0858780 
C    -3.4556261    1.5221897   -1.4782629 
C    -4.5080729    1.2631281   -2.3640067 
H    -6.5622057    0.5887775   -2.5743111 
H    -6.8750603    0.2459500   -0.1140037 
H    -5.0113020    0.7141159    1.4608649 
H    -2.4924089    1.8656202   -1.8726287 
H    -4.3632810    1.4195089   -3.4382016 
C    -2.5126809   -2.5272558    0.5995494 
C    -1.7387320   -1.5928516   -1.8908173 
C     2.5678431    0.4337625   -1.3191510 
C     3.0441202    0.5305958    1.3704738 
C    -3.5382840   -2.6247109   -0.5587214 
C    -2.7642000   -2.7432827   -1.8824290 
C     4.0418612    0.1539330   -0.9543243 
C     4.3288635    0.6333534    0.4883947 
C     0.4237213   -2.5865639    0.0280143 
C     1.6708967   -1.9395094    0.2312386 
C    -3.0389209   -1.9812653    1.9447497 
C    -0.6933304   -1.5037926   -3.0332283 
C     2.2055726    1.9103438   -1.6615111 
C     3.2072137   -0.1728245    2.7406043 
C    -4.2624822   -2.7804008    2.4280221 
C    -1.9296052   -1.9651420    3.0083551 
C    -1.3070643   -0.7848078   -4.2497048 
C    -0.0910032   -2.8578766   -3.4425762 
C     0.8339180    1.9797425   -2.3537518 
C     3.2722791    2.6028495   -2.5279210 
C     1.8581117   -0.3867055    3.4465060 
C     4.1718353    0.6312685    3.6339350 
C     0.3746702   -3.9943962   -0.0243215 
C     2.8328265   -2.7211591    0.3993354 
C     1.5376483   -4.7576169    0.1375970 
C     2.7670982   -4.1199115    0.3560784 
H    -2.0933463   -3.5349168    0.7846453 
H    -2.3233216   -0.6513750   -1.9045688 
H     2.2493302   -0.2235732   -2.1485948 
H     2.6832287    1.5567409    1.5779426 
H    -4.2112933   -3.4848166   -0.4032079 
H    -4.1641472   -1.7131215   -0.5750813 
H    -3.4384058   -2.6764639   -2.7545014 
H    -2.2526372   -3.7221296   -1.9395733 
H     4.2165926   -0.9325772   -1.0330489 
H     4.7277200    0.6202698   -1.6809350 
H     4.6740665    1.6813284    0.4816005 
H     5.1454909    0.0352752    0.9295788 
H    -3.3628728   -0.9400184    1.7666780 
H     0.1311657   -0.8660552   -2.6590505 
H     2.1358049    2.4781774   -0.7133580 
H     3.6584581   -1.1685409    2.5652060 
H    -5.1055695   -2.7067003    1.7205439 
H    -4.6092767   -2.3987624    3.4039479 
H    -4.0123146   -3.8499166    2.5550508 
H    -2.3002532   -1.5495705    3.9611931 
H    -1.0739263   -1.3436143    2.6821026 
H    -1.5514721   -2.9850516    3.2063079 
H    -1.6561934    0.2279085   -3.9814981 
H    -0.5663596   -0.6867065   -5.0624269 
H    -2.1702018   -1.3473599   -4.6491155 
H    -0.8558576   -3.5160796   -3.8917041 
H     0.6985238   -2.7064823   -4.1989916 
H     0.3602377   -3.3880424   -2.5883996 
H     0.8636399    1.4797420   -3.3388113 
H     0.5261602    3.0269243   -2.5152919 
H     0.0517963    1.4834485   -1.7436302 
H     4.2357547    2.7061945   -2.0012668 
H     2.9339494    3.6194858   -2.7930171 
H     3.4481194    2.0491754   -3.4684578 
H     1.3291163    0.5727641    3.5927804 
H     2.0035942   -0.8470592    4.4386492 
H     1.1954305   -1.0517929    2.8646565 
H     3.7610239    1.6349367    3.8473767 
H     4.3282657    0.1160168    4.5971494 
H     5.1587495    0.7651065    3.1594141 
H    -0.5774972   -4.5069537   -0.1935609 
H     3.7982032   -2.2414655    0.5804383 
H     1.4815039   -5.8501314    0.1005283 
H     3.6772266   -4.7112351    0.4981071 
