101
Energy =
C    -0.4906262    2.6633531    1.4111125 
C    -1.5081611    2.5993181    0.4318079 
C    -2.5227546    1.5946969    0.5026701 
H    -1.4216453    3.2090000   -0.4761851 
Pd   -0.5356858    0.6232272    0.3725164 
P    -1.1607805   -1.5402256   -0.1823291 
P     1.6754639   -0.0915594    0.1902118 
H    -0.6943931    2.1696834    2.3740326 
H    -2.8378299    1.2792576    1.5073157 
C     2.9146021    5.2907689    1.5224865 
C     2.6927880    4.3555995    2.5447720 
C     1.5658559    3.5256699    2.5023582 
C     0.6438865    3.6003254    1.4312052 
C     0.8659754    4.5698815    0.4254482 
C     1.9893593    5.4015253    0.4706047 
H     3.7928876    5.9434528    1.5532341 
H     3.3950990    4.2769236    3.3812195 
H     1.3897174    2.8055652    3.3094799 
H     0.1550301    4.6790516   -0.3989042 
H     2.1432849    6.1462138   -0.3171665 
C    -5.3546892    0.7122427   -2.6270735 
C    -4.1137065    1.2878552   -2.9483173 
C    -3.1932483    1.5909678   -1.9387961 
C    -3.4946002    1.3324827   -0.5801110 
C    -4.7502387    0.7627543   -0.2724700 
C    -5.6693369    0.4539274   -1.2845432 
H    -6.0718069    0.4711455   -3.4182068 
H    -3.8582445    1.4919840   -3.9934367 
H    -2.2169170    2.0064094   -2.2105234 
H    -5.0104808    0.5683016    0.7741109 
H    -6.6378976    0.0155709   -1.0223459 
C    -2.4018361   -2.4612398    0.9300305 
C    -2.0825783   -1.9127279   -1.7879873 
C     2.6551343    0.5390629   -1.3009194 
C     3.0193323    0.4317626    1.4018625 
C    -3.5760315   -2.8184158   -0.0141155 
C    -3.0437673   -3.0651187   -1.4285621 
C     4.1053983    0.2092460   -0.8983856 
C     4.3296361    0.6193626    0.5721724 
C     0.3776887   -2.5682761   -0.1526143 
C     1.6346540   -1.9377222    0.0533377 
C    -2.8390805   -1.7225259    2.2171518 
C    -1.2081890   -2.1337474   -3.0413327 
C     2.3476581    2.0524686   -1.5239417 
C     3.1798525   -0.3848477    2.7077570 
C    -3.8571891   -2.5666245    3.0092421 
C    -1.6492099   -1.3376535    3.1037322 
C    -0.3097410   -0.9207828   -3.3117868 
C    -2.0851179   -2.4423011   -4.2707148 
C     1.0275969    2.2288479   -2.2896656 
C     3.4814658    2.7945573   -2.2545298 
C     1.8305772   -0.7118363    3.3607515 
C     4.0928166    0.3763101    3.6893985 
C     0.3211408   -3.9698784   -0.2967501 
C     2.7919168   -2.7388041    0.1539576 
C     1.4828815   -4.7480668   -0.2186891 
C     2.7187439   -4.1311780    0.0192727 
H    -1.8687342   -3.3857511    1.2260711 
H    -2.6835000   -0.9929716   -1.9355669 
H     2.3640361   -0.0339087   -2.1985914 
H     2.6438945    1.4320628    1.6916464 
H    -4.1252816   -3.6954517    0.3678163 
H    -4.2843224   -1.9701034   -0.0383558 
H    -3.8717952   -3.1168087   -2.1558550 
H    -2.5095435   -4.0329104   -1.4841658 
H     4.2689273   -0.8743825   -1.0233672 
H     4.8274314    0.6991869   -1.5725882 
H     4.6406421    1.6766972    0.6285741 
H     5.1489881    0.0251616    1.0129454 
H    -3.3480325   -0.7925270    1.8983436 
H    -0.5597293   -3.0123185   -2.8516138 
H     2.2315842    2.5311912   -0.5322211 
H     3.6757559   -1.3422674    2.4545474 
H    -4.7767293   -2.7597466    2.4321409 
H    -4.1482849   -2.0432760    3.9363255 
H    -3.4204348   -3.5410839    3.2958063 
H    -1.9856051   -0.8103603    4.0132116 
H    -0.9570483   -0.6648590    2.5608825 
H    -1.0785913   -2.2300531    3.4187723 
H     0.3374546   -0.7044685   -2.4453557 
H     0.3410966   -1.0915482   -4.1864796 
H    -0.9166719   -0.0186334   -3.5048259 
H    -2.8032533   -1.6214623   -4.4533476 
H    -1.4560861   -2.5500719   -5.1711622 
H    -2.6566921   -3.3774795   -4.1496468 
H     1.1077475    1.8176946   -3.3118643 
H     0.7606420    3.2959342   -2.3721212 
H     0.1976409    1.7030372   -1.7780109 
H     4.4132952    2.8232191   -1.6653685 
H     3.1799089    3.8402315   -2.4383988 
H     3.7023789    2.3294078   -3.2326713 
H     1.2491772    0.2080488    3.5558488 
H     1.9734961   -1.2314999    4.3236348 
H     1.2228443   -1.3677126    2.7154995 
H     3.6293951    1.3350659    3.9870620 
H     4.2587115   -0.2184470    4.6040043 
H     5.0795083    0.6008016    3.2499732 
H    -0.6405982   -4.4655776   -0.4612494 
H     3.7632488   -2.2786409    0.3514716 
H     1.4196629   -5.8352375   -0.3292616 
H     3.6288052   -4.7334224    0.1046629 
