101
Energy =
C    -0.4723217    2.7935383    1.3245997 
C    -1.4935844    2.6956156    0.3521891 
C    -2.5073866    1.6939639    0.4660256 
H    -1.4140324    3.2778996   -0.5742126 
Pd   -0.5208931    0.7190338    0.3550887 
P    -1.1423158   -1.4652205   -0.1108328 
P     1.6936684    0.0009869    0.2702390 
H    -0.6764402    2.3366719    2.3056109 
H    -2.8101075    1.4097530    1.4838012 
C     2.9096526    5.4514588    1.3691276 
C     2.6487704    4.5997806    2.4534264 
C     1.5328537    3.7549620    2.4275450 
C     0.6607090    3.7317342    1.3130295 
C     0.9228087    4.6153840    0.2400808 
C     2.0356558    5.4621588    0.2686799 
H     3.7795813    6.1156528    1.3865972 
H     3.3110974    4.6004975    3.3252744 
H     1.3241378    3.1040466    3.2843891 
H     0.2523832    4.6453081   -0.6238805 
H     2.2216017    6.1398838   -0.5708751 
C    -5.3501559    0.6536073   -2.6028618 
C    -4.1538028    1.3041059   -2.9494593 
C    -3.2317716    1.6625565   -1.9598405 
C    -3.4880715    1.3878138   -0.5955193 
C    -4.7025198    0.7469876   -0.2613835 
C    -5.6213398    0.3798149   -1.2537342 
H    -6.0669687    0.3676765   -3.3791675 
H    -3.9339774    1.5232362   -3.9995562 
H    -2.2881914    2.1354137   -2.2526343 
H    -4.9287621    0.5399922    0.7906519 
H    -6.5557238   -0.1163998   -0.9713357 
C    -2.2930442   -2.3839090    1.0946792 
C    -2.1692337   -1.8682217   -1.6430169 
C     2.9182343    0.7472079   -0.9538936 
C     2.7839418    0.3856860    1.7856016 
C    -3.4956926   -2.8326512    0.2245077 
C    -3.0449999   -3.0653157   -1.2207136 
C     3.5797825    1.8514833   -0.1086015 
C     3.9807567    1.1939716    1.2181268 
C     0.4123983   -2.4662070   -0.2069423 
C     1.6655234   -1.8088297   -0.0913954 
C    -2.7147061   -1.5842240    2.3523724 
C    -1.3907395   -2.0278379   -2.9659462 
C     2.4051680    1.1113077   -2.3646063 
C     3.1829326   -0.7849342    2.7162940 
C    -3.7091951   -2.3940879    3.2079052 
C    -1.5173758   -1.1431617    3.2015648 
C    -0.5775099   -0.7662565   -3.2807408 
C    -2.3478050   -2.3603189   -4.1272563 
C     3.5828954    1.4975594   -3.2816473 
C     1.3252856    2.2024749   -2.3704276 
C     1.9615342   -1.5030359    3.3054858 
C     4.0984373   -0.2776713    3.8494940 
C     0.3849026   -3.8593109   -0.4233778 
C     2.8545569   -2.5533626   -0.2306579 
C     1.5741399   -4.5899685   -0.5435238 
C     2.8112697   -3.9348955   -0.4559658 
H    -1.7100738   -3.2687274    1.4173373 
H    -2.8222567   -0.9764822   -1.7271455 
H     3.6650938   -0.0623570   -1.0817371 
H     2.1393757    1.0742743    2.3630538 
H    -3.9660507   -3.7341375    0.6519045 
H    -4.2550805   -2.0294413    0.2342057 
H    -3.9164875   -3.1596844   -1.8907347 
H    -2.4714547   -4.0071418   -1.3111027 
H     4.4573718    2.2728175   -0.6277949 
H     2.8740972    2.6823989    0.0686227 
H     4.3155771    1.9440513    1.9538412 
H     4.8281742    0.5045074    1.0400141 
H    -3.2384990   -0.6772669    1.9929469 
H    -0.6868743   -2.8752648   -2.8458898 
H     1.9641002    0.1876233   -2.7811847 
H     3.7617829   -1.5154553    2.1184258 
H    -4.6393805   -2.6243693    2.6624903 
H    -3.9850061   -1.8255760    4.1128337 
H    -3.2576280   -3.3487802    3.5349751 
H    -1.8476430   -0.5397784    4.0650024 
H    -0.8122287   -0.5273648    2.6086397 
H    -0.9637786   -2.0163043    3.5895614 
H     0.1061350   -0.5198967   -2.4505458 
H     0.0285676   -0.8983990   -4.1932919 
H    -1.2422785    0.1023064   -3.4300142 
H    -3.1189500   -1.5749599   -4.2326491 
H    -1.7892396   -2.4189547   -5.0773915 
H    -2.8589823   -3.3264484   -3.9811224 
H     4.0526541    2.4436116   -2.9587091 
H     3.2310616    1.6383224   -4.3182206 
H     4.3614291    0.7141757   -3.2911184 
H     0.4863600    1.9365339   -1.6968676 
H     0.9151694    2.3356864   -3.3861315 
H     1.7366290    3.1702820   -2.0380154 
H     1.3611547   -0.8085719    3.9201522 
H     2.2755872   -2.3400525    3.9523521 
H     1.3085378   -1.9158416    2.5186469 
H     3.5867998    0.4995819    4.4471417 
H     4.3579599   -1.1078206    4.5288093 
H     5.0410898    0.1487188    3.4684529 
H    -0.5720523   -4.3839128   -0.5017931 
H     3.8264994   -2.0538365   -0.1578073 
H     1.5337911   -5.6709133   -0.7113488 
H     3.7429357   -4.5005574   -0.5571744 
