101
Energy =
C    -0.4265231    2.7325918    1.3520652 
C    -1.5263233    2.6506500    0.4639766 
C    -2.5304553    1.6520193    0.6437837 
H    -1.5257550    3.2522055   -0.4536657 
Pd   -0.5373042    0.6859353    0.3546817 
P    -1.1377038   -1.4901252   -0.1751154 
P     1.6750212   -0.0147726    0.2254628 
H    -0.5587733    2.2749566    2.3451058 
H    -2.7257001    1.3290973    1.6763618 
C     2.9581010    5.3838111    1.1631921 
C     2.7361941    4.5783870    2.2903654 
C     1.6174417    3.7377699    2.3407100 
C     0.7039027    3.6707527    1.2611029 
C     0.9272424    4.5105596    0.1452331 
C     2.0420469    5.3536169    0.0976084 
H     3.8299823    6.0442663    1.1201654 
H     3.4298673    4.6124315    3.1367963 
H     1.4364276    3.1287140    3.2339903 
H     0.2268841    4.5070729   -0.6950238 
H     2.1976046    5.9955486   -0.7756252 
C    -5.7379413    0.8405306   -2.1214029 
C    -5.8738980    0.5330456   -0.7593101 
C    -4.8323615    0.8158291    0.1339771 
C    -3.6272817    1.4030703   -0.3143582 
C    -3.5092916    1.7141833   -1.6888523 
C    -4.5529369    1.4398222   -2.5796537 
H    -6.5515336    0.6225876   -2.8205778 
H    -6.7991101    0.0802179   -0.3878994 
H    -4.9591502    0.5925777    1.1990672 
H    -2.5810750    2.1537459   -2.0684333 
H    -4.4399102    1.6886229   -3.6401844 
C    -2.3644997   -2.4750346    0.8988558 
C    -2.0913198   -1.8018412   -1.7746630 
C     2.8603618    0.6264551   -1.0941128 
C     2.8121698    0.4657981    1.6664382 
C    -3.4708021   -2.9501534   -0.0803420 
C    -2.8891813   -3.0889958   -1.4930309 
C     3.6642814    1.7015803   -0.3376777 
C     4.0715215    1.0751108    1.0031913 
C     0.4112463   -2.5079699   -0.1307466 
C     1.6580800   -1.8440663   -0.0029539 
C    -2.9019891   -1.7367810    2.1476152 
C    -1.3934922   -1.7063895   -3.1540517 
C     2.2514405    0.9887190   -2.4664253 
C     3.0699370   -0.5868411    2.7678304 
C    -3.9255480   -2.6103456    2.8991581 
C    -1.7784698   -1.2910329    3.0919551 
C    -0.1525209   -2.5962635   -3.3328799 
C    -1.0955408   -0.2420044   -3.5133133 
C     3.3591406    1.1403883   -3.5268479 
C     1.3549607    2.2334923   -2.4239904 
C     1.7585526   -1.1091990    3.3713665 
C     3.9782465    0.0008279    3.8663264 
C     0.3922201   -3.9141445   -0.2358068 
C     2.8525951   -2.5925458   -0.0335613 
C     1.5844260   -4.6483941   -0.2478317 
C     2.8182544   -3.9867708   -0.1585010 
H    -1.7767381   -3.3464255    1.2456565 
H    -2.8160492   -0.9619690   -1.7220838 
H     3.5330368   -0.2396002   -1.2539050 
H     2.2434927    1.2970747    2.1230890 
H    -3.9175442   -3.8945204    0.2734985 
H    -4.2753919   -2.1913494   -0.1009601 
H    -3.6882675   -3.2091328   -2.2465472 
H    -2.2400596   -3.9802816   -1.5745036 
H     4.5447909    2.0188196   -0.9227177 
H     3.0450729    2.6001929   -0.1612666 
H     4.5294351    1.8229847    1.6725222 
H     4.8236751    0.2802778    0.8329366 
H    -3.4290659   -0.8358343    1.7841359 
H    -2.1582410   -2.0710564   -3.8687964 
H     1.6283611    0.1257480   -2.7680046 
H     3.6041313   -1.4425250    2.3113626 
H    -4.8032181   -2.8523361    2.2769619 
H    -4.2887650   -2.0844775    3.7990427 
H    -3.4652042   -3.5603938    3.2278470 
H    -2.1865690   -0.7460018    3.9608704 
H    -1.0675028   -0.6177518    2.5748441 
H    -1.2081582   -2.1575844    3.4724865 
H    -0.3370395   -3.6392599   -3.0241811 
H     0.1453645   -2.6095888   -4.3954104 
H     0.7064374   -2.2206141   -2.7502526 
H    -0.5265845    0.2487516   -2.7043818 
H    -0.5042011   -0.1689008   -4.4421424 
H    -2.0282906    0.3269480   -3.6541087 
H     4.0166510    1.9990169   -3.3016123 
H     2.9170590    1.3126515   -4.5234726 
H     3.9876433    0.2341618   -3.5860452 
H     0.5801655    2.1369589   -1.6389387 
H     0.8430964    2.3772660   -3.3907243 
H     1.9427819    3.1422922   -2.2116725 
H     1.1675452   -0.2815558    3.8051514 
H     1.9572047   -1.8390638    4.1747905 
H     1.1356462   -1.6111574    2.6121279 
H     3.5128355    0.8940107    4.3230894 
H     4.1397024   -0.7417735    4.6665982 
H     4.9675825    0.2924043    3.4761798 
H    -0.5586391   -4.4485846   -0.3196380 
H     3.8197842   -2.0851584    0.0479730 
H     1.5497676   -5.7391174   -0.3337367 
H     3.7525079   -4.5568649   -0.1756059 
