101
Energy =
C    -0.4878292    2.7921414    1.3152033 
C    -1.5057226    2.6900147    0.3393410 
C    -2.5162802    1.6850976    0.4497168 
H    -1.4248946    3.2720618   -0.5871031 
Pd   -0.5239612    0.7178447    0.3492400 
P    -1.1354263   -1.4688395   -0.1188522 
P     1.6927564    0.0067389    0.2846100 
H    -0.6944310    2.3371211    2.2965728 
H    -2.8209479    1.3991995    1.4664333 
C     2.8807484    5.4671425    1.3687550 
C     2.6155219    4.6213438    2.4565772 
C     1.5041977    3.7705384    2.4274329 
C     0.6408878    3.7357190    1.3063914 
C     0.9072534    4.6133998    0.2296222 
C     2.0156033    5.4658965    0.2612789 
H     3.7472417    6.1357433    1.3886137 
H     3.2709172    4.6311435    3.3335912 
H     1.2922600    3.1239943    3.2867936 
H     0.2438446    4.6339603   -0.6399923 
H     2.2049505    6.1387214   -0.5814527 
C    -5.3443140    0.6345006   -2.6292222 
C    -5.6195942    0.3602523   -1.2810288 
C    -4.7053314    0.7301016   -0.2854825 
C    -3.4917325    1.3747112   -0.6153467 
C    -3.2313115    1.6499267   -1.9787918 
C    -4.1485493    1.2882764   -2.9716846 
H    -6.0573704    0.3460710   -3.4080582 
H    -6.5537435   -0.1382134   -1.0018476 
H    -4.9348556    0.5227217    0.7657530 
H    -2.2882456    2.1259084   -2.2681875 
H    -3.9253032    1.5072837   -4.0210844 
C    -2.2912790   -2.3917008    1.0787887 
C    -2.1503288   -1.8760714   -1.6579199 
C     2.9255639    0.7521119   -0.9315008 
C     2.7689726    0.4000406    1.8078554 
C    -3.4852705   -2.8468766    0.2000494 
C    -3.0233086   -3.0773597   -1.2419680 
C     3.5766675    1.8616154   -0.0850608 
C     3.9678555    1.2105921    1.2478145 
C     0.4232801   -2.4648022   -0.2019939 
C     1.6732367   -1.8038377   -0.0735827 
C    -2.7261917   -1.5932063    2.3326629 
C    -1.3622715   -2.0306642   -2.9757644 
C     2.4230458    1.1086230   -2.3478127 
C     3.1644327   -0.7660018    2.7457770 
C    -3.7237653   -2.4069645    3.1808948 
C    -1.5374648   -1.1463782    3.1908733 
C    -0.5585010   -0.7621029   -3.2867411 
C    -2.3089806   -2.3728300   -4.1427487 
C     3.6077480    1.4874201   -3.2589383 
C     1.3451806    2.2016323   -2.3673703 
C     1.9409407   -1.4878920    3.3258758 
C     4.0670776   -0.2511096    3.8858217 
C     0.4021540   -3.8578509   -0.4197147 
C     2.8658177   -2.5451040   -0.1994967 
C     1.5946564   -4.5850509   -0.5276572 
C     2.8289197   -3.9266759   -0.4255675 
H    -1.7065528   -3.2734655    1.4065412 
H    -2.8070940   -0.9873772   -1.7456497 
H     3.6757410   -0.0558668   -1.0496568 
H     2.1171321    1.0882023    2.3776223 
H    -3.9538955   -3.7507902    0.6242223 
H    -4.2489918   -2.0477141    0.2042262 
H    -3.8896474   -3.1756661   -1.9180649 
H    -2.4448393   -4.0165239   -1.3284849 
H     4.4576463    2.2832265   -0.5982780 
H     2.8672230    2.6912779    0.0826028 
H     4.2933957    1.9646781    1.9835842 
H     4.8192257    0.5234181    1.0800063 
H    -3.2511813   -0.6888260    1.9686448 
H    -0.6517716   -2.8717918   -2.8503974 
H     1.9833182    0.1831599   -2.7619310 
H     3.7521065   -1.4956646    2.1555392 
H    -4.6486215   -2.6416172    2.6283403 
H    -4.0091504   -1.8392188    4.0833316 
H    -3.2705723   -3.3594880    3.5120031 
H    -1.8770791   -0.5437728    4.0512282 
H    -0.8302955   -0.5280462    2.6030642 
H    -0.9832385   -2.0168668    3.5839006 
H     0.1159282   -0.5074311   -2.4515354 
H     0.0561116   -0.8901557   -4.1941504 
H    -1.2304421    0.0996611   -3.4431946 
H    -3.0870501   -1.5950291   -4.2533257 
H    -1.7440270   -2.4264255   -5.0893961 
H    -2.8116629   -3.3438108   -3.9993321 
H     4.0780515    2.4336550   -2.9372988 
H     3.2630949    1.6243347   -4.2984338 
H     4.3840892    0.7018256   -3.2596358 
H     0.5023517    1.9427777   -1.6959273 
H     0.9403636    2.3277003   -3.3861047 
H     1.7568911    3.1711773   -2.0405513 
H     1.3315849   -0.7942708    3.9326073 
H     2.2528148   -2.3212894    3.9784439 
H     1.2973651   -1.9064168    2.5342961 
H     3.5462126    0.5254111    4.4763791 
H     4.3242626   -1.0780344    4.5699412 
H     5.0111800    0.1786962    3.5122589 
H    -0.5523671   -4.3851839   -0.5086645 
H     3.8354797   -2.0428588   -0.1159197 
H     1.5591532   -5.6659411   -0.6969037 
H     3.7632309   -4.4897372   -0.5163146 
