101
Energy =
C    -0.3952165    2.9423380    1.0057360 
C    -1.4498669    2.7052509    0.0957555 
C    -2.4560083    1.7345667    0.3723179 
H    -1.4032124    3.1586203   -0.9018189 
Pd   -0.4380334    0.7562649    0.3201156 
P    -0.9631057   -1.4786056   -0.0633763 
P     1.7977495    0.1043666    0.3053194 
H    -0.5445909    2.6145202    2.0462171 
H    -2.7045368    1.5656520    1.4288271 
C     2.8891787    5.6728078    0.4799347 
C     2.7988294    4.8702664    1.6280714 
C     1.7092507    4.0073641    1.7954339 
C     0.6994684    3.9076927    0.8096540 
C     0.7889195    4.7464228   -0.3260270 
C     1.8714316    5.6175470   -0.4871270 
H     3.7372627    6.3520790    0.3476253 
H     3.5730767    4.9263331    2.4002648 
H     1.6306135    3.4001003    2.7042196 
H     0.0099522    4.7189363   -1.0938097 
H     1.9231195    6.2589521   -1.3728492 
C    -5.5179469    0.4595636   -2.3762413 
C    -5.6570277    0.2456532   -0.9962201 
C    -4.6627201    0.6835126   -0.1122279 
C    -3.5022588    1.3362203   -0.5873802 
C    -3.3779536    1.5469844   -1.9813361 
C    -4.3770837    1.1192459   -2.8628508 
H    -6.2947633    0.1197001   -3.0685002 
H    -6.5474114   -0.2579581   -0.6056793 
H    -4.7826197    0.5251792    0.9652779 
H    -2.4833416    2.0330769   -2.3844382 
H    -4.2617983    1.2938852   -3.9375984 
C    -1.9053807   -2.6029179    1.1367950 
C    -2.1243430   -1.8245147   -1.5149879 
C     3.1887582    0.8810998   -0.7351381 
C     2.7309501    0.3318128    1.9219628 
C    -3.2977441   -2.7389251    0.4884328 
C    -3.0797356   -2.9349570   -1.0183505 
C     4.3744821    1.0986425    0.2548726 
C     4.2116761    0.2366503    1.5187425 
C     0.6251947   -2.3765871   -0.3438210 
C     1.8498569   -1.6774847   -0.2048990 
C    -1.8335193   -2.2713208    2.6460368 
C    -1.4599964   -2.0485409   -2.8920095 
C     2.8096526    2.1651325   -1.5112218 
C     2.2820510   -0.4249681    3.1923410 
C    -2.5863390   -0.9924458    3.0360884 
C    -2.3145222   -3.4737357    3.4816926 
C    -0.5318596   -0.8818650   -3.2638326 
C    -2.5341345   -2.2605649   -3.9768762 
C     1.6109699    1.9677128   -2.4492557 
C     4.0220657    2.6932434   -2.3026335 
C     2.2768994   -1.9564662    3.0567196 
C     0.9301197    0.1074888    3.6971860 
C     0.6372482   -3.7383660   -0.7093659 
C     3.0576494   -2.3563437   -0.4720584 
C     1.8448516   -4.4040826   -0.9510695 
C     3.0567759   -3.7079656   -0.8381134 
H    -1.3824741   -3.5689262    0.9990615 
H    -2.7042856   -0.8837603   -1.5712835 
H     3.4416748    0.0963767   -1.4723348 
H     2.5236122    1.4083180    2.0929588 
H    -3.8541952   -3.5816861    0.9339111 
H    -3.8926583   -1.8241577    0.6569921 
H    -4.0339819   -2.8907350   -1.5697964 
H    -2.6371874   -3.9315659   -1.2114891 
H     5.3368762    0.9094695   -0.2493418 
H     4.3702553    2.1616410    0.5595973 
H     4.8555873    0.6076195    2.3367513 
H     4.5035033   -0.8136114    1.3421143 
H    -0.7638502   -2.1192273    2.8822865 
H    -0.8479165   -2.9698873   -2.8354106 
H     2.5409211    2.9283367   -0.7604770 
H     3.0427995   -0.1658648    3.9561377 
H    -2.2365463   -0.1326128    2.4400880 
H    -2.4198179   -0.7554041    4.1005430 
H    -3.6748522   -1.0990085    2.8829260 
H    -2.1746693   -3.2749643    4.5583307 
H    -1.7524661   -4.3905155    3.2297166 
H    -3.3882909   -3.6745706    3.3178326 
H     0.2935961   -0.7731328   -2.5393028 
H    -0.0826800   -1.0369206   -4.2597629 
H    -1.0892222    0.0717008   -3.2848481 
H    -3.2097682   -1.3877948   -4.0313057 
H    -2.0600582   -2.3891840   -4.9652455 
H    -3.1475236   -3.1561059   -3.7814040 
H     1.8272038    1.2094879   -3.2238583 
H     1.3629160    2.9133237   -2.9614194 
H     0.7125523    1.6376429   -1.8929490 
H     4.8759295    2.9340678   -1.6476670 
H     3.7481944    3.6165333   -2.8418224 
H     4.3598602    1.9514245   -3.0501049 
H     1.4743521   -2.2998538    2.3817926 
H     2.1096089   -2.4240052    4.0421459 
H     3.2316421   -2.3405610    2.6589984 
H     0.1478326   -0.0087707    2.9231604 
H     0.5973118   -0.4335279    4.5994223 
H     0.9913469    1.1812797    3.9492752 
H    -0.3046856   -4.2864519   -0.8159971 
H     4.0147993   -1.8333899   -0.3978391 
H     1.8384365   -5.4601394   -1.2387364 
H     4.0053339   -4.2171562   -1.0361733 
