101
Energy =
C    -0.2932483    2.8656320    1.0393539 
C    -1.5177620    2.6370681    0.3636160 
C    -2.4221171    1.6403362    0.8288707 
H    -1.7051662    3.1192074   -0.6039320 
Pd   -0.4545346    0.7140273    0.3034464 
P    -1.0375575   -1.4661478   -0.2426519 
P     1.7694745    0.0313056    0.1927756 
H    -0.2423600    2.5513126    2.0919925 
H    -2.3967795    1.4199718    1.9065683 
C     2.8194594    5.6231787   -0.0702704 
C     2.8785570    4.9215660    1.1439380 
C     1.8465888    4.0437270    1.4963826 
C     0.7421721    3.8326911    0.6371174 
C     0.6865478    4.5648477   -0.5713337 
C     1.7129785    5.4491627   -0.9185632 
H     3.6230298    6.3123713   -0.3485352 
H     3.7256221    5.0671298    1.8223283 
H     1.8870108    3.5147539    2.4555439 
H    -0.1586660    4.4373099   -1.2544059 
H     1.6523995    6.0059824   -1.8592804 
C    -6.1344840    0.5625963   -1.0663745 
C    -5.0531299    0.9969529   -1.8518912 
C    -3.8426617    1.3568091   -1.2488488 
C    -3.6859375    1.2844028    0.1549874 
C    -4.7821762    0.8478277    0.9324503 
C    -5.9961401    0.4952143    0.3282557 
H    -7.0800983    0.2810983   -1.5405018 
H    -5.1546963    1.0525894   -2.9408577 
H    -3.0019329    1.6804094   -1.8733135 
H    -4.6784028    0.7883259    2.0215730 
H    -6.8354598    0.1639630    0.9483462 
C    -2.2947494   -2.4680029    0.7463511 
C    -1.9449285   -1.6870182   -1.8998696 
C     3.1803743    0.7206057   -0.8755500 
C     2.7037939    0.2687035    1.8096571 
C    -3.5559429   -2.4198066   -0.1403971 
C    -3.1012125   -2.6621402   -1.5829097 
C     4.3877160    0.8810989    0.1026571 
C     4.1800790    0.0984039    1.4101495 
C     0.5172996   -2.4554251   -0.3065565 
C     1.7642193   -1.7893579   -0.1767270 
C    -2.4242528   -2.0482260    2.2293384 
C    -1.0783483   -2.0489847   -3.1263162 
C     2.8724352    2.0394923   -1.6314718 
C     2.1779419   -0.5239218    3.0303431 
C    -3.7497731   -2.5187146    2.8541199 
C    -1.2243549   -2.5912121    3.0231461 
C    -0.0224621   -0.9717268   -3.4019341 
C    -1.9615520   -2.2708414   -4.3703072 
C     1.6530954    1.9494502   -2.5563774 
C     4.1066462    2.4941843   -2.4359457 
C     0.8737548    0.1004740    3.5554461 
C     3.2227393   -0.5920693    4.1610932 
C     0.4869680   -3.8411624   -0.5629437 
C     2.9506298   -2.5318359   -0.3590435 
C     1.6745149   -4.5688755   -0.7049022 
C     2.9079198   -3.9086561   -0.6142216 
H    -1.9125690   -3.5079163    0.7188581 
H    -2.3836126   -0.6842944   -2.0659289 
H     3.3793397   -0.0741870   -1.6192004 
H     2.5419443    1.3501716    1.9981463 
H    -4.2854948   -3.1798579    0.1864803 
H    -4.0481848   -1.4357571   -0.0595162 
H    -3.9311433   -2.5164326   -2.2947720 
H    -2.7491239   -3.7059269   -1.6996370 
H     5.3302600    0.5980963   -0.3951642 
H     4.4669920    1.9537401    0.3582603 
H     4.8439471    0.4914582    2.1992563 
H     4.4280385   -0.9718779    1.3005211 
H    -2.4042468   -0.9410379    2.2690958 
H    -0.5562151   -3.0008879   -2.9074620 
H     2.6692415    2.8079830   -0.8645796 
H     1.9710399   -1.5627141    2.7030778 
H    -4.6223565   -2.0580076    2.3613489 
H    -3.7833718   -2.2463484    3.9234616 
H    -3.8549919   -3.6170073    2.7855168 
H    -1.2309633   -2.2230848    4.0624685 
H    -0.2658954   -2.2979932    2.5604630 
H    -1.2537725   -3.6957792    3.0536449 
H     0.6435887   -0.8260719   -2.5349560 
H     0.6073513   -1.2441392   -4.2661225 
H    -0.5022898   -0.0010671   -3.6225451 
H    -2.5586169   -1.3674657   -4.5943988 
H    -1.3313745   -2.4855425   -5.2505506 
H    -2.6561266   -3.1176968   -4.2425880 
H     1.8151904    1.2078590   -3.3583126 
H     1.4652675    2.9262750   -3.0332173 
H     0.7407644    1.6634875   -1.9994818 
H     4.9885741    2.6621901   -1.7958637 
H     3.8882203    3.4438942   -2.9538646 
H     4.3758776    1.7435232   -3.2021969 
H     1.0550907    1.1354985    3.9004048 
H     0.4709182   -0.4724823    4.4061258 
H     0.0939133    0.1355059    2.7688048 
H     3.5188339    0.4211955    4.4898197 
H     2.8009887   -1.1181004    5.0347755 
H     4.1325935   -1.1335272    3.8531681 
H    -0.4729327   -4.3583181   -0.6657849 
H     3.9242816   -2.0380638   -0.3123502 
H     1.6362742   -5.6445972   -0.9035810 
H     3.8416701   -4.4647540   -0.7452375 
