101
Energy =
C    -0.4706856    2.8194775    1.2570215 
C    -1.4051718    2.7062595    0.1999744 
C    -2.4477793    1.7305342    0.2717396 
H    -1.2302384    3.2444965   -0.7399412 
Pd   -0.4595480    0.7298652    0.3607580 
P    -0.9644157   -1.4932296   -0.1081652 
P     1.7691655    0.1176037    0.3148875 
H    -0.7778389    2.4039781    2.2293500 
H    -2.8339439    1.4935813    1.2727606 
C     2.9499062    5.4119588    1.5761578 
C     2.6066259    4.5377947    2.6191299 
C     1.4821006    3.7125165    2.4994544 
C     0.6806897    3.7348787    1.3332643 
C     1.0251884    4.6403447    0.3027012 
C     2.1491884    5.4650399    0.4228710 
H     3.8270626    6.0605142    1.6666594 
H     3.2123208    4.5044369    3.5305878 
H     1.2093884    3.0412178    3.3220146 
H     0.4042616    4.7143273   -0.5956414 
H     2.3981679    6.1606997   -0.3850087 
C    -5.0899746    0.6547978   -2.9564204 
C    -5.4665440    0.4401276   -1.6223136 
C    -4.6078654    0.8125827   -0.5794313 
C    -3.3504731    1.4008451   -0.8477142 
C    -2.9824005    1.6056001   -2.1993413 
C    -3.8450989    1.2431920   -3.2388510 
H    -5.7600599    0.3654172   -3.7721044 
H    -6.4365218   -0.0124434   -1.3917291 
H    -4.9159941    0.6550067    0.4604208 
H    -1.9993253    2.0248373   -2.4393893 
H    -3.5408069    1.4079226   -4.2777211 
C    -1.8163046   -2.4450137    1.2931602 
C    -2.2579177   -1.9617729   -1.4212810 
C     2.9170326    1.1026421   -0.8277019 
C     2.8716549    0.2883930    1.8434897 
C    -2.5427778   -3.5640535    0.5196522 
C    -3.2416828   -2.9241191   -0.6879963 
C     3.8939989    1.7996355    0.1463089 
C     4.2076644    0.8412448    1.3005902 
C     0.6409341   -2.3723950   -0.4083308 
C     1.8470065   -1.6394167   -0.2459490 
C    -2.7526147   -1.5068056    2.1161291 
C    -1.7519415   -2.4732214   -2.7980439 
C     2.1852751    2.0503470   -1.8053878 
C     2.9678168   -0.9490121    2.7637466 
C    -3.8362852   -2.2817944    2.8895764 
C    -1.9429383   -0.6343570    3.0875547 
C    -0.6980889   -1.5428770   -3.4142183 
C    -2.9398288   -2.6190243   -3.7722286 
C     1.2564762    1.2843926   -2.7545595 
C     3.1837868    2.9234723   -2.5866921 
C     1.5831009   -1.3833333    3.2643813 
C     3.9137648   -0.6773895    3.9497086 
C     0.7141592   -3.7259878   -0.7975870 
C     3.0836453   -2.2711551   -0.4882367 
C     1.9499926   -4.3432132   -1.0293101 
C     3.1381637   -3.6145887   -0.8794841 
H    -1.0363898   -2.8593259    1.9571018 
H    -2.7607450   -0.9960978   -1.6078543 
H     3.4677822    0.3399379   -1.4134201 
H     2.3705616    1.1026356    2.4035611 
H    -1.8084297   -4.3144822    0.1791515 
H    -3.2510563   -4.1076433    1.1668777 
H    -4.1242870   -2.3523148   -0.3512781 
H    -3.6120357   -3.6981319   -1.3797690 
H     4.8125792    2.1065868   -0.3816898 
H     3.4214466    2.7175548    0.5421485 
H     4.7678337    1.3542227    2.1011194 
H     4.8436444    0.0062285    0.9476416 
H    -3.2696637   -0.8373800    1.4002206 
H    -1.3004588   -3.4743983   -2.6593714 
H     1.5610021    2.7218728   -1.1871581 
H     3.3970261   -1.7801338    2.1706773 
H    -4.5545056   -2.7831835    2.2197197 
H    -4.4105866   -1.5874122    3.5269553 
H    -3.3855101   -3.0464899    3.5482109 
H    -2.5893763    0.1106845    3.5836717 
H    -1.1345029   -0.0876884    2.5602112 
H    -1.4715465   -1.2539799    3.8708564 
H     0.2115412   -1.4807085   -2.7952646 
H    -0.3952646   -1.9047786   -4.4117441 
H    -1.1072142   -0.5238657   -3.5325546 
H    -3.4219722   -1.6391640   -3.9385463 
H    -2.5870597   -2.9993175   -4.7463198 
H    -3.7092793   -3.3164254   -3.4013396 
H     1.8144104    0.5544257   -3.3688440 
H     0.7332505    1.9741630   -3.4398975 
H     0.4861682    0.7345499   -2.1827319 
H     3.7623825    3.5844244   -1.9196578 
H     2.6469678    3.5647012   -3.3074736 
H     3.8956005    2.2993447   -3.1580514 
H     1.1096175   -0.5793040    3.8562599 
H     1.6557641   -2.2791852    3.9044784 
H     0.9079305   -1.6239283    2.4251044 
H     3.5624298    0.1869393    4.5433195 
H     3.9483409   -1.5540887    4.6191829 
H     4.9448426   -0.4694388    3.6187121 
H    -0.1994745   -4.3097352   -0.9330458 
H     4.0165980   -1.7099810   -0.3717633 
H     1.9821948   -5.3940756   -1.3339908 
H     4.1059707   -4.0903915   -1.0666873 
