101
Energy =
C    -0.4309041    2.9115051    1.0807273 
C    -1.5040708    2.7302120    0.1787259 
C    -2.4985507    1.7317616    0.4113310 
H    -1.4754914    3.2382370   -0.7931877 
Pd   -0.4986143    0.7749914    0.2798332 
P    -1.1066691   -1.4288671   -0.0949865 
P     1.7135852    0.0536660    0.1966118 
H    -0.5645314    2.5294778    2.1050408 
H    -2.7442708    1.5072630    1.4590345 
C     2.8971654    5.6031583    0.6418126 
C     1.8580894    5.6265694   -0.3034451 
C     0.7598379    4.7703327   -0.1690040 
C     0.6768128    3.8686235    0.9174965 
C     1.7121054    3.8834535    1.8812165 
C     2.8156929    4.7331171    1.7405863 
H     3.7566713    6.2718157    0.5308803 
H     1.9048722    6.3182482   -1.1507862 
H    -0.0360940    4.8038237   -0.9192376 
H     1.6457604    3.2164615    2.7485284 
H     3.6095354    4.7244117    2.4946765 
C    -5.5042127    0.5312132   -2.4370603 
C    -5.7001588    0.3296999   -1.0625055 
C    -4.7268232    0.7438131   -0.1432977 
C    -3.5323934    1.3615209   -0.5772780 
C    -3.3520911    1.5626318   -1.9665869 
C    -4.3279003    1.1567346   -2.8835225 
H    -6.2636359    0.2081752   -3.1561662 
H    -6.6186704   -0.1456692   -0.7027979 
H    -4.8956809    0.5944309    0.9290176 
H    -2.4266255    2.0168709   -2.3364192 
H    -4.1657618    1.3190174   -3.9541840 
C    -2.2290693   -2.3409025    1.1356962 
C    -2.1412065   -1.8550978   -1.6148188 
C     3.1150515    0.8854576   -0.7712866 
C     2.6307661    0.0566156    1.8338405 
C    -3.4351483   -2.8176513    0.2827477 
C    -3.0013704   -3.0553007   -1.1673767 
C     4.2385006    1.1158723    0.2841677 
C     4.1169805    0.1064766    1.4357427 
C     0.4484182   -2.4144359   -0.2591231 
C     1.6846669   -1.7206399   -0.3248442 
C    -2.6564647   -1.5284854    2.3849437 
C    -1.3732747   -2.0377843   -2.9432391 
C     2.7284392    2.1843308   -1.5212137 
C     2.1582153   -1.0087366    2.8669909 
C    -3.6129943   -2.3544593    3.2680284 
C    -1.4682893   -1.0258104    3.2134675 
C    -0.4922677   -0.8231943   -3.2670895 
C    -2.3571051   -2.3165635   -4.0969292 
C     1.5569750    2.0004366   -2.4948400 
C     3.9512925    2.7660166   -2.2561908 
C     2.0208959   -0.3680184    4.2596646 
C     3.0436022   -2.2649641    2.9227432 
C     0.4269851   -3.8103101   -0.4577068 
C     2.8528498   -2.4280544   -0.6764143 
C     1.6016495   -4.5059322   -0.7710795 
C     2.8112684   -3.8091637   -0.9066461 
H    -1.6318870   -3.2124704    1.4686677 
H    -2.8005417   -0.9699424   -1.7099007 
H     3.4360625    0.1316900   -1.5156336 
H     2.3616063    1.0585969    2.2208346 
H    -3.8854264   -3.7232860    0.7227084 
H    -4.2070584   -2.0264547    0.2968611 
H    -3.8816720   -3.1647188   -1.8234210 
H    -2.4191151   -3.9916476   -1.2588145 
H     5.2313094    1.0652883   -0.1934802 
H     4.1213496    2.1391244    0.6877151 
H     4.7460673    0.4013908    2.2950009 
H     4.4642744   -0.8921379    1.1179571 
H    -3.2142821   -0.6465358    2.0148854 
H    -0.7141296   -2.9214652   -2.8325349 
H     2.4214586    2.9151793   -0.7531780 
H     1.1507653   -1.3397236    2.5553339 
H    -4.5389949   -2.6303033    2.7369731 
H    -3.9011936   -1.7767430    4.1631800 
H    -3.1240133   -3.2848726    3.6109727 
H    -1.8147958   -0.4401097    4.0823977 
H    -0.8098018   -0.3715720    2.6086838 
H    -0.8617589   -1.8673717    3.5938431 
H     0.0343036   -0.9629275   -4.2267244 
H    -1.0995366    0.0963791   -3.3410148 
H     0.2719944   -0.6598314   -2.4888994 
H    -3.0788729   -1.4857647   -4.2020576 
H    -1.8101478   -2.4157557   -5.0503553 
H    -2.9270136   -3.2477355   -3.9413030 
H     1.7946965    1.2609373   -3.2809176 
H     1.3165474    2.9566575   -2.9909043 
H     0.6468213    1.6571651   -1.9665381 
H     4.7756447    3.0081971   -1.5650034 
H     3.6717620    3.6984001   -2.7764481 
H     4.3331395    2.0563912   -3.0137628 
H     2.9936013    0.0189291    4.6149003 
H     1.6609604   -1.1032647    5.0002596 
H     1.3042098    0.4730766    4.2422907 
H     4.0619771   -2.0276345    3.2780146 
H     2.6088222   -2.9955596    3.6266672 
H     3.1259628   -2.7570124    1.9398474 
H    -0.5154422   -4.3616034   -0.3848659 
H     3.8102044   -1.9053339   -0.7611975 
H     1.5681525   -5.5886696   -0.9284025 
H     3.7276466   -4.3433572   -1.1769256 
