101
Energy =
C    -0.5704606    2.7202205    1.3710690 
C    -1.5564283    2.6492460    0.3614599 
C    -2.6003426    1.6739352    0.4146059 
H    -1.4308618    3.2429821   -0.5526334 
Pd   -0.6127884    0.6542068    0.3785476 
P    -1.1697586   -1.5435242   -0.1293862 
P     1.6106121   -0.0057056    0.2863543 
H    -0.8145555    2.2576906    2.3400888 
H    -2.9657929    1.3801394    1.4076633 
C     2.8876480    5.2736300    1.5422881 
C     2.5425474    4.4551491    2.6278750 
C     1.4003996    3.6477234    2.5599881 
C     0.5844395    3.6302015    1.4031366 
C     0.9285773    4.4866168    0.3314873 
C     2.0679918    5.2941443    0.4003397 
H     3.7786614    5.9077390    1.5907843 
H     3.1587402    4.4514674    3.5329398 
H     1.1241878    3.0240799    3.4172507 
H     0.2999944    4.5276988   -0.5624327 
H     2.3172753    5.9506403   -0.4397369 
C    -5.3361620    0.8914591   -2.8229993 
C    -4.0663637    1.4279260   -3.0943535 
C    -3.1742349    1.6942951   -2.0496644 
C    -3.5359100    1.4426945   -0.7037320 
C    -4.8202717    0.9118506   -0.4471801 
C    -5.7089173    0.6355561   -1.4945626 
H    -6.0300888    0.6766866   -3.6418644 
H    -3.7654168    1.6278581   -4.1280349 
H    -2.1732375    2.0735219   -2.2830498 
H    -5.1259772    0.7260416    0.5886950 
H    -6.6998040    0.2263254   -1.2717977 
C    -2.2263636   -2.6106219    1.0235506 
C    -2.3281713   -1.7979568   -1.6099976 
C     2.8084235    0.6121761   -1.0556823 
C     2.7529430    0.5074064    1.7000506 
C    -3.6313050   -2.4827366    0.4095745 
C    -3.4651909   -2.7141726   -1.0983194 
C     3.7293846    1.5891571   -0.2977051 
C     4.0860286    0.9052190    1.0299882 
C     0.4083915   -2.4940747   -0.2755013 
C     1.6283104   -1.8362659    0.0264379 
C    -2.0911508   -2.4373162    2.5508154 
C    -1.6804974   -2.1962482   -2.9532317 
C     2.2139375    1.0560357   -2.4106356 
C     2.7784557   -0.4171779    2.9420953 
C    -0.7234327   -2.9506858    3.0333108 
C    -2.3868985   -1.0162979    3.0510153 
C    -0.6118153   -1.1760650   -3.3685708 
C    -2.7570226   -2.3362155   -4.0474596 
C     3.3393649    1.3227413   -3.4298835 
C     1.2619869    2.2537917   -2.3137987 
C     1.4887141   -0.2242018    3.7591576 
C     4.0131935   -0.1581624    3.8254882 
C     0.4209292   -3.8687108   -0.5879918 
C     2.8277212   -2.5780094    0.0399780 
C     1.6209894   -4.5907323   -0.5815148 
C     2.8243237   -3.9474331   -0.2539160 
H    -1.8684132   -3.6322518    0.7865640 
H    -2.7471298   -0.7814714   -1.7331253 
H     3.4052368   -0.2990559   -1.2567606 
H     2.2818790    1.4625326    2.0051411 
H    -4.3180639   -3.2158542    0.8686679 
H    -4.0501996   -1.4770913    0.5930804 
H    -4.3973077   -2.4999604   -1.6472583 
H    -3.2065746   -3.7746902   -1.2840558 
H     4.6296222    1.8135815   -0.8949356 
H     3.2136544    2.5480948   -0.1014110 
H     4.6577798    1.5766216    1.6927802 
H     4.7189459    0.0170566    0.8408572 
H    -2.8649168   -3.1046530    2.9815154 
H    -1.1899902   -3.1817256   -2.8278407 
H     1.6334075    0.1957212   -2.7873172 
H     2.8247334   -1.4699440    2.6009418 
H    -0.5808417   -4.0120973    2.7646052 
H    -0.6281054   -2.8578586    4.1284257 
H     0.1011869   -2.3806127    2.5719859 
H    -2.3343568   -0.9725881    4.1521477 
H    -3.3916112   -0.6756913    2.7462036 
H    -1.6471270   -0.2980264    2.6469488 
H     0.1898910   -1.1141045   -2.6129860 
H    -0.1456122   -1.4527741   -4.3296197 
H    -1.0516843   -0.1679659   -3.4757615 
H    -3.3180588   -1.3909305   -4.1626779 
H    -2.2880607   -2.5775247   -5.0170173 
H    -3.4794966   -3.1370230   -3.8170282 
H     3.9310664    2.2134738   -3.1535505 
H     2.9133142    1.5047234   -4.4316553 
H     4.0288922    0.4631497   -3.5056471 
H     0.4531900    2.0504538   -1.5855128 
H     0.7951697    2.4582321   -3.2928145 
H     1.7949891    3.1649669   -1.9943918 
H     1.4851124    0.7711687    4.2393587 
H     1.3973149   -0.9829515    4.5540033 
H     0.5906715   -0.2893957    3.1210154 
H     4.0488319    0.8961898    4.1562124 
H     3.9725440   -0.7919496    4.7282940 
H     4.9559126   -0.3845806    3.2999304 
H    -0.5139904   -4.3859497   -0.8293958 
H     3.7751413   -2.0836561    0.2797563 
H     1.6159872   -5.6579286   -0.8250361 
H     3.7621151   -4.5115982   -0.2330358 
