101
Energy =
C    -0.4006840    2.8301190    1.3131149 
C    -1.4426125    2.7304327    0.3609374 
C    -2.4393225    1.7163235    0.4871350 
H    -1.3971835    3.3312017   -0.5559157 
Pd   -0.4280911    0.7741888    0.3107785 
P    -1.0290959   -1.3961478   -0.2238169 
P     1.7878497    0.0601778    0.3267310 
H    -0.5833437    2.3655550    2.2946710 
H    -2.6808632    1.3918198    1.5094117 
C     2.8952395    5.5956593    1.3534870 
C     2.6422703    4.7606440    2.4523725 
C     1.5564477    3.8772167    2.4257718 
C     0.7064432    3.7992693    1.2969040 
C     0.9608741    4.6649273    0.2074422 
C     2.0439258    5.5494668    0.2361808 
H     3.7414112    6.2898742    1.3715714 
H     3.2879074    4.8032713    3.3356647 
H     1.3543616    3.2389445    3.2936479 
H     0.3093672    4.6483758   -0.6714311 
H     2.2248535    6.2113264   -0.6170490 
C    -5.5035889    0.8241500   -2.4102941 
C    -5.6695142    0.4751467   -1.0614459 
C    -4.6734928    0.7860546   -0.1268016 
C    -3.4850836    1.4438705   -0.5192974 
C    -3.3347492    1.7921918   -1.8814437 
C    -4.3344905    1.4907488   -2.8129705 
H    -6.2817968    0.5853874   -3.1422222 
H    -6.5828062   -0.0320587   -0.7332461 
H    -4.8210061    0.5259496    0.9272722 
H    -2.4168753    2.2827168   -2.2216673 
H    -4.1983183    1.7704950   -3.8629041 
C    -2.1827608   -2.3717492    0.9390235 
C    -2.0385875   -1.7683535   -1.7746577 
C     3.0911753    0.8072257   -0.8132510 
C     2.7840181    0.4517325    1.9073971 
C    -3.3430081   -2.8518981    0.0284849 
C    -2.8455538   -3.0315690   -1.4090440 
C     3.6633886    1.9362122    0.0608306 
C     3.9893024    1.3012583    1.4186015 
C     0.5348936   -2.3903905   -0.2929360 
C     1.7766716   -1.7462967   -0.0505522 
C    -2.6670700   -1.6130938    2.1986164 
C    -1.2570943   -1.7643395   -3.1144451 
C     2.6968369    1.1539194   -2.2627457 
C     3.1716984   -0.7216070    2.8403934 
C    -3.6654171   -2.4692169    3.0034926 
C    -1.5113045   -1.1595515    3.0970683 
C    -1.0393885   -0.3191664   -3.5915045 
C    -1.9775306   -2.5757888   -4.2083354 
C     1.5819600    2.2061758   -2.3602244 
C     2.3842221   -0.1238561   -3.0584463 
C     1.9474223   -1.4891912    3.3559538 
C     4.0090400   -0.2031422    4.0279762 
C     0.5270238   -3.7714172   -0.5803102 
C     2.9720440   -2.4898813   -0.1228950 
C     1.7210884   -4.5009654   -0.6411517 
C     2.9472119   -3.8587175   -0.4153382 
H    -1.5747424   -3.2392899    1.2615964 
H    -2.7560915   -0.9221775   -1.7884881 
H     3.8612269    0.0111687   -0.8667762 
H     2.0894035    1.1099321    2.4617784 
H    -3.7837963   -3.7822781    0.4242472 
H    -4.1367749   -2.0819680    0.0347948 
H    -3.6924663   -3.1584734   -2.1045658 
H    -2.2226883   -3.9397518   -1.5030718 
H     4.5612521    2.3722153   -0.4117320 
H     2.9284315    2.7513695    0.1802679 
H     4.2450838    2.0653621    2.1711910 
H     4.8697047    0.6402032    1.3059194 
H    -3.2044977   -0.7143352    1.8419462 
H    -0.2710590   -2.2408857   -2.9438355 
H     3.6087312    1.6024212   -2.7067573 
H     3.8057286   -1.4223264    2.2633120 
H    -4.5730721   -2.7081668    2.4248460 
H    -3.9819508   -1.9309583    3.9136312 
H    -3.1996967   -3.4206097    3.3203258 
H    -1.8856969   -0.5747852    3.9554177 
H    -0.7963888   -0.5224418    2.5395400 
H    -0.9558434   -2.0271773    3.4943509 
H    -0.6178316    0.3125890   -2.7909318 
H    -0.3556549   -0.2815685   -4.4553815 
H    -2.0023878    0.1259386   -3.8950721 
H    -2.9969154   -2.1860874   -4.3839553 
H    -1.4213792   -2.5000114   -5.1587470 
H    -2.0562137   -3.6457883   -3.9529725 
H     0.6705854    1.8680725   -1.8260176 
H     1.3090191    2.3910940   -3.4131039 
H     1.8958640    3.1631267   -1.9137576 
H     3.2395779   -0.8219971   -3.0396933 
H     2.1569248    0.1114247   -4.1116820 
H     1.5161386   -0.6560269   -2.6341794 
H     1.2997720   -0.8270601    3.9580234 
H     2.2576747   -2.3313253    3.9980203 
H     1.3434917   -1.9027930    2.5312133 
H     3.4407098    0.5475916    4.6079772 
H     4.2587020   -1.0353868    4.7084600 
H     4.9564079    0.2591884    3.7049189 
H    -0.4191181   -4.2892381   -0.7604014 
H     3.9350401   -1.9975198    0.0480742 
H     1.6928544   -5.5715024   -0.8678231 
H     3.8836266   -4.4233984   -0.4654961 
