101
Energy =
C    -0.3835087    2.8147453    1.3884855 
C    -1.4264808    2.7279835    0.4332202 
C    -2.4696938    1.7649699    0.5940508 
H    -1.3432697    3.2766372   -0.5135996 
Pd   -0.4945067    0.7442978    0.4809986 
P    -1.0798230   -1.4331024   -0.0775550 
P     1.7176755    0.0725632    0.3124075 
H    -0.5966059    2.4064099    2.3890215 
H    -2.7528302    1.5110141    1.6258099 
C     3.1149982    5.3237152    1.3138812 
C     2.8380403    4.5046258    2.4190779 
C     1.6853548    3.7094483    2.4306574 
C     0.7891651    3.7055861    1.3354280 
C     1.0690316    4.5578977    0.2416135 
C     2.2197171    5.3537620    0.2312470 
H     4.0136974    5.9485254    1.3017977 
H     3.5170994    4.4912052    3.2778566 
H     1.4645531    3.0848608    3.3040896 
H     0.3785293    4.6110009   -0.6060860 
H     2.4171487    6.0073983   -0.6245880 
C    -5.4715816    0.8550624   -2.3633578 
C    -4.2148243    1.3351089   -2.7675216 
C    -3.2355363    1.6394923   -1.8152300 
C    -3.4932710    1.4799630   -0.4328822 
C    -4.7648922    1.0035456   -0.0420647 
C    -5.7423925    0.6921895   -0.9964442 
H    -6.2348475    0.6129887   -3.1097654 
H    -3.9931156    1.4612923   -3.8322682 
H    -2.2483959    1.9794837   -2.1482887 
H    -4.9921628    0.8881253    1.0236226 
H    -6.7222199    0.3280241   -0.6704101 
C    -2.4136592   -2.3566934    0.9034476 
C    -1.8646903   -1.7507581   -1.7608591 
C     2.7943457    0.9401558   -0.9876024 
C     2.9326812    0.3444097    1.7380495 
C    -3.5064994   -2.6744151   -0.1522711 
C    -2.8422307   -2.9167945   -1.5114501 
C     3.8962831    1.6368867   -0.1527417 
C     4.2504222    0.7600026    1.0512695 
C     0.4749538   -2.4314242   -0.0409263 
C     1.7146950   -1.7391019   -0.0481154 
C    -2.9553130   -1.6183334    2.1518850 
C    -0.8971169   -1.8570011   -2.9812133 
C     2.0217239    1.9028943   -1.9224654 
C     3.0425996   -0.7721654    2.7998053 
C    -4.0547673   -2.4500699    2.8407398 
C    -1.8501656   -1.2499520    3.1490837 
C    -1.4571078   -1.0442679   -4.1631362 
C    -0.5898926   -3.2988310   -3.4221265 
C     0.9674419    1.1837560   -2.7707158 
C     2.9870225    2.7044017   -2.8157258 
C     1.6715552   -1.1344497    3.3858783 
C     4.0233497   -0.3612223    3.9159586 
C     0.4705409   -3.8388689   -0.1103756 
C     2.9124435   -2.4664867   -0.2026556 
C     1.6709609   -4.5521963   -0.2256422 
C     2.8913870   -3.8642067   -0.2960331 
H    -1.9299986   -3.2968302    1.2342645 
H    -2.4732530   -0.8334783   -1.8831327 
H     3.2431491    0.1247389   -1.5893760 
H     2.5101441    1.2457160    2.2243438 
H    -4.1052415   -3.5449194    0.1642888 
H    -4.1922371   -1.8095057   -0.2257695 
H    -3.5893239   -2.9771499   -2.3229059 
H    -2.3014579   -3.8801300   -1.5011698 
H     4.7818156    1.8416543   -0.7775041 
H     3.5138810    2.6118179    0.2039582 
H     4.8997577    1.3048277    1.7578910 
H     4.8102157   -0.1395194    0.7295299 
H    -3.4179102   -0.6811256    1.7891541 
H     0.0650071   -1.4008307   -2.6868385 
H     1.4958431    2.6208139   -1.2653163 
H     3.4520838   -1.6737946    2.3040284 
H    -4.9169793   -2.6301949    2.1774802 
H    -4.4268263   -1.9243440    3.7370384 
H    -3.6603519   -3.4306019    3.1655423 
H    -2.2699413   -0.7290279    4.0270717 
H    -1.1059056   -0.5758117    2.6829216 
H    -1.3171307   -2.1480935    3.5100927 
H    -1.5893237    0.0169444   -3.8930397 
H    -0.7780075   -1.0941910   -5.0319700 
H    -2.4405273   -1.4376608   -4.4791350 
H    -1.4935489   -3.8095686   -3.7988942 
H     0.1483103   -3.2845464   -4.2425143 
H    -0.1644289   -3.9042653   -2.6057287 
H     1.4250200    0.4218493   -3.4273976 
H     0.4247272    1.8992511   -3.4126887 
H     0.2208370    0.6838361   -2.1252997 
H     3.6573174    3.3504134   -2.2247159 
H     2.4177405    3.3554342   -3.5019152 
H     3.6106163    2.0307648   -3.4322515 
H     1.1875483   -0.2499475    3.8395594 
H     1.7672060   -1.9065753    4.1683216 
H     0.9962883   -1.5295546    2.6091364 
H     3.6890910    0.5700414    4.4100054 
H     4.0773966   -1.1501712    4.6857234 
H     5.0447566   -0.1982775    3.5334786 
H    -0.4760515   -4.3880920   -0.0848822 
H     3.8725731   -1.9413329   -0.2338680 
H     1.6515505   -5.6454934   -0.2757550 
H     3.8295536   -4.4171577   -0.4070281 
