101
Energy =
C    -0.3544568    2.7921935    1.3984507 
C    -1.3829171    2.7254749    0.4259520 
C    -2.4400808    1.7760209    0.5601261 
H    -1.2865963    3.2907170   -0.5099939 
Pd   -0.4609711    0.7359635    0.4493402 
P    -0.9947430   -1.4451996   -0.1790022 
P     1.7579742    0.0905895    0.3320878 
H    -0.5865857    2.3704121    2.3888709 
H    -2.7356500    1.5069295    1.5842478 
C     3.1112730    5.3468066    1.4508708 
C     2.8060487    4.5225181    2.5445854 
C     1.6664223    3.7092702    2.5125469 
C     0.8122721    3.6917149    1.3841913 
C     1.1209446    4.5477636    0.3008955 
C     2.2578824    5.3622608    0.3344968 
H     3.9997759    5.9857502    1.4727457 
H     3.4520439    4.5196435    3.4285580 
H     1.4216691    3.0828214    3.3781948 
H     0.4632708    4.5896923   -0.5729553 
H     2.4775102    6.0189274   -0.5135409 
C    -5.4796652    1.1080672   -2.4187334 
C    -5.7826377    0.9967643   -1.0534255 
C    -4.7882177    1.2173906   -0.0911277 
C    -3.4713267    1.5585319   -0.4750711 
C    -3.1810917    1.6685340   -1.8553436 
C    -4.1749174    1.4469404   -2.8150735 
H    -6.2550047    0.9324832   -3.1712899 
H    -6.7982761    0.7393645   -0.7356185 
H    -5.0339199    1.1366963    0.9737995 
H    -2.1595312    1.9043320   -2.1763855 
H    -3.9304858    1.5309250   -3.8792867 
C    -2.2266064   -2.4660814    0.8522051 
C    -1.8912441   -1.6707191   -1.8448624 
C     2.8706365    1.0013726   -0.8977537 
C     2.8951001    0.3549716    1.8171656 
C    -3.1542179   -3.0743666   -0.2302659 
C    -3.3101456   -2.0257490   -1.3385339 
C     3.8945389    1.7312778    0.0031237 
C     4.2272826    0.8370257    1.2033195 
C     0.5810969   -2.4092863   -0.1805473 
C     1.8082762   -1.7042007   -0.0859256 
C    -2.9682091   -1.6232341    1.9300147 
C    -1.2785066   -2.6795668   -2.8596823 
C     2.0954466    1.9133344   -1.8786286 
C     2.9798293   -0.7948793    2.8449315 
C    -4.0587641   -2.4476447    2.6427467 
C    -1.9957515   -1.0522619    2.9728753 
C     0.0409688   -2.1629736   -3.4556597 
C    -2.2683572   -2.9874635   -4.0031456 
C     1.1759197    1.1037516   -2.8015820 
C     3.0507890    2.8022065   -2.6949862 
C     1.5886967   -1.1929512    3.3605977 
C     3.9065426   -0.4081753    4.0141936 
C     0.5995841   -3.8106811   -0.3313056 
C     3.0230070   -2.4046291   -0.2253504 
C     1.8145314   -4.4988312   -0.4443695 
C     3.0266687   -3.7930216   -0.4141660 
H    -1.6393717   -3.2460006    1.3714698 
H    -1.8992417   -0.6708954   -2.3136729 
H     3.3885589    0.2072364   -1.4719204 
H     2.4228370    1.2260169    2.3120983 
H    -2.7015796   -3.9941963   -0.6443677 
H    -4.1259098   -3.3693741    0.1970079 
H    -3.7911033   -1.1188258   -0.9312380 
H    -3.9523454   -2.3734876   -2.1626926 
H     4.7998370    1.9896362   -0.5716925 
H     3.4526987    2.6792646    0.3617414 
H     4.8219564    1.3871565    1.9526748 
H     4.8345878   -0.0323827    0.8848892 
H    -3.4621756   -0.7786749    1.4121081 
H    -1.0706812   -3.6330885   -2.3398392 
H     1.4616135    2.5757896   -1.2592885 
H     3.4224214   -1.6742756    2.3378123 
H    -4.8696805   -2.7563657    1.9629682 
H    -4.5164723   -1.8500033    3.4498217 
H    -3.6289065   -3.3573728    3.1007801 
H    -2.5280305   -0.4135188    3.6990595 
H    -1.2066412   -0.4352612    2.4979803 
H    -1.4963327   -1.8624636    3.5341461 
H     0.7855534   -1.9189928   -2.6814910 
H     0.4861231   -2.9232088   -4.1200153 
H    -0.1383943   -1.2532076   -4.0559036 
H    -1.7710242   -3.6042168   -4.7713484 
H    -3.1551866   -3.5443056   -3.6586963 
H    -2.6127400   -2.0560664   -4.4892951 
H     1.7571030    0.4133424   -3.4385612 
H     0.5953597    1.7695968   -3.4640330 
H     0.4544111    0.5042826   -2.2160668 
H     3.6205871    3.4930471   -2.0511917 
H     2.4804354    3.4124625   -3.4168907 
H     3.7710618    2.1898510   -3.2683165 
H     1.0790515   -0.3310750    3.8294187 
H     1.6620742   -1.9945288    4.1152982 
H     0.9452417   -1.5623435    2.5438515 
H     3.5371181    0.5005012    4.5250056 
H     3.9429010   -1.2219920    4.7586624 
H     4.9393848   -0.2161937    3.6787102 
H    -0.3388865   -4.3732851   -0.3669410 
H     3.9755584   -1.8671263   -0.1750841 
H     1.8142859   -5.5868181   -0.5646873 
H     3.9768177   -4.3261596   -0.5197916 
