101
Energy =
C    -0.4422977    2.7500874    1.3111450 
C    -1.5344467    2.6536526    0.4151589 
C    -2.5385342    1.6560678    0.6006048 
H    -1.5270654    3.2422464   -0.5107923 
Pd   -0.5415340    0.6893912    0.3416185 
P    -1.1334194   -1.4951901   -0.1626013 
P     1.6733394   -0.0083036    0.2378954 
H    -0.5819887    2.3062671    2.3094152 
H    -2.7415508    1.3470680    1.6359303 
C     2.9383178    5.4057449    1.1130208 
C     2.7098561    4.6142374    2.2487065 
C     1.5924286    3.7720248    2.3016771 
C     0.6870656    3.6891401    1.2163139 
C     0.9170318    4.5148731    0.0913235 
C     2.0301417    5.3600120    0.0412708 
H     3.8090875    6.0675192    1.0679449 
H     3.3972549    4.6605358    3.0996564 
H     1.4061326    3.1740563    3.2013266 
H     0.2231779    4.4986962   -0.7541434 
H     2.1903295    5.9916881   -0.8385749 
C    -5.7211831    0.7971095   -2.1789097 
C    -5.8662182    0.5056579   -0.8142357 
C    -4.8327849    0.8039609    0.0833784 
C    -3.6269830    1.3914153   -0.3628085 
C    -3.5002246    1.6871014   -1.7399251 
C    -4.5357227    1.3969706   -2.6352285 
H    -6.5281822    0.5664927   -2.8816416 
H    -6.7923011    0.0533919   -0.4443243 
H    -4.9665081    0.5925517    1.1500219 
H    -2.5715053    2.1270047   -2.1178516 
H    -4.4160778    1.6342695   -3.6976619 
C    -2.3653193   -2.4678349    0.9166604 
C    -2.0758213   -1.8307042   -1.7639051 
C     2.8664112    0.6177387   -1.0818258 
C     2.7990159    0.4945517    1.6803001 
C    -3.4640173   -2.9589246   -0.0632770 
C    -2.8726718   -3.1157493   -1.4700607 
C     3.6629282    1.7047713   -0.3345883 
C     4.0616000    1.0980889    1.0179158 
C     0.4173454   -2.5088765   -0.0935089 
C     1.6618587   -1.8405400    0.0339965 
C    -2.9125998   -1.7134214    2.1514485 
C    -1.3689605   -1.7522677   -3.1397343 
C     2.2660106    0.9599593   -2.4630220 
C     3.0515470   -0.5424097    2.7976749 
C    -3.9392182   -2.5786568    2.9084004 
C    -1.7962440   -1.2521499    3.0968148 
C    -0.1246341   -2.6413386   -3.2979566 
C    -1.0719787   -0.2921177   -3.5165864 
C     3.3804757    1.0998274   -3.5179353 
C     1.3665441    2.2031414   -2.4434524 
C     1.7372387   -1.0604901    3.3985179 
C     3.9499332    0.0627380    3.8948421 
C     0.4020601   -3.9163769   -0.1797210 
C     2.8581255   -2.5867680    0.0221755 
C     1.5958399   -4.6481287   -0.1728598 
C     2.8276000   -3.9826486   -0.0837620 
H    -1.7781150   -3.3330873    1.2793927 
H    -2.8026412   -0.9917838   -1.7274656 
H     3.5420725   -0.2488474   -1.2253383 
H     2.2249283    1.3304304    2.1215192 
H    -3.9109882   -3.8993712    0.3005534 
H    -4.2701557   -2.2023800   -0.0997401 
H    -3.6664979   -3.2479969   -2.2271028 
H    -2.2210707   -4.0065760   -1.5351338 
H     4.5471291    2.0154201   -0.9175985 
H     3.0409225    2.6046468   -0.1753144 
H     4.5124399    1.8565178    1.6801225 
H     4.8171053    0.3030568    0.8644283 
H    -3.4390620   -0.8187154    1.7720631 
H    -2.1279254   -2.1284118   -3.8546938 
H     1.6468810    0.0915373   -2.7570552 
H     3.5916666   -1.4025926    2.3568101 
H    -4.8121452   -2.8314740    2.2838463 
H    -4.3096266   -2.0410144    3.7983415 
H    -3.4789314   -3.5228851    3.2534803 
H    -2.2111702   -0.6958111    3.9552715 
H    -1.0832237   -0.5847434    2.5749549 
H    -1.2267770   -2.1120912    3.4932411 
H     0.1806405   -2.6682978   -4.3581192 
H     0.7293437   -2.2556064   -2.7145877 
H    -0.3087008   -3.6805270   -2.9764201 
H    -0.5095623    0.2107986   -2.7105322 
H    -0.4746603   -0.2300317   -4.4423889 
H    -2.0050923    0.2726514   -3.6710143 
H     4.0346908    1.9627881   -3.2997668 
H     2.9447383    1.2578377   -4.5196913 
H     4.0112439    0.1942617   -3.5608224 
H     0.5868154    2.1154999   -1.6622716 
H     0.8607812    2.3325870   -3.4154132 
H     1.9509731    3.1160720   -2.2396919 
H     1.1406255   -0.2288041    3.8166151 
H     1.9320860   -1.7787152    4.2132642 
H     1.1214587   -1.5746099    2.6416290 
H     3.4782261    0.9603197    4.3362499 
H     4.1079241   -0.6686298    4.7060620 
H     4.9411257    0.3524562    3.5080603 
H    -0.5470133   -4.4539468   -0.2636148 
H     3.8236498   -2.0761821    0.1034344 
H     1.5640532   -5.7400250   -0.2435730 
H     3.7631330   -4.5508777   -0.0862510 
