101
Energy =
C    -0.4359302    2.7904595    1.2975091 
C    -1.4372920    2.7070976    0.3045295 
C    -2.4852938    1.7393958    0.3975384 
H    -1.3213621    3.2809123   -0.6233563 
Pd   -0.5025220    0.7056843    0.3454151 
P    -1.0795994   -1.4969875   -0.0904912 
P     1.7094254    0.0140842    0.2336033 
H    -0.6683869    2.3417684    2.2759693 
H    -2.8314988    1.4694071    1.4036722 
C     3.0184540    5.3516151    1.3980610 
C     2.7096401    4.5163661    2.4821680 
C     1.5685050    3.7060765    2.4384238 
C     0.7200382    3.6993137    1.3049643 
C     1.0297482    4.5694586    0.2336791 
C     2.1664447    5.3826344    0.2804824 
H     3.9072264    5.9898351    1.4294434 
H     3.3530182    4.5033439    3.3679983 
H     1.3189843    3.0726490    3.2975816 
H     0.3756860    4.6170155   -0.6416636 
H     2.3886311    6.0507921   -0.5579304 
C    -5.2900714    0.8553523   -2.7522683 
C    -4.0432105    1.4217817   -3.0659734 
C    -3.1292624    1.7250895   -2.0507401 
C    -3.4453340    1.4800342   -0.6925604 
C    -4.7083075    0.9204503   -0.3929216 
C    -5.6187352    0.6075698   -1.4106903 
H    -6.0005143    0.6116237   -3.5485276 
H    -3.7771759    1.6164486   -4.1101393 
H    -2.1470938    2.1299773   -2.3175950 
H    -4.9782613    0.7385237    0.6535186 
H    -6.5918120    0.1756677   -1.1547487 
C    -2.0821528   -2.5348664    1.1329177 
C    -2.2779292   -1.7874582   -1.5244553 
C     2.9151258    0.6984054   -1.0510108 
C     2.8121750    0.4739733    1.6989189 
C    -3.5022274   -2.4936294    0.5343213 
C    -3.3503232   -2.7541638   -0.9718759 
C     3.7120817    1.7467698   -0.2493490 
C     4.0951048    1.0723838    1.0777247 
C     0.4823619   -2.4620476   -0.2973284 
C     1.7204660   -1.8049145   -0.0853395 
C    -1.9062925   -2.2655954    2.6463418 
C    -1.6514838   -2.1417674   -2.8899542 
C     2.3476214    1.0812483   -2.4364297 
C     2.9868126   -0.5930451    2.7996109 
C    -2.2429265   -0.8338158    3.0840245 
C    -2.7056240   -3.2980546    3.4666122 
C    -0.6510622   -1.0613352   -3.3276967 
C    -2.7494897   -2.3327765   -3.9542529 
C     3.4930518    1.4189640   -3.4111904 
C     1.3071701    2.2076134   -2.3980602 
C     1.6224467   -1.0274866    3.3570562 
C     3.8982918   -0.0698575    3.9261697 
C     0.4721199   -3.8374285   -0.6075939 
C     2.9197527   -2.5409751   -0.1741157 
C     1.6709580   -4.5560084   -0.6991314 
C     2.8956972   -3.9087452   -0.4749388 
H    -1.6885745   -3.5543691    0.9503341 
H    -2.7475205   -0.7903752   -1.6233919 
H     3.5932006   -0.1622761   -1.2162250 
H     2.2434248    1.3162199    2.1363240 
H    -4.1498750   -3.2481052    1.0124375 
H    -3.9673758   -1.5051386    0.7000486 
H    -4.3044874   -2.6064631   -1.5049717 
H    -3.0380112   -3.8035109   -1.1388486 
H     4.6049434    2.0720675   -0.8102189 
H     3.0987431    2.6458102   -0.0556383 
H     4.5573773    1.7908416    1.7758557 
H     4.8355969    0.2701646    0.8915009 
H    -0.8358782   -2.4371514    2.8659071 
H    -1.1049511   -3.0997341   -2.7865747 
H     1.8488386    0.1734735   -2.8240767 
H     3.4751094   -1.4801037    2.3508170 
H    -1.5863339   -0.1034862    2.5739666 
H    -2.0959646   -0.7185936    4.1714651 
H    -3.2923786   -0.5732250    2.8566738 
H    -2.4558551   -3.2121458    4.5380417 
H    -2.4798746   -4.3310790    3.1472624 
H    -3.7937341   -3.1385256    3.3650050 
H     0.1560612   -0.9393464   -2.5844767 
H    -0.1827244   -1.3189157   -4.2930141 
H    -1.1540184   -0.0841335   -3.4377084 
H    -3.3633972   -1.4184062   -4.0464798 
H    -2.2965965   -2.5428561   -4.9386286 
H    -3.4206624   -3.1728601   -3.7087726 
H     4.0079860    2.3513928   -3.1190146 
H     3.0986169    1.5627019   -4.4318611 
H     4.2441738    0.6100258   -3.4484731 
H     0.4828563    1.9570187   -1.7017759 
H     0.8701846    2.3655284   -3.3990666 
H     1.7599749    3.1580980   -2.0696144 
H     1.0865660   -0.1689882    3.8027213 
H     1.7367664   -1.7997212    4.1367480 
H     0.9804037   -1.4451965    2.5619144 
H     3.4791320    0.8502878    4.3740082 
H     3.9904655   -0.8236059    4.7270644 
H     4.9142647    0.1589130    3.5631479 
H    -0.4776344   -4.3557787   -0.7780667 
H     3.8824210   -2.0449176   -0.0098704 
H     1.6491614   -5.6228563   -0.9431462 
H     3.8337149   -4.4695061   -0.5372549 
