101
Energy =
C    -0.3707913    2.7358727    1.5092554 
C    -1.4571482    2.6681892    0.6045578 
C    -2.4724368    1.6743824    0.7515003 
H    -1.4347907    3.2736064   -0.3105372 
Pd   -0.4873235    0.6958173    0.5075013 
P    -1.0750334   -1.4535305   -0.1117317 
P     1.7147676   -0.0154153    0.3466312 
H    -0.5205386    2.2806448    2.5010076 
H    -2.7086407    1.3510643    1.7756704 
C     3.0619796    5.3257103    1.3327554 
C     2.8088401    4.5428897    2.4688025 
C     1.6744111    3.7224549    2.5157624 
C     0.7756667    3.6549887    1.4241163 
C     1.0331134    4.4693039    0.2965475 
C     2.1625833    5.2925828    0.2527682 
H     3.9456309    5.9705572    1.2927764 
H     3.4904709    4.5778183    3.3249728 
H     1.4701179    3.1296582    3.4150398 
H     0.3469726    4.4610923   -0.5552967 
H     2.3433266    5.9166203   -0.6286017 
C    -5.6052196    0.9865587   -2.1317521 
C    -4.3653841    1.4952259   -2.5528141 
C    -3.3395021    1.7148957   -1.6262649 
C    -3.5374041    1.4520308   -0.2493609 
C    -4.7928685    0.9480952    0.1591092 
C    -5.8134146    0.7126136   -0.7716990 
H    -6.4035879    0.8088151   -2.8592438 
H    -4.1951367    1.7147883   -3.6119565 
H    -2.3653238    2.0734513   -1.9780434 
H    -4.9753245    0.7549778    1.2220985 
H    -6.7794055    0.3255606   -0.4310655 
C    -2.4024725   -2.4763563    0.7737241 
C    -1.8940439   -1.5895340   -1.7925070 
C     2.8303975    0.5707741   -1.0561922 
C     2.9033858    0.5341688    1.7057959 
C    -3.4432488   -2.8150324   -0.3281329 
C    -2.7471656   -2.8683347   -1.6986192 
C     3.6975849    1.6515469   -0.3798246 
C     4.1549096    1.0605939    0.9643907 
C     0.4517962   -2.4961647   -0.0293585 
C     1.6981503   -1.8480734    0.1610916 
C    -2.9872828   -1.8210392    2.0464586 
C    -1.0468240   -1.3236718   -3.0593034 
C     2.1415217    0.8855338   -2.4031028 
C     3.1313148   -0.4335784    2.8872443 
C    -4.0947449   -2.7017387    2.6554034 
C    -1.8977308   -1.5168081    3.0850686 
C    -1.9753227   -1.1199391   -4.2733034 
C     0.0192245   -2.3879761   -3.3689587 
C     3.1905651    1.0708632   -3.5162952 
C     1.1803393    2.0807810   -2.3451671 
C     1.7974249   -0.8599512    3.5218458 
C     4.0572057    0.2118191    3.9367382 
C     0.4222731   -3.8991561   -0.1736653 
C     2.8861243   -2.6075876    0.1706419 
C     1.6068010   -4.6451300   -0.1447364 
C     2.8416867   -3.9991561    0.0214303 
H    -1.8781090   -3.4013927    1.0806463 
H    -2.5989956   -0.7360454   -1.7092400 
H     3.4806367   -0.3103742   -1.2263317 
H     2.3717367    1.4204543    2.1014115 
H    -3.9562966   -3.7626332   -0.0928302 
H    -4.2116614   -2.0194937   -0.3498019 
H    -3.4867726   -2.9068395   -2.5171800 
H    -2.1177290   -3.7727628   -1.7909663 
H     4.5562828    1.9224080   -1.0180456 
H     3.1119490    2.5730201   -0.2050902 
H     4.6720704    1.8165929    1.5792824 
H     4.8692799    0.2325306    0.7895856 
H    -3.4472696   -0.8650683    1.7343013 
H    -0.5291991   -0.3609042   -2.8781695 
H     1.5492201   -0.0137486   -2.6590265 
H     3.6359301   -1.3419775    2.5047505 
H    -4.9372004   -2.8481012    1.9587668 
H    -4.4954713   -2.2350296    3.5718221 
H    -3.6994337   -3.6971656    2.9300802 
H    -2.3298433   -1.0448883    3.9844660 
H    -1.1380984   -0.8243046    2.6742533 
H    -1.3783001   -2.4396114    3.4024356 
H    -2.7519663   -0.3645133   -4.0638733 
H    -1.3947111   -0.7842939   -5.1500037 
H    -2.4816077   -2.0613884   -4.5517293 
H    -0.4358342   -3.3847250   -3.5089790 
H     0.5445257   -2.1311006   -4.3053101 
H     0.7761806   -2.4699777   -2.5729899 
H     3.8017552    1.9749716   -3.3451080 
H     2.6965581    1.1840665   -4.4968345 
H     3.8717730    0.2036609   -3.5769625 
H     0.4280474    1.9423617   -1.5427453 
H     0.6402060    2.1906856   -3.3014833 
H     1.7211719    3.0224164   -2.1504597 
H     1.2263730    0.0217383    3.8685335 
H     1.9656652   -1.5171649    4.3919824 
H     1.1656632   -1.4124745    2.8049460 
H     3.6188244    1.1516318    4.3208487 
H     4.2006454   -0.4691193    4.7932483 
H     5.0527665    0.4437911    3.5226931 
H    -0.5286119   -4.4196183   -0.3226592 
H     3.8536641   -2.1106098    0.2979447 
H     1.5664393   -5.7331127   -0.2583731 
H     3.7692713   -4.5800643    0.0390222 
