101
Energy =
C    -0.4866435    2.7777901    1.3033597 
C    -1.4749872    2.6862066    0.2980797 
C    -2.5117760    1.7050150    0.3746467 
H    -1.3553780    3.2654220   -0.6259768 
Pd   -0.5154951    0.6973754    0.3419748 
P    -1.0589795   -1.5110930   -0.1087118 
P     1.7066353    0.0345294    0.2519335 
H    -0.7252741    2.3221766    2.2771434 
H    -2.8667022    1.4267177    1.3755006 
C     2.9315373    5.3844782    1.4583654 
C     2.6201397    4.5406410    2.5350692 
C     1.4910232    3.7148184    2.4731326 
C     0.6572799    3.7014719    1.3288547 
C     0.9688742    4.5802254    0.2651528 
C     2.0938075    5.4084151    0.3298492 
H     3.8111050    6.0345259    1.5037779 
H     3.2517155    4.5332287    3.4294312 
H     1.2392664    3.0741828    3.3262849 
H     0.3252583    4.6229413   -0.6181658 
H     2.3177317    6.0829765   -0.5029731 
C    -5.2692081    0.8049538   -2.8123419 
C    -5.6114604    0.5482457   -1.4758332 
C    -4.7162776    0.8654066   -0.4459073 
C    -3.4555481    1.4390035   -0.7280187 
C    -3.1255091    1.6926016   -2.0813264 
C    -4.0241414    1.3845540   -3.1087451 
H    -5.9677766    0.5579507   -3.6180614 
H    -6.5834175    0.1061430   -1.2333682 
H    -4.9968804    0.6761797    0.5964454 
H    -2.1441884    2.1081862   -2.3345771 
H    -3.7474716    1.5860708   -4.1488567 
C    -2.0622632   -2.5648375    1.1001580 
C    -2.2375870   -1.8113286   -1.5568092 
C     2.9169351    0.7392393   -1.0173990 
C     2.7875604    0.5036999    1.7305551 
C    -3.4762242   -2.5376175    0.4866269 
C    -3.3051284   -2.7915944   -1.0186895 
C     3.6916993    1.7946663   -0.2032884 
C     4.0695965    1.1196839    1.1249512 
C     0.5174458   -2.4555598   -0.3001175 
C     1.7445833   -1.7831040   -0.0725881 
C    -1.9049025   -2.2996104    2.6163181 
C    -1.5921255   -2.1550037   -2.9161613 
C     2.3590627    1.1202090   -2.4072477 
C     2.9635129   -0.5645028    2.8298602 
C    -2.2638505   -0.8740045    3.0565227 
C    -2.6992229   -3.3455605    3.4243181 
C    -0.5993350   -1.0621026   -3.3402053 
C    -2.6761924   -2.3556059   -3.9929237 
C     3.5101781    1.4767874   -3.3685083 
C     1.3035415    2.2326459   -2.3752685 
C     1.5987239   -1.0169341    3.3717410 
C     3.8570508   -0.0340952    3.9673617 
C     0.5284680   -3.8300739   -0.6142360 
C     2.9541772   -2.5034709   -0.1497503 
C     1.7374206   -4.5330078   -0.6937966 
C     2.9511230   -3.8706944   -0.4540548 
H    -1.6551030   -3.5790414    0.9178644 
H    -2.7172341   -0.8193320   -1.6585401 
H     3.6077245   -0.1120648   -1.1785822 
H     2.2037133    1.3376506    2.1639661 
H    -4.1204774   -3.3008766    0.9553448 
H    -3.9542025   -1.5549569    0.6504705 
H    -4.2550651   -2.6528754   -1.5616806 
H    -2.9792184   -3.8368615   -1.1853837 
H     4.5859717    2.1339901   -0.7534994 
H     3.0645762    2.6847224   -0.0122468 
H     4.5160018    1.8409033    1.8305335 
H     4.8216226    0.3272172    0.9431994 
H    -0.8346196   -2.4587340    2.8458348 
H    -1.0359048   -3.1069625   -2.8090316 
H     1.8763199    0.2075844   -2.8037313 
H     3.4670217   -1.4443126    2.3835652 
H    -1.6119316   -0.1333312    2.5554897 
H    -2.1283781   -0.7614405    4.1457452 
H    -3.3144045   -0.6257849    2.8205240 
H    -2.4614004   -3.2609858    4.4985831 
H    -2.4571038   -4.3742803    3.1030375 
H    -3.7882344   -3.1994894    3.3123402 
H    -0.1162085   -1.3126798   -4.3000613 
H    -1.1125463   -0.0907872   -3.4550946 
H     0.1971925   -0.9316076   -2.5870418 
H    -3.2997173   -1.4481637   -4.0891610 
H    -2.2102309   -2.5573910   -4.9729397 
H    -3.3401340   -3.2042036   -3.7572112 
H     4.0094550    2.4149763   -3.0675902 
H     3.1247570    1.6189825   -4.3928417 
H     4.2724626    0.6781213   -3.4005732 
H     0.4749913    1.9677508   -1.6894056 
H     0.8756818    2.3896788   -3.3803711 
H     1.7399299    3.1873811   -2.0371737 
H     1.0483667   -0.1664639    3.8152099 
H     1.7140708   -1.7908534    4.1496214 
H     0.9696724   -1.4389321    2.5684861 
H     3.4224884    0.8797409    4.4134511 
H     3.9497461   -0.7891451    4.7669921 
H     4.8740007    0.2076438    3.6156085 
H    -0.4125718   -4.3602072   -0.7964321 
H     3.9084115   -1.9955363    0.0270561 
H     1.7320672   -5.5994159   -0.9406866 
H     3.8969340   -4.4191904   -0.5071508 
