101
Energy =
C    -0.4839041    2.8158649    1.2911514 
C    -1.4609173    2.6878964    0.2777946 
C    -2.5209804    1.7360515    0.3814671 
H    -1.3128377    3.2132744   -0.6740028 
Pd   -0.5426167    0.6922381    0.4317225 
P    -1.1061669   -1.5118771   -0.0595985 
P     1.6847181    0.0413952    0.3516426 
H    -0.7368368    2.4157390    2.2853019 
H    -2.8924171    1.5034394    1.3886026 
C     2.9283518    5.4432196    1.3168816 
C     2.6559841    4.6068506    2.4099029 
C     1.5304329    3.7737518    2.3914638 
C     0.6607589    3.7433512    1.2759193 
C     0.9340098    4.6156876    0.1955991 
C     2.0543782    5.4526847    0.2167237 
H     3.8045087    6.0993797    1.3290710 
H     3.3153597    4.6112660    3.2839762 
H     1.3102034    3.1399748    3.2572304 
H     0.2640394    4.6474589   -0.6694838 
H     2.2460919    6.1207998   -0.6291390 
C    -5.2890505    0.8631644   -2.8061420 
C    -5.6638369    0.6881899   -1.4652456 
C    -4.7623618    0.9896138   -0.4359720 
C    -3.4634185    1.4663214   -0.7229778 
C    -3.1006701    1.6384066   -2.0808928 
C    -4.0046662    1.3453533   -3.1082242 
H    -5.9929891    0.6283139   -3.6108421 
H    -6.6661454    0.3226946   -1.2188203 
H    -5.0696348    0.8672887    0.6088878 
H    -2.0907582    1.9760967   -2.3370082 
H    -3.7018244    1.4825415   -4.1515610 
C    -2.2146376   -2.5377464    1.0794943 
C    -2.2190185   -1.7924563   -1.5819201 
C     2.8636793    0.8662203   -0.9052536 
C     2.8276298    0.3931992    1.8096995 
C    -3.6003102   -2.3539531    0.4380443 
C    -3.4243928   -2.6157618   -1.0606702 
C     4.1001103    1.3197795   -0.0788622 
C     4.2352652    0.4744586    1.1931931 
C     0.4747883   -2.4479586   -0.2317687 
C     1.7080053   -1.7554597   -0.1070618 
C    -2.1226441   -2.3452259    2.6075805 
C    -1.5684117   -2.3492146   -2.8701569 
C     2.2362195    2.0199013   -1.7261778 
C     2.6921606   -0.3679118    3.1473279 
C    -0.7807411   -2.8749275    3.1347470 
C    -2.4086167   -0.9111839    3.0765986 
C    -0.4419981   -1.4446800   -3.3847318 
C    -2.6394269   -2.5363002   -3.9650888 
C     1.0521311    1.5681358   -2.5872438 
C     3.2957698    2.7121817   -2.6056073 
C     2.9371312   -1.8825566    3.0509621 
C     1.3600374   -0.0346963    3.8394262 
C     0.4776324   -3.8254953   -0.5320265 
C     2.9100385   -2.4539473   -0.3451041 
C     1.6812998   -4.5107978   -0.7357819 
C     2.8990171   -3.8190103   -0.6555443 
H    -1.8915228   -3.5760346    0.8640028 
H    -2.5700373   -0.7669836   -1.7989741 
H     3.1480767    0.0480732   -1.5945320 
H     2.5204143    1.4423992    2.0043599 
H    -4.3297976   -3.0451691    0.8962552 
H    -3.9713343   -1.3266697    0.6017051 
H    -4.3326546   -2.3533009   -1.6278887 
H    -3.2315817   -3.6937836   -1.2229945 
H     5.0110137    1.2813385   -0.6993792 
H     3.9511711    2.3746403    0.2195041 
H     4.9353885    0.9401927    1.9103041 
H     4.6343475   -0.5317562    0.9730677 
H    -2.9222514   -2.9912507    3.0231579 
H    -1.1409504   -3.3449892   -2.6420061 
H     1.8682656    2.7618999   -0.9947809 
H     3.5004867    0.0497784    3.7812366 
H    -0.6544044   -3.9464803    2.9004030 
H    -0.6988763   -2.7496647    4.2277231 
H     0.0607946   -2.3351254    2.6698723 
H    -2.3790610   -0.8491047    4.1776280 
H    -3.4017526   -0.5625929    2.7445630 
H    -1.6514446   -0.2089637    2.6766568 
H     0.0130616   -1.8661238   -4.2974438 
H    -0.8353656   -0.4429603   -3.6324115 
H     0.3601972   -1.3227941   -2.6376376 
H    -3.4056034   -3.2759835   -3.6796007 
H    -3.1494756   -1.5787453   -4.1770851 
H    -2.1691642   -2.8870249   -4.8999351 
H     1.3729826    0.8556841   -3.3673212 
H     0.5850388    2.4327790   -3.0913197 
H     0.2744963    1.0751845   -1.9711961 
H     4.1053017    3.1649141   -2.0097158 
H     2.8284230    3.5194683   -3.1960597 
H     3.7489985    1.9958794   -3.3158064 
H     2.1526632   -2.3879951    2.4640891 
H     2.9422128   -2.3299776    4.0596517 
H     3.9080120   -2.1116274    2.5791586 
H     0.5026633   -0.2846619    3.1924191 
H     1.2474776   -0.5963606    4.7820481 
H     1.2940742    1.0412341    4.0764260 
H    -0.4688509   -4.3704058   -0.6152646 
H     3.8696032   -1.9337102   -0.2803440 
H     1.6680814   -5.5800349   -0.9695960 
H     3.8433605   -4.3442154   -0.8304415 
