101
Energy =
C    -0.4561834    2.8170376    1.2779800 
C    -1.3965764    2.7337368    0.2241843 
C    -2.4751479    1.7961048    0.2761248 
H    -1.2014961    3.2683255   -0.7140773 
Pd   -0.5106257    0.7302519    0.3870533 
P    -1.0568332   -1.4749228   -0.1048169 
P     1.7127234    0.0914700    0.2785806 
H    -0.7682711    2.4136638    2.2540200 
H    -2.8930538    1.5612441    1.2648060 
C     3.0673235    5.2766812    1.5358691 
C     2.7030516    4.4249495    2.5899893 
C     1.5435895    3.6459460    2.4924331 
C     0.7286373    3.6906761    1.3362051 
C     1.0953492    4.5748100    0.2946034 
C     2.2525259    5.3550073    0.3937375 
H     3.9712007    5.8896929    1.6095134 
H     3.3189420    4.3737451    3.4938045 
H     1.2534847    2.9945366    3.3249962 
H     0.4655245    4.6687231   -0.5954999 
H     2.5172557    6.0354034   -0.4221298 
C    -5.0825557    0.9406227   -3.0488428 
C    -3.7768904    1.4033447   -3.2837463 
C    -2.9268983    1.6927969   -2.2106691 
C    -3.3650851    1.5354470   -0.8732019 
C    -4.6834219    1.0762161   -0.6540073 
C    -5.5316558    0.7800025   -1.7292357 
H    -5.7446699    0.7084932   -3.8890273 
H    -3.4155030    1.5273389   -4.3099795 
H    -1.8989659    2.0118473   -2.4122377 
H    -5.0483587    0.9623165    0.3729649 
H    -6.5505306    0.4288196   -1.5354274 
C    -2.0952122   -2.4290240    1.1443117 
C    -2.2623364   -1.7916156   -1.5444097 
C     2.8051812    1.0074398   -0.9761704 
C     2.8991376    0.3506896    1.7278121 
C    -3.5169650   -2.1551134    0.6226691 
C    -3.4944434   -2.4653665   -0.8786768 
C     3.8695810    1.7112979   -0.1027191 
C     4.2230266    0.8025723    1.0787429 
C     0.5237306   -2.4063869   -0.2923826 
C     1.7498116   -1.6991448   -0.1809464 
C    -1.8213067   -2.2175858    2.6505987 
C    -1.7543368   -2.5277120   -2.8091269 
C     2.0301821    1.9470544   -1.9295584 
C     2.9815431   -0.7863814    2.7668106 
C    -2.0413916   -0.7771899    3.1347108 
C    -2.6482947   -3.2131862    3.4892146 
C    -0.5814148   -1.8065154   -3.4862464 
C    -2.9145791   -2.6968140   -3.8134175 
C     1.0572510    1.1717144   -2.8243442 
C     2.9900001    2.8064603   -2.7725963 
C     1.5959579   -1.0830859    3.3544968 
C     3.9898489   -0.4446713    3.8805381 
C     0.5423582   -3.7900553   -0.5607960 
C     2.9630156   -2.3881970   -0.3821955 
C     1.7561126   -4.4637540   -0.7468070 
C     2.9671935   -3.7598824   -0.6679453 
H    -1.8559010   -3.4877896    0.9165272 
H    -2.5409528   -0.7647395   -1.8432742 
H     3.2911040    0.2092946   -1.5721978 
H     2.4559777    1.2385932    2.2212502 
H    -4.2610502   -2.7760809    1.1500997 
H    -3.7897005   -1.0978974    0.7924398 
H    -4.4192344   -2.1288715   -1.3750605 
H    -3.4229830   -3.5613892   -1.0147334 
H     4.7602675    1.9580000   -0.7047677 
H     3.4559109    2.6640808    0.2773189 
H     4.8516288    1.3344776    1.8134292 
H     4.8021852   -0.0770308    0.7368668 
H    -0.7573479   -2.4703916    2.8109826 
H    -1.4179698   -3.5395831   -2.5095944 
H     1.4386115    2.6288827   -1.2901519 
H     3.3403378   -1.6982031    2.2502954 
H    -1.4093557   -0.0655147    2.5652881 
H    -1.7758318   -0.6830727    4.2012891 
H    -3.0951412   -0.4654020    3.0206599 
H    -2.3525985   -3.1575485    4.5509595 
H    -2.4952326   -4.2525184    3.1483571 
H    -3.7284022   -2.9900611    3.4330445 
H     0.2850817   -1.7032109   -2.8128270 
H    -0.2463852   -2.3650629   -4.3771233 
H    -0.8859235   -0.7971386   -3.8147602 
H    -3.3343218   -1.7118769   -4.0885155 
H    -2.5507285   -3.1830189   -4.7350006 
H    -3.7327351   -3.3163314   -3.4106045 
H     1.5895835    0.4439543   -3.4628473 
H     0.4968529    1.8550829   -3.4863138 
H     0.3205010    0.6180419   -2.2132351 
H     3.6008418    3.4778716   -2.1461510 
H     2.4182445    3.4359142   -3.4766862 
H     3.6727364    2.1723551   -3.3679003 
H     1.1870660   -0.1966197    3.8735265 
H     1.6358271   -1.9146446    4.0785258 
H     0.8832483   -1.3603990    2.5592478 
H     3.7116664    0.4979013    4.3876136 
H     4.0050234   -1.2447611    4.6405698 
H     5.0158501   -0.3344410    3.4914826 
H    -0.3968255   -4.3487379   -0.6310871 
H     3.9156652   -1.8533345   -0.3121411 
H     1.7563752   -5.5376646   -0.9587347 
H     3.9174981   -4.2809893   -0.8216002 
