101
Energy =
C    -0.4380402    2.8234573    1.3503342 
C    -1.4560411    2.7186878    0.3711671 
C    -2.4816691    1.7312872    0.4941323 
H    -1.3593632    3.2757285   -0.5691772 
Pd   -0.4895422    0.7495837    0.4414433 
P    -1.0395765   -1.4358317   -0.1087746 
P     1.7353652    0.1107023    0.3437356 
H    -0.6656679    2.4130611    2.3466674 
H    -2.7950088    1.4610520    1.5126853 
C     2.9887047    5.4304544    1.3635633 
C     2.6860391    4.6310336    2.4763268 
C     1.5596360    3.7991637    2.4561646 
C     0.7159016    3.7395579    1.3216886 
C     1.0251705    4.5652430    0.2155126 
C     2.1487553    5.3984109    0.2373900 
H     3.8661730    6.0846789    1.3766842 
H     3.3244828    4.6612576    3.3652424 
H     1.3182096    3.1898055    3.3348059 
H     0.3794886    4.5675810   -0.6682737 
H     2.3689028    6.0318014   -0.6280491 
C    -5.3488207    0.7854543   -2.5825529 
C    -4.1149554    1.3623407   -2.9289232 
C    -3.1766648    1.6714914   -1.9388669 
C    -3.4588101    1.4318461   -0.5726047 
C    -4.7052343    0.8550165   -0.2396323 
C    -5.6380407    0.5302494   -1.2338586 
H    -6.0782413    0.5371699   -3.3600776 
H    -3.8784596    1.5593226   -3.9795820 
H    -2.2031555    2.0803559   -2.2315618 
H    -4.9494774    0.6727998    0.8128984 
H    -6.5993008    0.0877842   -0.9525215 
C    -2.1877701   -2.4507063    1.0185643 
C    -2.0546285   -1.7771651   -1.6581743 
C     2.8534681    1.0214825   -0.8811955 
C     2.8773187    0.3776718    1.8332527 
C    -3.2430346   -3.0824719    0.0640251 
C    -2.7180262   -3.1389138   -1.3772013 
C     3.8127487    1.8199447    0.0274616 
C     4.1817010    0.9421025    1.2276780 
C     0.5466343   -2.3924586   -0.1728550 
C     1.7722603   -1.6806415   -0.0913851 
C    -2.8348422   -1.6591778    2.1851522 
C    -1.4468476   -1.5405812   -3.0626053 
C     2.0792190    1.8506908   -1.9304725 
C     3.0446247   -0.8028694    2.8161367 
C    -3.8196096   -2.5517038    2.9674718 
C    -1.8041482   -1.0523159    3.1449273 
C    -2.5348246   -1.7434791   -4.1379007 
C    -0.2038256   -2.3828481   -3.3944480 
C     1.2533550    0.9399352   -2.8469799 
C     3.0182007    2.7583672   -2.7440996 
C     1.6922361   -1.2839822    3.3586675 
C     3.9882881   -0.4156334    3.9720167 
C     0.5787167   -3.7918730   -0.3435029 
C     2.9902258   -2.3697491   -0.2598068 
C     1.7962557   -4.4682057   -0.4892384 
C     3.0037365   -3.7546312   -0.4690257 
H    -1.5369591   -3.2368202    1.4468668 
H    -2.8423216   -1.0058887   -1.5277698 
H     3.4270707    0.2282860   -1.4015678 
H     2.3671798    1.2034429    2.3671473 
H    -3.5474294   -4.0773768    0.4297923 
H    -4.1439474   -2.4410214    0.0747215 
H    -3.5470446   -3.3167012   -2.0833751 
H    -2.0002716   -3.9664013   -1.5198047 
H     4.7091199    2.1311343   -0.5351661 
H     3.3099015    2.7399831    0.3772383 
H     4.7406669    1.5184292    1.9845866 
H     4.8361763    0.1081266    0.9071772 
H    -3.4134620   -0.8339482    1.7261162 
H    -1.1582043   -0.4742803   -3.0934100 
H     1.3784896    2.5000082   -1.3702879 
H     3.5121467   -1.6415687    2.2645142 
H    -4.6449286   -2.9213956    2.3369320 
H    -4.2659756   -1.9853197    3.8029994 
H    -3.2968697   -3.4267707    3.3957283 
H    -2.3026732   -0.4517119    3.9256428 
H    -1.0949480   -0.3893639    2.6096947 
H    -1.2164202   -1.8407417    3.6472494 
H    -2.1739628   -1.3815274   -5.1161251 
H    -2.7905802   -2.8115519   -4.2544573 
H    -3.4579831   -1.1931309   -3.8877001 
H    -0.4103416   -3.4641194   -3.3016140 
H     0.1079686   -2.1938272   -4.4362785 
H     0.6514919   -2.1447452   -2.7427149 
H     1.9009052    0.2601308   -3.4299262 
H     0.6493041    1.5293520   -3.5586009 
H     0.5590104    0.3203509   -2.2517184 
H     3.5173414    3.5079484   -2.1072738 
H     2.4473502    3.3024547   -3.5167670 
H     3.7977842    2.1660334   -3.2576435 
H     1.1678394   -0.4683034    3.8889291 
H     1.8259010   -2.1183277    4.0683022 
H     1.0348536   -1.6385474    2.5467756 
H     3.5963366    0.4592001    4.5234413 
H     4.0784052   -1.2515381    4.6868960 
H     5.0028169   -0.1701037    3.6163907 
H    -0.3520625   -4.3648967   -0.3749264 
H     3.9387634   -1.8240715   -0.2166884 
H     1.8011194   -5.5541308   -0.6269718 
H     3.9562513   -4.2780831   -0.5988026 
