101
Energy =
C    -0.4087604    2.8388710    1.1488889 
C    -1.5208121    2.6805812    0.2895236 
C    -2.5065557    1.6785595    0.5403884 
H    -1.5372260    3.2135070   -0.6693346 
Pd   -0.5170806    0.7230251    0.3020645 
P    -1.1366551   -1.4679394   -0.1356756 
P     1.6957595    0.0088232    0.1919294 
H    -0.5046032    2.4433725    2.1723003 
H    -2.7042237    1.4268137    1.5923812 
C     2.9130463    5.5264727    0.6366983 
C     2.8220131    4.7029997    1.7695969 
C     1.7206020    3.8537137    1.9312777 
C     0.6974745    3.7917452    0.9558534 
C     0.7904219    4.6483131   -0.1657561 
C     1.8853489    5.5045546   -0.3214548 
H     3.7702134    6.1951098    0.5086463 
H     3.6046532    4.7314407    2.5348574 
H     1.6413271    3.2301955    2.8292782 
H     0.0058629    4.6446663   -0.9282048 
H     1.9397248    6.1600051   -1.1967254 
C    -5.6784092    0.6323292   -2.1847776 
C    -5.8296240    0.4381538   -0.8035661 
C    -4.7982241    0.7942500    0.0758931 
C    -3.5919849    1.3489549   -0.4065226 
C    -3.4546810    1.5399173   -1.8022927 
C    -4.4874061    1.1900582   -2.6793653 
H    -6.4835483    0.3543860   -2.8723365 
H    -6.7576462    0.0128862   -0.4074985 
H    -4.9297433    0.6490791    1.1541521 
H    -2.5187404    1.9402315   -2.2075121 
H    -4.3593602    1.3434184   -3.7560505 
C    -2.2919887   -2.4188127    1.0309808 
C    -2.1477528   -1.8247852   -1.6896924 
C     3.0472849    0.7226349   -0.9342845 
C     2.7131879    0.2647482    1.7463217 
C    -3.5317605   -2.7445021    0.1632793 
C    -3.0906940   -2.9780765   -1.2855346 
C     4.3265274    0.8174081   -0.0366045 
C     4.1638558    0.0476956    1.2875381 
C     0.4125581   -2.4627561   -0.2690131 
C     1.6643649   -1.7951836   -0.2349428 
C    -2.6105811   -1.7051140    2.3650901 
C    -1.3518189   -2.0251587   -2.9980044 
C     2.7073987    2.0830290   -1.5982457 
C     2.2467963   -0.3827055    3.0694330 
C    -3.6173164   -2.5182876    3.2008137 
C    -1.3377522   -1.4192969    3.1711870 
C    -0.4243460   -0.8357330   -3.2824774 
C    -2.3117402   -2.2598512   -4.1810441 
C     1.4283185    2.0531414   -2.4451569 
C     3.8894161    2.5678788   -2.4617458 
C     3.0170954    0.2292523    4.2569861 
C     2.3340111   -1.9176452    3.0916645 
C     0.3716815   -3.8532957   -0.4976460 
C     2.8376678   -2.5303569   -0.5065893 
C     1.5495195   -4.5768411   -0.7218488 
C     2.7823170   -3.9092358   -0.7450918 
H    -1.7463881   -3.3555854    1.2594423 
H    -2.7555959   -0.9038405   -1.7903964 
H     3.1793649   -0.0339037   -1.7304056 
H     2.5731358    1.3607482    1.8556839 
H    -4.0672054   -3.6196500    0.5685532 
H    -4.2282292   -1.8868339    0.1955628 
H    -3.9626856   -3.0179036   -1.9602993 
H    -2.5655065   -3.9474149   -1.3835696 
H     5.2173676    0.4854789   -0.5957685 
H     4.4808586    1.8831448    0.2106633 
H     4.8748112    0.4267891    2.0423898 
H     4.3765989   -1.0288382    1.1709690 
H    -3.0837018   -0.7369427    2.1096000 
H    -0.7250741   -2.9310222   -2.8791831 
H     2.5641616    2.8128209   -0.7798816 
H     1.1840528   -0.0999818    3.1917919 
H    -4.5848122   -2.6369974    2.6850386 
H    -3.8110682   -2.0141600    4.1633714 
H    -3.2204690   -3.5261246    3.4226802 
H    -1.5687547   -0.8784075    4.1051133 
H    -0.6370415   -0.7950198    2.5846957 
H    -0.8148301   -2.3551624    3.4387651 
H     0.1275395   -0.9815137   -4.2269096 
H    -1.0008881    0.1031360   -3.3649664 
H     0.3193994   -0.7018184   -2.4784513 
H    -3.0039204   -1.4053970   -4.2971974 
H    -1.7426468   -2.3666703   -5.1205886 
H    -2.9151913   -3.1736622   -4.0509651 
H     1.5269400    1.3521359   -3.2929741 
H     1.2201434    3.0549460   -2.8583420 
H     0.5497649    1.7432539   -1.8460439 
H     4.8177332    2.6857762   -1.8787033 
H     3.6526933    3.5484524   -2.9095710 
H     4.0896387    1.8584210   -3.2860347 
H     4.0830191   -0.0592570    4.2381629 
H     2.5947406   -0.1246287    5.2131644 
H     2.9637137    1.3329928    4.2495201 
H     3.3717264   -2.2648131    2.9413576 
H     1.9951072   -2.3008908    4.0694810 
H     1.7059211   -2.3799289    2.3131405 
H    -0.5881448   -4.3789107   -0.5144618 
H     3.8092354   -2.0303751   -0.5327962 
H     1.5020716   -5.6561844   -0.8976215 
H     3.7050017   -4.4629021   -0.9460451 
