101
Energy =
C    -0.5949912    2.8109691    1.2150081 
C    -1.5081256    2.7100179    0.1399828 
C    -2.5910054    1.7776385    0.1891756 
H    -1.2904727    3.2282495   -0.8023600 
Pd   -0.6371347    0.7012070    0.3459448 
P    -1.1965282   -1.5017498   -0.1170628 
P     1.5770708    0.0246629    0.3209145 
H    -0.9329842    2.4221531    2.1881929 
H    -3.0218542    1.5601594    1.1761914 
C     2.9401336    5.2444634    1.5282248 
C     2.5299951    4.4271053    2.5923787 
C     1.3636747    3.6607137    2.4766685 
C     0.5886949    3.6826135    1.2926365 
C     0.9982955    4.5375592    0.2426538 
C     2.1616188    5.3055864    0.3596883 
H     3.8500861    5.8468090    1.6144980 
H     3.1151830    4.3912412    3.5171110 
H     1.0362035    3.0371912    3.3165178 
H     0.3986499    4.6148465   -0.6697569 
H     2.4613080    5.9618829   -0.4637879 
C    -5.1651457    0.8568946   -3.1429515 
C    -3.8694603    1.3485891   -3.3749657 
C    -3.0292452    1.6602785   -2.3005587 
C    -3.4689112    1.4986981   -0.9641714 
C    -4.7774166    1.0101863   -0.7478217 
C    -5.6148605    0.6896359   -1.8244162 
H    -5.8187082    0.6069938   -3.9847001 
H    -3.5076993    1.4770554   -4.4004596 
H    -2.0082373    2.0017966   -2.5009881 
H    -5.1425053    0.8913220    0.2785613 
H    -6.6257459    0.3150465   -1.6327077 
C    -2.2151355   -2.4517380    1.1557675 
C    -2.4228565   -1.8324505   -1.5327070 
C     2.7908544    0.8777081   -0.8706322 
C     2.6309303    0.3741611    1.8361773 
C    -3.6454318   -2.2593964    0.6229161 
C    -3.5999807   -2.5968544   -0.8726837 
C     3.9044528    1.4581714    0.0401933 
C     4.0561611    0.5801970    1.2905647 
C     0.3742150   -2.4453203   -0.3231960 
C     1.6075313   -1.7613288   -0.1664377 
C    -1.9719442   -2.1838771    2.6566160 
C    -1.8913935   -2.4577822   -2.8441762 
C     2.1355488    1.9127419   -1.8152986 
C     2.4291475   -0.4497921    3.1290563 
C    -0.5796821   -2.6813793    3.0727397 
C    -2.1968137   -0.7268288    3.0862031 
C    -0.7670176   -1.6201597   -3.4687302 
C    -3.0492027   -2.6309604   -3.8491539 
C     1.0962301    1.2696867   -2.7410974 
C     3.1976131    2.6752257   -2.6288965 
C     3.0197848    0.3128070    4.3329500 
C     2.9892471   -1.8800869    3.0697574 
C     0.3745876   -3.8194386   -0.6376839 
C     2.8125066   -2.4619680   -0.3820622 
C     1.5798306   -4.5055059   -0.8307099 
C     2.8000115   -3.8221397   -0.7144039 
H    -1.9336580   -3.5070681    0.9642955 
H    -2.7677497   -0.8095677   -1.7709206 
H     3.2082325    0.0539658   -1.4820756 
H     2.2442398    1.3918171    2.0518256 
H    -4.3532965   -2.9056526    1.1715562 
H    -3.9743552   -1.2138225    0.7658746 
H    -4.5456344   -2.3356492   -1.3757259 
H    -3.4475827   -3.6864790   -0.9959377 
H     4.8508904    1.5423148   -0.5199434 
H     3.6156669    2.4792680    0.3535041 
H     4.6957907    1.0705856    2.0452095 
H     4.5344140   -0.3857450    1.0446175 
H    -2.7250514   -2.8043997    3.1830958 
H    -1.4910103   -3.4644229   -2.6151479 
H     1.6152845    2.6442251   -1.1695742 
H     1.3357299   -0.5129518    3.2904439 
H    -0.4445303   -3.7519507    2.8395327 
H    -0.4092940   -2.5404437    4.1537232 
H     0.2040154   -2.1243702    2.5316836 
H    -2.0831013   -0.6234906    4.1788313 
H    -3.2031893   -0.3634493    2.8155394 
H    -1.4508403   -0.0606329    2.6033518 
H     0.1026632   -1.5358184   -2.7959895 
H    -0.4165710   -2.0773852   -4.4099072 
H    -1.1247564   -0.6006085   -3.6983582 
H    -3.5272082   -1.6571413   -4.0603348 
H    -2.6684242   -3.0400693   -4.8008606 
H    -3.8255801   -3.3198106   -3.4767969 
H     1.5555159    0.5084355   -3.3972115 
H     0.6198785    2.0285868   -3.3865721 
H     0.2967845    0.7787832   -2.1539952 
H     3.8776720    3.2545455   -1.9821513 
H     2.7105862    3.3853608   -3.3198573 
H     3.8069129    1.9804290   -3.2361518 
H     4.1196752    0.3856891    4.2626620 
H     2.7822251   -0.2111964    5.2747125 
H     2.6153055    1.3381957    4.4023305 
H     4.0825436   -1.8746339    2.9113900 
H     2.7956432   -2.4016854    4.0228294 
H     2.5312686   -2.4757583    2.2643504 
H    -0.5725882   -4.3600609   -0.7368217 
H     3.7728014   -1.9482864   -0.2767629 
H     1.5669807   -5.5716183   -1.0785589 
H     3.7446247   -4.3515417   -0.8744168 
