101
Energy =
C    -0.3517190    2.7923489    1.3966536 
C    -1.3942346    2.7160833    0.4399271 
C    -2.4429948    1.7602800    0.5932237 
H    -1.3158107    3.2792536   -0.4989500 
Pd   -0.4582719    0.7329370    0.4550079 
P    -0.9869483   -1.4524332   -0.1593078 
P     1.7628357    0.1032057    0.3021249 
H    -0.5661807    2.3711488    2.3913218 
H    -2.7205720    1.4923137    1.6226347 
C     3.0969612    5.3705399    1.3935046 
C     2.8148371    4.5443831    2.4920222 
C     1.6805800    3.7231473    2.4780724 
C     0.8086112    3.6996036    1.3635010 
C     1.0942445    4.5574119    0.2752810 
C     2.2259917    5.3796958    0.2907100 
H     3.9811532    6.0157684    1.4013015 
H     3.4748987    4.5459772    3.3655502 
H     1.4538142    3.0953340    3.3476458 
H     0.4224284    4.5947535   -0.5879779 
H     2.4277110    6.0374957   -0.5608955 
C    -5.5221925    1.0528533   -2.3355620 
C    -4.2277707    1.4053454   -2.7533342 
C    -3.2215261    1.6409911   -1.8100172 
C    -3.4884466    1.5310028   -0.4250449 
C    -4.7955290    1.1772357   -0.0194695 
C    -5.8023783    0.9423583   -0.9653201 
H    -6.3071817    0.8661244   -3.0753288 
H    -4.0011650    1.4893831   -3.8214912 
H    -2.2079511    1.8873590   -2.1479845 
H    -5.0236215    1.0972372    1.0494238 
H    -6.8099670    0.6747163   -0.6307696 
C    -2.1913276   -2.4801315    0.8972555 
C    -1.9126714   -1.6892557   -1.8077068 
C     2.8495838    1.0203592   -0.9464567 
C     2.9214941    0.3770746    1.7684062 
C    -3.1282532   -3.1051424   -0.1673173 
C    -3.3176566   -2.0624488   -1.2759292 
C     3.8850453    1.7554593   -0.0630162 
C     4.2414233    0.8644063    1.1327647 
C     0.5953631   -2.4056317   -0.1872844 
C     1.8189624   -1.6918401   -0.1138980 
C    -2.9254710   -1.6380908    1.9808008 
C    -1.3061815   -2.6894468   -2.8347791 
C     2.0530462    1.9290876   -1.9131044 
C     3.0278265   -0.7701646    2.7971233 
C    -4.0005916   -2.4670350    2.7114513 
C    -1.9437895   -1.0546891    3.0080024 
C    -0.0030865   -2.1568828   -3.4522255 
C    -2.3120471   -3.0057589   -3.9619163 
C     1.1209862    1.1163312   -2.8204973 
C     2.9898183    2.8227703   -2.7456272 
C     1.6467836   -1.1739654    3.3349643 
C     3.9707274   -0.3766479    3.9510617 
C     0.6212046   -3.8071601   -0.3356319 
C     3.0361528   -2.3841101   -0.2714973 
C     1.8389843   -4.4871419   -0.4664563 
C     3.0464985   -3.7728859   -0.4572213 
H    -1.5876103   -3.2503113    1.4121808 
H    -1.9419218   -0.6894618   -2.2756108 
H     3.3613846    0.2289460   -1.5297546 
H     2.4526123    1.2469877    2.2685668 
H    -2.6694558   -4.0196523   -0.5864200 
H    -4.0881427   -3.4129733    0.2772593 
H    -3.8043342   -1.1609218   -0.8634844 
H    -3.9687228   -2.4220987   -2.0879015 
H     4.7795532    2.0172996   -0.6529476 
H     3.4447757    2.7018253    0.3018944 
H     4.8453663    1.4185476    1.8717058 
H     4.8479723   -0.0024657    0.8060504 
H    -3.4325185   -0.7996863    1.4656661 
H    -1.0788771   -3.6415708   -2.3205201 
H     1.4273764    2.5883292   -1.2822519 
H     3.4667364   -1.6484471    2.2848963 
H    -4.8186137   -2.7837319    2.0439397 
H    -4.4513337   -1.8692697    3.5223713 
H    -3.5585314   -3.3720976    3.1671245 
H    -2.4713428   -0.4163323    3.7379935 
H    -1.1656743   -0.4342179    2.5196975 
H    -1.4309066   -1.8582842    3.5666377 
H     0.7520191   -1.9063316   -2.6904233 
H     0.4390032   -2.9105939   -4.1260045 
H    -0.2030151   -1.2478595   -4.0470625 
H    -2.6756414   -2.0770386   -4.4391635 
H    -1.8209777   -3.6144530   -4.7405143 
H    -3.1862662   -3.5738967   -3.6039639 
H     1.6937821    0.4287937   -3.4680924 
H     0.5264440    1.7804408   -3.4721970 
H     0.4120524    0.5135579   -2.2230500 
H     3.5685116    3.5151370   -2.1114981 
H     2.4038855    3.4316314   -3.4561536 
H     3.7018871    2.2139769   -3.3328714 
H     1.1402341   -0.3137435    3.8101150 
H     1.7355740   -1.9739755    4.0896880 
H     0.9925654   -1.5476811    2.5287701 
H     3.6053423    0.5317063    4.4653332 
H     4.0220494   -1.1884797    4.6968475 
H     4.9975030   -0.1811379    3.5993049 
H    -0.3137429   -4.3764030   -0.3551429 
H     3.9856192   -1.8398715   -0.2380601 
H     1.8443810   -5.5753969   -0.5842616 
H     3.9985684   -4.2997082   -0.5764107 
