101
Energy =
C    -0.5075039    2.8239851    1.2769323 
C    -1.4707348    2.6897750    0.2506971 
C    -2.5329452    1.7394062    0.3478641 
H    -1.3093394    3.2073619   -0.7032694 
Pd   -0.5526053    0.6978538    0.4313613 
P    -1.0982767   -1.5114703   -0.0543698 
P     1.6778975    0.0612321    0.3620557 
H    -0.7764671    2.4335453    2.2707521 
H    -2.9170316    1.5137564    1.3520350 
C     2.9254714    5.4237248    1.3318120 
C     2.6263814    4.6030126    2.4296850 
C     1.4936146    3.7800435    2.4012497 
C     0.6423938    3.7451413    1.2715825 
C     0.9406286    4.6045071    0.1874949 
C     2.0693964    5.4300082    0.2176320 
H     3.8077550    6.0714476    1.3512758 
H     3.2710455    4.6109993    3.3146371 
H     1.2530217    3.1575344    3.2697996 
H     0.2822002    4.6375844   -0.6863472 
H     2.2810828    6.0874149   -0.6318585 
C    -5.2610920    0.8486657   -2.8694803 
C    -3.9698184    1.3205923   -3.1581248 
C    -3.0787958    1.6189715   -2.1210582 
C    -3.4614189    1.4623947   -0.7667143 
C    -4.7669885    0.9957121   -0.4934228 
C    -5.6556599    0.6893159   -1.5323230 
H    -5.9549734    0.6096322   -3.6816506 
H    -3.6514910    1.4455598   -4.1983928 
H    -2.0635116    1.9484335   -2.3660580 
H    -5.0899798    0.8856215    0.5480248 
H    -6.6634710    0.3320847   -1.2964162 
C    -2.2022647   -2.5178432    1.1029441 
C    -2.2191235   -1.8092673   -1.5682586 
C     2.8368947    0.8939473   -0.9076440 
C     2.8226695    0.4415572    1.8121747 
C    -3.5923854   -2.3025120    0.4821048 
C    -3.4467868   -2.5814699   -1.0169205 
C     4.0446003    1.4166176   -0.0831816 
C     4.2219963    0.5730138    1.1844039 
C     0.4884248   -2.4394381   -0.2125043 
C     1.7160581   -1.7375365   -0.0851670 
C    -2.0809361   -2.3230165    2.6285053 
C    -1.5948655   -2.4326569   -2.8398155 
C     2.1671345    1.9907277   -1.7709334 
C     2.7228411   -0.3225470    3.1514802 
C    -0.7326635   -2.8591721    3.1326611 
C    -2.3512525   -0.8859554    3.0982191 
C    -0.4425254   -1.5883061   -3.3979682 
C    -2.6807296   -2.6214728   -3.9202301 
C     1.0326015    1.4442816   -2.6435330 
C     3.2053456    2.7241587   -2.6417914 
C     2.9968933   -1.8320688    3.0550188 
C     1.3943270   -0.0157484    3.8626479 
C     0.5028595   -3.8201134   -0.4975956 
C     2.9247646   -2.4291258   -0.3081985 
C     1.7129007   -4.4981391   -0.6874089 
C     2.9253450   -3.7968982   -0.6065485 
H    -1.9037935   -3.5628630    0.8834710 
H    -2.5398943   -0.7821870   -1.8207145 
H     3.1634631    0.0671275   -1.5675603 
H     2.4850673    1.4803351    2.0116944 
H    -4.3336991   -2.9698747    0.9564494 
H    -3.9323555   -1.2642167    0.6437710 
H    -4.3533574   -2.2924323   -1.5735776 
H    -3.2943097   -3.6671126   -1.1701909 
H     4.9560173    1.4271405   -0.7041123 
H     3.8401439    2.4617252    0.2172691 
H     4.9110296    1.0602320    1.8979144 
H     4.6543369   -0.4176633    0.9547702 
H    -2.8761657   -2.9636217    3.0606103 
H    -1.2008159   -3.4340906   -2.5787367 
H     1.7384702    2.7268268   -1.0667934 
H     3.5317446    0.1127294    3.7726545 
H    -0.6128051   -3.9296898    2.8901854 
H    -0.6349109   -2.7406163    4.2250358 
H     0.1039308   -2.3192724    2.6588447 
H    -2.2788306   -0.8152547    4.1967187 
H    -3.3569564   -0.5409212    2.8023552 
H    -1.6111999   -0.1850943    2.6636922 
H     0.3691240   -1.4615170   -2.6622437 
H    -0.0091759   -2.0640289   -4.2943941 
H    -0.8044745   -0.5859743   -3.6873566 
H    -3.1591462   -1.6547798   -4.1624469 
H    -2.2299628   -3.0206120   -4.8451837 
H    -3.4697955   -3.3236068   -3.6042020 
H     1.4111623    0.7169687   -3.3831836 
H     0.5362995    2.2611719   -3.1968722 
H     0.2642044    0.9387216   -2.0268618 
H     3.9643738    3.2467316   -2.0365174 
H     2.7049165    3.4809854   -3.2707772 
H     3.7263762    2.0190670   -3.3157442 
H     2.2070626   -2.3568525    2.4928227 
H     3.0391858   -2.2737331    4.0654056 
H     3.9591122   -2.0433509    2.5578556 
H     0.5334656   -0.2783827    3.2259022 
H     1.3042323   -0.5831604    4.8042909 
H     1.3125016    1.0578321    4.1051579 
H    -0.4389252   -4.3732352   -0.5785831 
H     3.8799919   -1.9011133   -0.2391372 
H     1.7090408   -5.5699127   -0.9097110 
H     3.8744126   -4.3172886   -0.7698366 
