101
Energy =
C    -0.4299846    2.8066237    1.4115913 
C    -1.4415328    2.7371936    0.4264246 
C    -2.4383195    1.7139541    0.4820201 
H    -1.3675485    3.3667709   -0.4690437 
Pd   -0.4292825    0.7810171    0.3449116 
P    -0.9921162   -1.4006133   -0.1965943 
P     1.7943500    0.1181385    0.2783724 
H    -0.6350447    2.3008709    2.3680351 
H    -2.7389897    1.3715687    1.4821968 
C     2.9075629    5.5136496    1.6198220 
C     2.6426198    4.6152717    2.6644563 
C     1.5393332    3.7568083    2.5865956 
C     0.6858208    3.7644302    1.4573299 
C     0.9497325    4.6970499    0.4272082 
C     2.0488595    5.5581647    0.5080892 
H     3.7672593    6.1887882    1.6777613 
H     3.2905933    4.5902858    3.5466922 
H     1.3242631    3.0727620    3.4156665 
H     0.2901410    4.7550552   -0.4436595 
H     2.2360252    6.2738794   -0.2990576 
C    -5.3279464    0.9333356   -2.6200586 
C    -5.5901807    0.5695753   -1.2909432 
C    -4.6490797    0.8391892   -0.2882285 
C    -3.4203475    1.4675454   -0.5934270 
C    -3.1637866    1.8144073   -1.9415344 
C    -4.1118137    1.5614503   -2.9386178 
H    -6.0643371    0.7294097   -3.4038437 
H    -6.5369685    0.0849913   -1.0306586 
H    -4.8732579    0.5724295    0.7506440 
H    -2.2052870    2.2685372   -2.2159492 
H    -3.8969321    1.8447115   -3.9741214 
C    -2.1685158   -2.3899643    0.9311136 
C    -2.0077832   -1.7265269   -1.7486024 
C     3.0023180    0.8938164   -0.9488483 
C     2.8728393    0.5340441    1.7896696 
C    -3.2843839   -2.9200633   -0.0111475 
C    -2.7596080   -3.0367607   -1.4478056 
C     3.6997793    1.9669425   -0.0931907 
C     4.1039483    1.2800007    1.2175693 
C     0.5808956   -2.3819815   -0.2001835 
C     1.8151854   -1.6969073   -0.0520325 
C    -2.7178243   -1.6268066    2.1616111 
C    -1.3691941   -1.5569932   -3.1477624 
C     2.4627474    1.3163482   -2.3310359 
C     3.1889302   -0.6005990    2.7912527 
C    -3.7111457   -2.5045609    2.9492160 
C    -1.6054106   -1.1216301    3.0883067 
C    -2.4737512   -1.5420229   -4.2246907 
C    -0.2968603   -2.6007219   -3.5019648 
C     1.4152344    2.4367196   -2.2762884 
C     1.9306275    0.0952613   -3.0912519 
C     1.9117274   -1.2412776    3.3519425 
C     4.0729778   -0.0702329    3.9380680 
C     0.5904547   -3.7838622   -0.3568071 
C     3.0241403   -2.4185068   -0.1214510 
C     1.7974495   -4.4919190   -0.4043370 
C     3.0177175   -3.8073662   -0.3004828 
H    -1.5509505   -3.2334997    1.2949837 
H    -2.7450387   -0.9035411   -1.6410057 
H     3.7362094    0.0810600   -1.1216745 
H     2.2415893    1.2772987    2.3111859 
H    -3.6763815   -3.8815108    0.3609296 
H    -4.1222849   -2.1981237   -0.0023053 
H    -3.5916296   -3.1772306   -2.1592899 
H    -2.0930117   -3.9105445   -1.5627711 
H     4.5726037    2.3794852   -0.6295568 
H     3.0150612    2.8088065    0.1156626 
H     4.4823642    2.0088677    1.9538275 
H     4.9169605    0.5541940    1.0223849 
H    -3.2738989   -0.7520703    1.7733913 
H    -0.8981756   -0.5556435   -3.1515133 
H     3.3438765    1.7072521   -2.8789360 
H     3.7635171   -1.3824083    2.2580306 
H    -4.5863814   -2.7929360    2.3438317 
H    -4.0823042   -1.9600749    3.8345993 
H    -3.2199339   -3.4291891    3.3043927 
H    -2.0257168   -0.5441139    3.9300792 
H    -0.8994044   -0.4628529    2.5445592 
H    -1.0270064   -1.9630475    3.5094431 
H    -3.2706416   -0.8215496   -3.9747319 
H    -2.0481375   -1.2603565   -5.2033769 
H    -2.9350511   -2.5389537   -4.3397624 
H    -0.7167667   -3.6225210   -3.4989844 
H     0.0935574   -2.4078345   -4.5160424 
H     0.5571102   -2.5828791   -2.8075247 
H     0.5264106    2.1036675   -1.7012323 
H     1.0801494    2.7037592   -3.2933677 
H     1.8122860    3.3454307   -1.7974410 
H     2.6857125   -0.7068147   -3.1640355 
H     1.6110770    0.3630265   -4.1127638 
H     1.0542549   -0.3185990   -2.5632194 
H     1.2973698   -0.4905051    3.8815965 
H     2.1571101   -2.0430296    4.0692922 
H     1.2941644   -1.6858305    2.5535016 
H     3.5674026    0.7553511    4.4727598 
H     4.2714705   -0.8731085    4.6688199 
H     5.0465639    0.3010223    3.5772800 
H    -0.3504389   -4.3326037   -0.4570282 
H     3.9813285   -1.8943158   -0.0279826 
H     1.7850555   -5.5791373   -0.5306361 
H     3.9636486   -4.3560771   -0.3483161 
