101
Energy =
C    -0.3925955    2.8155210    1.3819003 
C    -1.4578151    2.7075316    0.4536799 
C    -2.4812729    1.7289696    0.6444681 
H    -1.4072427    3.2527296   -0.4974686 
Pd   -0.4938191    0.7390027    0.4873509 
P    -1.0589071   -1.4498966   -0.0455237 
P     1.7236573    0.0996031    0.2723152 
H    -0.5739649    2.4093557    2.3895741 
H    -2.7350898    1.4755647    1.6839566 
C     3.0608749    5.3813992    1.2069569 
C     2.8238622    4.5659409    2.3240778 
C     1.6852521    3.7517867    2.3685135 
C     0.7638095    3.7247942    1.2947609 
C     1.0037881    4.5731502    0.1884464 
C     2.1401887    5.3882180    0.1453918 
H     3.9483365    6.0210695    1.1692766 
H     3.5230502    4.5701697    3.1666318 
H     1.4953041    3.1304246    3.2514523 
H     0.2932355    4.6077391   -0.6434711 
H     2.3065417    6.0384859   -0.7195603 
C    -5.5401715    0.7638410   -2.2360169 
C    -5.7773569    0.6071618   -0.8621367 
C    -4.7816274    0.9359112    0.0672715 
C    -3.5250288    1.4240341   -0.3561854 
C    -3.3010958    1.5768050   -1.7451669 
C    -4.2986250    1.2550740   -2.6724860 
H    -6.3176772    0.5079939   -2.9628765 
H    -6.7451671    0.2342386   -0.5110790 
H    -4.9829236    0.8255329    1.1387040 
H    -2.3256340    1.9252296   -2.1030772 
H    -4.1030191    1.3763247   -3.7429151 
C    -2.3568698   -2.3873826    0.9699566 
C    -1.8762766   -1.7885874   -1.7091890 
C     2.7581221    0.9756412   -1.0559559 
C     2.9653069    0.3980960    1.6694108 
C    -3.4683009   -2.7265336   -0.0593485 
C    -2.8312111   -2.9669858   -1.4317852 
C     3.8672376    1.6940432   -0.2495212 
C     4.2610012    0.8303054    0.9516143 
C     0.5111413   -2.4247309   -0.0385167 
C     1.7398377   -1.7139577   -0.0779256 
C    -2.8814687   -1.6506163    2.2265573 
C    -0.9348756   -1.8877521   -2.9503642 
C     1.9502490    1.9210369   -1.9786529 
C     3.1160524   -0.7112375    2.7337002 
C    -3.9517916   -2.4957152    2.9444932 
C    -1.7600579   -1.2595007    3.1966482 
C    -1.5334806   -1.0906054   -4.1240384 
C    -0.6159873   -3.3274815   -3.3898115 
C     0.8882386    1.1810925   -2.7988335 
C     2.8829892    2.7317667   -2.8977742 
C     1.7643384   -1.0912710    3.3525145 
C     4.1154103   -0.2799280    3.8254035 
C     0.5264470   -3.8324474   -0.1002712 
C     2.9445606   -2.4241618   -0.2562484 
C     1.7345403   -4.5283309   -0.2394959 
C     2.9424925   -3.8225376   -0.3417458 
H    -1.8521679   -3.3186630    1.2944058 
H    -2.5006805   -0.8808681   -1.8227071 
H     3.2060015    0.1635991   -1.6629208 
H     2.5394577    1.2952487    2.1604907 
H    -4.0472100   -3.6037520    0.2750998 
H    -4.1679799   -1.8719794   -0.1218797 
H    -3.5953469   -3.0424480   -2.2259387 
H    -2.2766815   -3.9225364   -1.4286038 
H     4.7357068    1.9082699   -0.8947391 
H     3.4779254    2.6653243    0.1096621 
H     4.9167285    1.3896101    1.6407973 
H     4.8278879   -0.0622835    0.6230823 
H    -3.3669853   -0.7228603    1.8695482 
H     0.0266299   -1.4154604   -2.6803809 
H     1.4283490    2.6347041   -1.3138015 
H     3.5279288   -1.6090396    2.2330267 
H    -4.8258538   -2.6929241    2.3019163 
H    -4.3117459   -1.9710019    3.8463140 
H    -3.5347607   -3.4681946    3.2652694 
H    -2.1682359   -0.7408406    4.0814186 
H    -1.0372593   -0.5760563    2.7106266 
H    -1.2046658   -2.1471564    3.5497949 
H    -1.6753736   -0.0298049   -3.8571756 
H    -0.8733665   -1.1357354   -5.0076370 
H    -2.5177383   -1.5004333   -4.4156313 
H    -1.5201464   -3.8540698   -3.7428406 
H     0.1030752   -3.3072527   -4.2269112 
H    -0.1630058   -3.9214193   -2.5797977 
H     1.3423236    0.4220841   -3.4612626 
H     0.3205010    1.8845182   -3.4324583 
H     0.1639626    0.6740138   -2.1337622 
H     3.5564100    3.3912935   -2.3255234 
H     2.2886310    3.3700713   -3.5745822 
H     3.5028301    2.0640115   -3.5244086 
H     1.2777708   -0.2121436    3.8137874 
H     1.8894202   -1.8586421    4.1355268 
H     1.0773705   -1.4995275    2.5930354 
H     3.7781341    0.6485360    4.3226306 
H     4.1989929   -1.0641677    4.5973620 
H     5.1252761   -0.1033318    3.4190760 
H    -0.4108783   -4.3957412   -0.0500439 
H     3.8956692   -1.8848326   -0.3125244 
H     1.7304883   -5.6220556   -0.2834820 
H     3.8860989   -4.3619870   -0.4714442 
