101
Energy =
C    -2.8810219   -1.2538314   -0.0312920 
C    -2.2387693   -1.7571455   -1.1896868 
C    -1.1288248   -2.6462182   -1.0689136 
H    -2.4887440   -1.3438610   -2.1752377 
Pd   -0.6838519   -0.6943065   -0.0664081 
P     1.6422565   -0.6396276    0.0729798 
P    -0.6618697    1.4278457    0.8547277 
H    -2.7415730   -1.8293513    0.8972524 
H    -1.1217916   -3.3122381   -0.1943081 
C    -6.1651082    1.5202116    0.2125533 
C    -5.6708426    0.8845398    1.3616355 
C    -4.6102851   -0.0240695    1.2583291 
C    -4.0123086   -0.3108155    0.0080063 
C    -4.5394548    0.3198605   -1.1434686 
C    -5.6004074    1.2258599   -1.0401595 
H    -6.9953665    2.2294599    0.2884880 
H    -6.1181634    1.0899129    2.3395837 
H    -4.2417069   -0.5333297    2.1563271 
H    -4.1277427    0.0946641   -2.1321401 
H    -5.9941221    1.7023522   -1.9437526 
C     1.2332411   -4.0277879   -4.3962765 
C     0.9952917   -4.8636878   -3.2949805 
C     0.2235599   -4.4072716   -2.2181135 
C    -0.3290504   -3.1062595   -2.2226276 
C    -0.0819813   -2.2754295   -3.3407318 
C     0.6894502   -2.7323392   -4.4149441 
H     1.8381078   -4.3826270   -5.2367925 
H     1.4101164   -5.8767380   -3.2748662 
H     0.0351113   -5.0686471   -1.3648908 
H    -0.4768583   -1.2526347   -3.3530020 
H     0.8747848   -2.0729323   -5.2694301 
C    -1.4093519    2.8330080   -0.1686402 
C    -1.6745802    1.7918828    2.4068860 
C     2.5836565   -2.0550309    0.9292862 
C     2.6101546   -0.7167752   -1.5659469 
C    -2.6316787    3.2849763    0.6648632 
C    -2.2807733    3.1891781    2.1542349 
C     3.7281969   -2.3561010   -0.0714297 
C     3.1621587   -2.1604932   -1.4832812 
C     1.0890723    1.8702446    1.2248017 
C     2.0938077    0.8954369    0.9962801 
C    -1.7261427    2.4354162   -1.6302242 
C    -0.9724351    1.5748454    3.7654956 
C     1.6817747   -3.2800697    1.2574657 
C     3.6775620    0.3869961   -1.8216016 
C    -2.5414689    3.5270130   -2.3462342 
C    -0.4534084    2.0965360   -2.4162059 
C    -0.3952043    0.1559913    3.8805926 
C    -1.9416196    1.8671971    4.9275587 
C     0.5708775   -2.9176043    2.2542508 
C     2.5063611   -4.4576665    1.8145582 
C     3.0328870    1.7587319   -2.0782495 
C     4.5829196    0.0181161   -3.0158204 
C     1.4404189    3.1058114    1.8041279 
C     3.4119064    1.1482163    1.4270090 
C     2.7626473    3.3598856    2.1918553 
C     3.7438880    2.3713882    2.0236607 
H    -0.6470395    3.6374169   -0.1672960 
H    -2.4954396    1.0532304    2.3206322 
H     2.9710180   -1.6499927    1.8825208 
H     1.8482599   -0.6514223   -2.3626911 
H    -2.9328111    4.3085818    0.3852527 
H    -3.4874388    2.6200764    0.4451843 
H    -3.1758138    3.3418426    2.7813529 
H    -1.5527698    3.9748169    2.4345171 
H     4.5707395   -1.6598419    0.0950370 
H     4.1289442   -3.3719457    0.0745221 
H     2.3407599   -2.8771726   -1.6603762 
H     3.9109260   -2.3467444   -2.2688284 
H    -2.3507663    1.5232266   -1.5806093 
H    -0.1327646    2.2934344    3.8349336 
H     1.2099506   -3.6105829    0.3121890 
H     4.3273701    0.4738253   -0.9311561 
H    -3.5248709    3.6832438   -1.8719967 
H    -2.7196939    3.2418492   -3.3977648 
H    -2.0004900    4.4913021   -2.3470939 
H    -0.6981431    1.7707567   -3.4424661 
H     0.1064365    1.2762416   -1.9301927 
H     0.2161977    2.9719825   -2.4884261 
H     0.3712218   -0.0322843    3.1092905 
H     0.0780625    0.0012126    4.8652139 
H    -1.1887555   -0.6047741    3.7621699 
H    -2.8288508    1.2090675    4.8746884 
H    -1.4442721    1.6851710    5.8957329 
H    -2.2907065    2.9132143    4.9228931 
H     0.9960551   -2.6028081    3.2242801 
H    -0.0905945   -3.7821085    2.4374798 
H    -0.0587626   -2.0866943    1.8769209 
H     3.2223175   -4.8599104    1.0793029 
H     1.8350639   -5.2841006    2.1050172 
H     3.0719615   -4.1523974    2.7140200 
H     2.4399056    1.7367761   -3.0099470 
H     3.8104102    2.5334494   -2.1911382 
H     2.3673081    2.0709220   -1.2580648 
H     3.9793968   -0.2015080   -3.9157209 
H     5.2487018    0.8650010   -3.2553399 
H     5.2234294   -0.8548724   -2.8092505 
H     0.6764599    3.8730983    1.9663386 
H     4.1900751    0.3897480    1.2938715 
H     3.0229900    4.3230439    2.6420208 
H     4.7723206    2.5559408    2.3498233 
