101
Energy =
C    -2.7790754   -1.3238516   -0.0732393 
C    -2.1257406   -1.9107536   -1.1838522 
C    -0.9894134   -2.7538672   -0.9940986 
H    -2.3942620   -1.5919239   -2.1987112 
Pd   -0.5815169   -0.7244838   -0.1554422 
P     1.7290875   -0.7471792    0.0411326 
P    -0.5256995    1.4016039    0.7836018 
H    -2.6279706   -1.8112283    0.9028231 
H    -0.9543625   -3.3317123   -0.0594155 
C    -6.0783927    1.4392357   -0.0757466 
C    -5.6260896    0.8585430    1.1186187 
C    -4.5647520   -0.0545013    1.0949815 
C    -3.9211540   -0.3965591   -0.1188113 
C    -4.4088256    0.1758712   -1.3166480 
C    -5.4722228    1.0838263   -1.2930262 
H    -6.9090559    2.1520068   -0.0626271 
H    -6.1073802    1.1089532    2.0696307 
H    -4.2314691   -0.5230357    2.0282698 
H    -3.9552313   -0.0869279   -2.2766640 
H    -5.8348739    1.5163470   -2.2312263 
C     1.4939142   -4.3161749   -4.1542703 
C     1.4078012   -4.9774016   -2.9198698 
C     0.5851946   -4.4705298   -1.9054153 
C    -0.1626921   -3.2862584   -2.0968063 
C    -0.0713175   -2.6366864   -3.3496678 
C     0.7433533   -3.1477883   -4.3661030 
H     2.1344175   -4.7116231   -4.9490289 
H     1.9750747   -5.8982729   -2.7489820 
H     0.5087341   -5.0079798   -0.9537683 
H    -0.6260589   -1.7086189   -3.5225898 
H     0.7986280   -2.6286117   -5.3287760 
C    -1.0322477    2.9405708   -0.1824965 
C    -1.7261677    1.7446350    2.2124492 
C     2.6398427   -2.1732821    0.9158617 
C     2.7709613   -0.8757616   -1.5285000 
C    -2.4666942    3.2014086    0.3162763 
C    -2.4236456    3.0770703    1.8455736 
C     3.6829488   -2.6817721   -0.1147323 
C     4.0793548   -1.5393398   -1.0587648 
C     1.2125309    1.7237569    1.3063414 
C     2.2059134    0.7521935    1.0219619 
C    -0.7706201    2.9295627   -1.7046296 
C    -1.1845831    1.6391604    3.6558811 
C     1.7363437   -3.2842418    1.5012975 
C     2.9109476    0.3251379   -2.4966158 
C    -1.6681143    1.9465815   -2.4682743 
C    -0.8892872    4.3524985   -2.2841549 
C    -0.5305383    0.2753103    3.9180043 
C    -2.3146559    1.9048585    4.6705313 
C     0.7292181   -2.7403000    2.5223477 
C     2.5875927   -4.4067936    2.1263062 
C     3.4187082    1.6311218   -1.8640871 
C     1.6079297    0.5459141   -3.2814492 
C     1.5667676    2.9018932    1.9952236 
C     3.5223809    0.9652087    1.4804691 
C     2.8825485    3.1077093    2.4274663 
C     3.8585537    2.1311622    2.1789839 
H    -0.3812325    3.7234840    0.2550185 
H    -2.4660784    0.9347757    2.0714410 
H     3.1614617   -1.6800369    1.7580510 
H     2.1945223   -1.6577629   -2.0667983 
H    -2.8181774    4.1980636   -0.0016267 
H    -3.1676014    2.4560593   -0.1025853 
H    -3.4376699    3.1069247    2.2788885 
H    -1.8560546    3.9251820    2.2755568 
H     4.5584871   -3.1079658    0.4032620 
H     3.2254187   -3.4927111   -0.7119725 
H     4.6444600   -1.9160086   -1.9302321 
H     4.7323898   -0.8062314   -0.5502963 
H     0.2805432    2.6109230   -1.8376778 
H    -0.4150697    2.4230126    3.7962843 
H     1.1732328   -3.7183615    0.6550198 
H     3.6808428   -0.0025235   -3.2236201 
H    -1.6052467    0.9313535   -2.0309097 
H    -1.3610288    1.8806813   -3.5259151 
H    -2.7239364    2.2645998   -2.4398485 
H    -0.6173969    4.3563111   -3.3538838 
H    -0.2198556    5.0580484   -1.7608550 
H    -1.9221773    4.7355702   -2.2020185 
H     0.3370461    0.1097158    3.2576577 
H    -0.1752387    0.2020878    4.9600650 
H    -1.2507392   -0.5461760    3.7478787 
H    -3.1374980    1.1775824    4.5396188 
H    -1.9347739    1.8022062    5.7015782 
H    -2.7352270    2.9191080    4.5685514 
H     1.2433142   -2.2789030    3.3847076 
H     0.0814590   -3.5475736    2.9060385 
H     0.0757938   -1.9716350    2.0659195 
H     3.2414417   -4.8957312    1.3850266 
H     1.9353014   -5.1841936    2.5604278 
H     3.2250588   -4.0108468    2.9382954 
H     2.6530101    2.0970074   -1.2198624 
H     3.6722719    2.3548607   -2.6576746 
H     4.3229538    1.4757621   -1.2515080 
H     0.7503991    0.6402280   -2.5923941 
H     1.6584958    1.4623102   -3.8942450 
H     1.4024702   -0.3044160   -3.9510932 
H     0.8084175    3.6642121    2.2034816 
H     4.3016212    0.2223875    1.2858409 
H     3.1434539    4.0240372    2.9663282 
H     4.8864983    2.2799016    2.5245362 
