101
Energy =
C    -2.7363465   -1.4510878   -0.1116170 
C    -2.0850004   -1.8895399   -1.2863997 
C    -0.9227187   -2.7192266   -1.2209848 
H    -2.3779544   -1.4614812   -2.2531968 
Pd   -0.5406982   -0.7946077   -0.1527240 
P     1.7699475   -0.7900429    0.0900603 
P    -0.5337190    1.3175954    0.8092127 
H    -2.5470057   -2.0264164    0.8080159 
H    -0.8588551   -3.4333838   -0.3893112 
C    -6.0787017    1.2348044    0.2379212 
C    -5.5750507    0.5621547    1.3610254 
C    -4.4999749   -0.3243535    1.2216857 
C    -3.8966015   -0.5503027   -0.0389633 
C    -4.4381390    0.1112576   -1.1655933 
C    -5.5126646    0.9950776   -1.0264318 
H    -6.9198451    1.9277635    0.3410842 
H    -6.0250784    0.7212569    2.3464185 
H    -4.1216893   -0.8618852    2.0980950 
H    -4.0209454   -0.0675580   -2.1604079 
H    -5.9181037    1.4972798   -1.9108820 
C     1.5592388   -3.6688017   -4.6144276 
C     1.4860575   -4.5396082   -3.5165110 
C     0.6603761   -4.2328140   -2.4269922 
C    -0.1049748   -3.0449624   -2.4061460 
C    -0.0198786   -2.1762680   -3.5213402 
C     0.7969773   -2.4886464   -4.6136695 
H     2.2037953   -3.9079093   -5.4662443 
H     2.0691103   -5.4664366   -3.5113865 
H     0.5959794   -4.9266112   -1.5811356 
H    -0.5744441   -1.2314156   -3.5195605 
H     0.8502920   -1.8011594   -5.4642949 
C    -1.0147728    2.8846886   -0.1557528 
C    -1.7570234    1.6668193    2.2052994 
C     2.6786862   -2.0893241    1.1248269 
C     2.7831805   -1.1612603   -1.4702065 
C    -2.3947676    3.2569785    0.4224863 
C    -2.2832412    3.0949384    1.9453418 
C     3.1461699   -3.1004154    0.0636564 
C     3.7766089   -2.2771200   -1.0676139 
C     1.2058708    1.6816198    1.3192239 
C     2.2382299    0.8071307    0.8932226 
C    -0.8319571    2.8787033   -1.6897839 
C    -1.3085098    1.2751881    3.6349629 
C     2.0099091   -2.6435644    2.4001767 
C     3.3779095    0.0438426   -2.2295889 
C    -1.6768308    1.8265993   -2.4175929 
C    -1.0827393    4.2863142   -2.2662800 
C    -1.3796573   -0.2532712    3.8000378 
C    -2.1607250    1.9683080    4.7145330 
C     0.6473973   -3.3081377    2.1575113 
C     1.9412859   -1.5582833    3.4884565 
C     2.2783469    1.0415491   -2.6184629 
C     4.1473659   -0.4341262   -3.4767440 
C     1.5409659    2.8426742    2.0462710 
C     3.5811461    1.1308307    1.1744541 
C     2.8779588    3.1433084    2.3358902 
C     3.9003903    2.2932878    1.8873083 
H    -0.2912740    3.6218557    0.2444452 
H    -2.5881513    0.9918576    1.9203767 
H     3.5798907   -1.5346119    1.4537436 
H     2.0147962   -1.6166635   -2.1228903 
H    -2.6653730    4.2889720    0.1414181 
H    -3.1830471    2.5880069    0.0286510 
H    -3.2582397    3.2359025    2.4419048 
H    -1.5939145    3.8562430    2.3580667 
H     3.8625070   -3.8157203    0.5052906 
H     2.2927342   -3.6844092   -0.3251133 
H     4.0134202   -2.9045666   -1.9430694 
H     4.7250397   -1.8277169   -0.7146944 
H     0.2307695    2.6397686   -1.8705112 
H    -0.2582325    1.5963842    3.7790297 
H     2.7001596   -3.4320054    2.7629644 
H     4.0954243    0.5601596   -1.5617388 
H    -1.4830521    0.8176383   -2.0048562 
H    -1.4302302    1.8077376   -3.4932395 
H    -2.7544182    2.0397676   -2.3195882 
H    -0.8161731    4.3141942   -3.3368925 
H    -0.4784174    5.0507563   -1.7460984 
H    -2.1458653    4.5735277   -2.1810151 
H    -0.8750058   -0.7751616    2.9687267 
H    -0.9093546   -0.5795551    4.7424799 
H    -2.4327513   -0.5880090    3.8136554 
H    -3.2320666    1.7257107    4.5890897 
H    -1.8539590    1.6244880    5.7175180 
H    -2.0525976    3.0655511    4.6893851 
H    -0.0870401   -2.5674675    1.7855105 
H     0.2511309   -3.7366082    3.0936771 
H     0.7146950   -4.1220834    1.4147545 
H     2.9482678   -1.1762598    3.7315020 
H     1.4903348   -1.9524621    4.4147721 
H     1.3343125   -0.6987349    3.1558109 
H     1.5251015    0.5620691   -3.2696752 
H     2.6969288    1.9092241   -3.1563779 
H     1.7556034    1.4219925   -1.7240496 
H     3.4833624   -1.0146220   -4.1429179 
H     4.5318362    0.4310074   -4.0441147 
H     5.0086935   -1.0703575   -3.2129126 
H     0.7527135    3.5213019    2.3890709 
H     4.3871033    0.4663326    0.8446965 
H     3.1223478    4.0447663    2.9067013 
H     4.9474086    2.5318492    2.0995813 
