101
Energy =
C    -2.8718862   -1.2040034   -0.3805257 
C    -2.1307360   -1.7675493   -1.4441278 
C    -1.0241327   -2.6346785   -1.1923994 
H    -2.2953932   -1.3966854   -2.4633168 
Pd   -0.6581168   -0.6625237   -0.2373927 
P     1.6301599   -0.7770461    0.1027454 
P    -0.5779474    1.4489012    0.7409768 
H    -2.8110479   -1.7062143    0.5977945 
H    -1.0804086   -3.2681475   -0.2956777 
C    -6.0821439    1.6440213   -0.6904901 
C    -5.6187655    1.2163297    0.5637648 
C    -4.5920566    0.2683400    0.6455796 
C    -3.9915976   -0.2573754   -0.5222719 
C    -4.4883109    0.1624511   -1.7781770 
C    -5.5212763    1.1024276   -1.8590685 
H    -6.8873384    2.3824388   -0.7579751 
H    -6.0658051    1.6157463    1.4800050 
H    -4.2427432   -0.0724291    1.6270869 
H    -4.0644682   -0.2431349   -2.7018829 
H    -5.8926527    1.4155910   -2.8401718 
C     1.7727777   -3.9900977   -4.1808287 
C     1.5815212   -4.7189056   -2.9972845 
C     0.6538692   -4.2818052   -2.0420920 
C    -0.0973617   -3.1021994   -2.2440594 
C     0.1034843   -2.3810268   -3.4452276 
C     1.0230255   -2.8226477   -4.4029209 
H     2.4967822   -4.3305670   -4.9278880 
H     2.1517543   -5.6366570   -2.8195878 
H     0.5013822   -4.8662703   -1.1278608 
H    -0.4458798   -1.4499580   -3.6206436 
H     1.1642584   -2.2471697   -5.3236754 
C    -1.4155567    3.0135819    0.0745789 
C    -1.3370444    1.5817736    2.4521520 
C     2.3851463   -2.1904816    1.1214331 
C     2.7708850   -1.0113253   -1.3826175 
C    -2.2569215    3.5491762    1.2722847 
C    -1.6615629    3.0784883    2.6077834 
C     3.4107493   -2.8548818    0.1641313 
C     3.9592853   -1.8234368   -0.8271947 
C     1.2079936    1.8637179    0.9848164 
C     2.1555898    0.8117640    0.8879899 
C    -2.2629107    2.8230629   -1.2079722 
C    -0.5581676    0.8533768    3.5874371 
C     1.3748102   -3.2024130    1.7199204 
C     3.1401960    0.2618184   -2.1766792 
C    -2.8938035    4.1607732   -1.6397644 
C    -1.4788668    2.2014467   -2.3709157 
C    -1.5362614    0.0614662    4.4735322 
C     0.3271874    1.7811430    4.4363548 
C     0.3375245   -2.5472398    2.6396887 
C     2.1145729   -4.3307529    2.4660196 
C     1.8944856    1.0372006   -2.6271982 
C     4.0213863   -0.0995955   -3.3890965 
C     1.6439355    3.1494736    1.3661404 
C     3.4945565    1.0501747    1.2605687 
C     2.9847536    3.3813308    1.6987414 
C     3.9061914    2.3243925    1.6714388 
H    -0.5845880    3.7087077   -0.1525869 
H    -2.2971682    1.0526914    2.2954158 
H     2.9145867   -1.6856863    1.9530646 
H     2.1733009   -1.6733165   -2.0396379 
H    -2.3312006    4.6487171    1.2290936 
H    -3.2830368    3.1479489    1.1733421 
H    -2.3671758    3.2446365    3.4417743 
H    -0.7469840    3.6476280    2.8498783 
H     4.2217315   -3.3334896    0.7383368 
H     2.8943924   -3.6515990   -0.4023019 
H     4.5019345   -2.3232161   -1.6476019 
H     4.6826619   -1.1458138   -0.3351303 
H    -3.0853192    2.1353749   -0.9458999 
H     0.1146156    0.1220565    3.1034675 
H     0.8370629   -3.6572987    0.8657111 
H     3.7305337    0.9178068   -1.5066319 
H    -3.5507920    4.5816699   -0.8604762 
H    -3.5076412    4.0143241   -2.5451515 
H    -2.1143975    4.9092186   -1.8756627 
H    -2.1327826    2.0770049   -3.2513537 
H    -1.0848080    1.2031329   -2.1003294 
H    -0.6249602    2.8362108   -2.6698340 
H    -2.1019361   -0.6789298    3.8792319 
H    -0.9980702   -0.4834750    5.2685340 
H    -2.2635949    0.7362588    4.9610916 
H    -0.2770692    2.5141837    4.9994965 
H     0.8938678    1.1839566    5.1715552 
H     1.0567462    2.3332260    3.8216091 
H     0.8218860   -2.0580799    3.5038987 
H    -0.3710757   -3.2977959    3.0304351 
H    -0.2506217   -1.7822298    2.0951747 
H     2.7805822   -4.9050735    1.8011010 
H     1.3896418   -5.0382497    2.9041854 
H     2.7248684   -3.9199280    3.2913550 
H     1.2456483    0.4076512   -3.2613342 
H     2.1758797    1.9321738   -3.2082846 
H     1.2958315    1.3752459   -1.7648088 
H     3.4950445   -0.8075702   -4.0554176 
H     4.2580768    0.8063518   -3.9732051 
H     4.9767422   -0.5598339   -3.0863657 
H     0.9338377    3.9800829    1.4178936 
H     4.2301990    0.2414148    1.2149579 
H     3.3059433    4.3851441    1.9942617 
H     4.9505064    2.4955774    1.9511684 
