101
Energy =
C    -2.8355201   -1.1989028   -0.3152745 
C    -2.1083221   -1.8140115   -1.3606436 
C    -1.0122907   -2.6853161   -1.0808405 
H    -2.2754046   -1.4857616   -2.3940440 
Pd   -0.6146340   -0.6828179   -0.2085016 
P     1.6823794   -0.7889684    0.0914184 
P    -0.5349165    1.4420785    0.7415354 
H    -2.7823755   -1.6697999    0.6788816 
H    -1.0702597   -3.2777841   -0.1562561 
C    -6.0033997    1.6877993   -0.7041617 
C    -5.5928151    1.2364790    0.5598171 
C    -4.5791974    0.2764084    0.6653842 
C    -3.9377995   -0.2371638   -0.4865226 
C    -4.3839178    0.2057850   -1.7533973 
C    -5.4042664    1.1565636   -1.8588315 
H    -6.7982480    2.4353825   -0.7911175 
H    -6.0719705    1.6243090    1.4647684 
H    -4.2784528   -0.0910355    1.6533401 
H    -3.9291029   -0.1891452   -2.6667122 
H    -5.7354726    1.4874948   -2.8484992 
C     1.6907611   -4.2525185   -4.0508523 
C     1.0054190   -3.0503529   -4.2944674 
C     0.1200888   -2.5369771   -3.3400846 
C    -0.1090330   -3.2191081   -2.1212083 
C     0.5816765   -4.4303669   -1.8944522 
C     1.4732070   -4.9407000   -2.8477318 
H     2.3864068   -4.6509033   -4.7962471 
H     1.1698479   -2.5049810   -5.2296610 
H    -0.3791537   -1.5806897   -3.5314088 
H     0.4100612   -4.9806080   -0.9624567 
H     1.9954494   -5.8830988   -2.6524869 
C    -1.1950103    3.0420898   -0.0398979 
C    -1.5355999    1.6751753    2.3106559 
C     2.4859055   -2.1974092    1.0770036 
C     2.7797686   -1.0097181   -1.4290497 
C    -1.9171447    3.8028936    1.1223453 
C    -1.5892164    3.1993610    2.5007805 
C     3.4033521   -2.9095232    0.0536741 
C     3.9561523   -1.8799391   -0.9377972 
C     1.2478972    1.8156653    1.0869492 
C     2.2057250    0.7851455    0.9011856 
C    -2.1241822    2.8465576   -1.2667931 
C    -1.2381661    0.7823187    3.5361231 
C     1.4968487   -3.1317406    1.8116530 
C     3.1607742    0.2755829   -2.1962836 
C    -2.6164896    4.2110821   -1.7896782 
C    -1.4735585    2.0592568   -2.4117588 
C    -2.3804106    0.9006608    4.5653091 
C     0.1253668    1.0432499    4.1973054 
C     0.6257639   -2.3601803    2.8102830 
C     2.2407406   -4.2854964    2.5107915 
C     1.9187604    1.0813610   -2.6011699 
C     4.0109897   -0.0697241   -3.4350266 
C     1.6827024    3.0769336    1.5464297 
C     3.5522939    1.0161399    1.2491934 
C     3.0259599    3.2979310    1.8751225 
C     3.9602597    2.2605283    1.7453316 
H    -0.2911742    3.5895389   -0.3672588 
H    -2.5278890    1.3673943    1.9194134 
H     3.1092571   -1.6846942    1.8359416 
H     2.1435502   -1.6324649   -2.0885530 
H    -1.6854805    4.8803945    1.0821279 
H    -3.0054891    3.7016223    0.9607870 
H    -2.3650195    3.4756823    3.2361982 
H    -0.6317589    3.5744763    2.9011037 
H     4.2152169   -3.4470125    0.5720936 
H     2.8098262   -3.6605124   -0.4988273 
H     4.4480324   -2.3798001   -1.7894842 
H     4.7220879   -1.2427374   -0.4552614 
H    -3.0065298    2.2809633   -0.9146024 
H    -1.2429133   -0.2598787    3.1649531 
H     0.8334169   -3.5712854    1.0413585 
H     3.7756723    0.9041945   -1.5221431 
H    -3.1659305    4.7833889   -1.0239974 
H    -3.2980044    4.0635472   -2.6451079 
H    -1.7668064    4.8286601   -2.1354768 
H    -2.1923339    1.9219905   -3.2377386 
H    -1.1417143    1.0565618   -2.0792861 
H    -0.5942892    2.5927933   -2.8145214 
H    -3.3656309    0.7153989    4.1003782 
H    -2.2446574    0.1656375    5.3772291 
H    -2.4057833    1.9037963    5.0266732 
H     0.2035576    2.0823204    4.5635326 
H     0.2576541    0.3753291    5.0658008 
H     0.9634076    0.8640599    3.5044802 
H     1.2417895   -1.8836349    3.5939433 
H    -0.1009932   -3.0270372    3.3056763 
H     0.0557416   -1.5635760    2.2954288 
H     2.7840545   -4.9238662    1.7942576 
H     1.5264978   -4.9267116    3.0557150 
H     2.9699995   -3.8952295    3.2444394 
H     1.2478110    0.4783135   -3.2386904 
H     2.2011480    1.9877477   -3.1638357 
H     1.3409169    1.4035915   -1.7180771 
H     3.4595202   -0.7513156   -4.1087840 
H     4.2522688    0.8463654   -4.0011711 
H     4.9634852   -0.5543496   -3.1630384 
H     0.9723588    3.9007381    1.6534184 
H     4.2960489    0.2234210    1.1214597 
H     3.3414931    4.2817670    2.2367088 
H     5.0093579    2.4249203    2.0107696 
