101
Energy =
C    -2.8845027   -1.1421019   -0.4406505 
C    -2.0977762   -1.6807950   -1.4836042 
C    -1.0268747   -2.5801396   -1.2095727 
H    -2.2114590   -1.2781296   -2.4973284 
Pd   -0.6692850   -0.6209966   -0.1766042 
P     1.6280317   -0.6529334    0.1939949 
P    -0.6793419    1.4725475    0.8433951 
H    -2.8725681   -1.6715404    0.5246182 
H    -1.1335035   -3.2243520   -0.3264054 
C    -6.0940159    1.6954231   -0.8490218 
C    -5.7053119    1.2277322    0.4161335 
C    -4.6769427    0.2845444    0.5287385 
C    -3.9979771   -0.1943676   -0.6162374 
C    -4.4233969    0.2627312   -1.8855371 
C    -5.4585495    1.1965456   -1.9984792 
H    -6.9001344    2.4301661   -0.9411975 
H    -6.2131850    1.5902079    1.3158690 
H    -4.3923065   -0.0947645    1.5166747 
H    -3.9416089   -0.1089626   -2.7947883 
H    -5.7732177    1.5387375   -2.9896663 
C     1.8143214   -4.0258435   -4.1070500 
C     1.6168994   -4.7042519   -2.8944374 
C     0.6763423   -4.2335887   -1.9693497 
C    -0.0823115   -3.0697239   -2.2307325 
C     0.1265220   -2.3982551   -3.4589904 
C     1.0591092   -2.8748007   -4.3871372 
H     2.5475105   -4.3933774   -4.8319957 
H     2.1927936   -5.6084006   -2.6712472 
H     0.5178740   -4.7744963   -1.0298193 
H    -0.4309947   -1.4832201   -3.6845962 
H     1.2039916   -2.3406548   -5.3318346 
C    -1.4413775    3.0667633    0.1371611 
C    -1.6430725    1.5957531    2.4535724 
C     2.5379794   -1.8647138    1.3321340 
C     2.7072818   -1.0403123   -1.3094716 
C    -2.2658489    3.6863571    1.3077209 
C    -1.8317086    3.1069508    2.6652711 
C     3.2388327   -2.8259174    0.3512721 
C     3.8241526   -1.9715259   -0.7818548 
C     1.0880027    1.9561391    1.1284604 
C     2.1012292    1.0034163    0.8571336 
C    -2.2707398    2.8992732   -1.1586943 
C    -1.2273272    0.7461626    3.6755091 
C     1.7501062   -2.4770579    2.5143552 
C     3.1585581    0.1649523   -2.1644246 
C    -2.8295328    4.2600057   -1.6186018 
C    -1.4804588    2.2400542   -2.2972127 
C     0.2113766    0.9864490    4.1614911 
C    -1.5032445   -0.7460246    3.4238796 
C     2.7192577   -3.1055981    3.5346824 
C     0.6722622   -3.4818422    2.0862118 
C     1.9598827    1.0117751   -2.6190999 
C     3.9793273   -0.3160120   -3.3772045 
C     1.4609208    3.2370093    1.5883084 
C     3.4521696    1.3384637    1.0826210 
C     2.8062936    3.5594690    1.8047769 
C     3.8053539    2.6071830    1.5574083 
H    -0.5659918    3.7013820   -0.0955485 
H    -2.6205966    1.2058296    2.1020338 
H     3.3196199   -1.2167253    1.7734132 
H     2.0243510   -1.6533975   -1.9276524 
H    -2.1935096    4.7867401    1.2897411 
H    -3.3287947    3.4275897    1.1466467 
H    -2.5993873    3.2918926    3.4384684 
H    -0.8994004    3.5709574    3.0324787 
H     4.0201836   -3.4090718    0.8687029 
H     2.5134532   -3.5447531   -0.0685669 
H     4.2112757   -2.6024501   -1.5995634 
H     4.6736935   -1.3699192   -0.4037558 
H    -3.1289836    2.2509799   -0.9109740 
H    -1.9069284    1.0729298    4.4882849 
H     1.2444503   -1.6354757    3.0231088 
H     3.8147181    0.8042899   -1.5421440 
H    -3.4789476    4.7240599   -0.8575788 
H    -3.4330703    4.1303878   -2.5334428 
H    -2.0104923    4.9664452   -1.8495476 
H    -2.1178006    2.1225165   -3.1904896 
H    -1.1148896    1.2362902   -2.0070299 
H    -0.6044478    2.8501212   -2.5839469 
H     0.4255486    2.0587839    4.3086147 
H     0.3769889    0.4743101    5.1247999 
H     0.9515256    0.5960907    3.4421964 
H    -0.9443486   -1.1057133    2.5390151 
H    -1.2011493   -1.3612283    4.2885111 
H    -2.5763472   -0.9285995    3.2360680 
H     3.2492544   -3.9744336    3.1051558 
H     2.1673502   -3.4593929    4.4226544 
H     3.4763424   -2.3763045    3.8733851 
H    -0.0224243   -3.0285320    1.3592238 
H     0.0814009   -3.8099229    2.9581881 
H     1.1162637   -4.3815263    1.6247837 
H     1.2513360    0.4038830   -3.2096994 
H     2.2897570    1.8573788   -3.2467457 
H     1.4088044    1.4302073   -1.7591278 
H     3.3836637   -1.0071990   -4.0006561 
H     4.2749330    0.5426798   -4.0044328 
H     4.9008593   -0.8392901   -3.0714073 
H     0.7011622    3.9990557    1.7812635 
H     4.2405003    0.6064534    0.8785419 
H     3.0736236    4.5575983    2.1660610 
H     4.8586423    2.8549710    1.7224230 
