101
Energy =
C    -2.8491512   -1.3493626    0.0678942 
C    -2.2011762   -1.9198986   -1.0530765 
C    -1.0528189   -2.7540817   -0.8894568 
H    -2.4772892   -1.5867939   -2.0614288 
Pd   -0.6544536   -0.7468742   -0.0161235 
P     1.6534084   -0.7322865    0.1343507 
P    -0.5827544    1.3973027    0.8660128 
H    -2.6946718   -1.8469715    1.0383396 
H    -1.0063755   -3.3657572    0.0230796 
C    -6.1076101    1.4610514    0.1042443 
C    -5.6732567    0.8473083    1.2882934 
C    -4.6258498   -0.0821459    1.2521913 
C    -3.9808554   -0.4092552    0.0352968 
C    -4.4479495    0.2002660   -1.1526256 
C    -5.4972556    1.1238011   -1.1165192 
H    -6.9266143    2.1869747    0.1273830 
H    -6.1562821    1.0853782    2.2416304 
H    -4.3037314   -0.5734031    2.1777102 
H    -3.9881362   -0.0459839   -2.1140073 
H    -5.8455422    1.5836377   -2.0471852 
C     1.3816120   -4.1795056   -4.1520276 
C     1.2918216   -4.9079057   -2.9564075 
C     0.4887997   -4.4431537   -1.9063542 
C    -0.2327724   -3.2335671   -2.0219569 
C    -0.1242240   -2.5050098   -3.2310020 
C     0.6635743   -2.9795330   -4.2859859 
H     2.0032923   -4.5446220   -4.9756625 
H     1.8395685   -5.8494071   -2.8445390 
H     0.4054488   -5.0338983   -0.9873096 
H    -0.6430916   -1.5458092   -3.3384690 
H     0.7247309   -2.4059156   -5.2166596 
C    -0.9710736    2.8990082   -0.2079528 
C    -1.8507294    1.8442148    2.1895733 
C     2.6595373   -2.1557687    0.8799658 
C     2.5585163   -0.7687845   -1.5070263 
C    -2.4046299    3.2721737    0.2207295 
C    -2.4272592    3.2127796    1.7572095 
C     3.6256828   -2.5963605   -0.2534796 
C     3.9230474   -1.4021813   -1.1760712 
C     1.1385442    1.7048134    1.4455577 
C     2.1379219    0.7497002    1.1315948 
C    -0.6388410    2.7789198   -1.7125420 
C    -1.4273218    1.6851613    3.6659579 
C     1.8168765   -3.2949212    1.4994530 
C     2.4936734    0.4754548   -2.4242958 
C    -1.4825943    1.7325682   -2.4535922 
C    -0.7338509    4.1552928   -2.3986738 
C    -0.8793871    0.2746989    3.9377815 
C    -2.6116605    2.0039487    4.5993635 
C     0.8881768   -2.7807072    2.6094204 
C     2.7248135   -4.4231217    2.0248716 
C     2.9961447    0.1082241   -3.8351704 
C     3.2318318    1.7175703   -1.8971428 
C     1.4864673    2.8717457    2.1564770 
C     3.4613072    0.9723702    1.5665206 
C     2.8052696    3.0814367    2.5775737 
C     3.7919221    2.1268045    2.2862779 
H    -0.2939726    3.6705378    0.2098478 
H    -2.6361479    1.0909678    1.9875575 
H     3.2402214   -1.6837445    1.6952452 
H     1.9623296   -1.5555393   -2.0148314 
H    -2.6775467    4.2745994   -0.1514642 
H    -3.1375941    2.5548222   -0.1926063 
H    -3.4517270    3.3356023    2.1477621 
H    -1.8138472    4.0339489    2.1766539 
H     4.5487000   -3.0230096    0.1737483 
H     3.1383868   -3.3916865   -0.8482853 
H     4.4353495   -1.7316439   -2.0966532 
H     4.5899603   -0.6720918   -0.6812923 
H     0.4196458    2.4596761   -1.7659884 
H    -0.6218756    2.4139545    3.8810324 
H     1.1915629   -3.7119687    0.6879443 
H     1.4179805    0.7263358   -2.5142267 
H    -1.4060050    0.7439978   -1.9581442 
H    -1.1324970    1.6186328   -3.4941956 
H    -2.5470192    2.0212344   -2.4830497 
H    -0.3894442    4.0890627   -3.4452391 
H    -0.1107073    4.9070167   -1.8826124 
H    -1.7745795    4.5251452   -2.4132873 
H     0.0310333    0.0732373    3.3471627 
H    -0.6194259    0.1499354    5.0028019 
H    -1.6292791   -0.4962315    3.6792160 
H    -3.4649376    1.3312413    4.3934761 
H    -2.3180546    1.8649173    5.6540166 
H    -2.9611806    3.0435295    4.4832179 
H     1.4649754   -2.3173440    3.4307770 
H     0.2902610   -3.6039234    3.0373939 
H     0.1838200   -2.0209266    2.2192525 
H     3.3293997   -4.8763962    1.2215317 
H     2.1169931   -5.2246535    2.4792392 
H     3.4146376   -4.0431743    2.8009333 
H     4.0836603   -0.0852490   -3.8337860 
H     2.8083459    0.9379018   -4.5385698 
H     2.4895628   -0.7928736   -4.2209116 
H     4.3035641    1.5084043   -1.7299239 
H     3.1670766    2.5340333   -2.6372969 
H     2.8080623    2.0897598   -0.9510020 
H     0.7227856    3.6225977    2.3855092 
H     4.2482765    0.2481111    1.3355671 
H     3.0626261    3.9870779    3.1358985 
H     4.8238446    2.2845553    2.6155712 
