101
Energy =
C    -2.7930566   -1.2953984   -0.0728310 
C    -2.1437374   -1.8929567   -1.1801387 
C    -1.0171645   -2.7477608   -0.9848259 
H    -2.4066243   -1.5747727   -2.1966775 
Pd   -0.5891749   -0.7195474   -0.1528929 
P     1.7210716   -0.7645284    0.0447749 
P    -0.5124201    1.4093823    0.7785214 
H    -2.6490398   -1.7811168    0.9051301 
H    -0.9905305   -3.3224181   -0.0478767 
C    -6.0644541    1.5006453   -0.0911996 
C    -5.6196486    0.9202826    1.1061468 
C    -4.5674523   -0.0033846    1.0877183 
C    -3.9255113   -0.3566450   -0.1237451 
C    -4.4057666    0.2157697   -1.3245748 
C    -5.4601006    1.1343568   -1.3061483 
H    -6.8881126    2.2215610   -0.0821651 
H    -6.0997858    1.1792871    2.0554358 
H    -4.2401981   -0.4714596    2.0233649 
H    -3.9535910   -0.0555314   -2.2829004 
H    -5.8170708    1.5666960   -2.2466064 
C     1.4569762   -4.3490002   -4.1326341 
C     1.3597932   -5.0050312   -2.8962828 
C     0.5400221   -4.4854866   -1.8859575 
C    -0.1935999   -3.2933223   -2.0834349 
C    -0.0909754   -2.6488585   -3.3380729 
C     0.7205512   -3.1727471   -4.3505189 
H     2.0952825   -4.7543705   -4.9241550 
H     1.9162219   -5.9315966   -2.7206046 
H     0.4544319   -5.0189893   -0.9328748 
H    -0.6340384   -1.7147316   -3.5153398 
H     0.7844894   -2.6575119   -5.3147698 
C    -1.0037674    2.9502895   -0.1922035 
C    -1.7098841    1.7681874    2.2061205 
C     2.6172389   -2.1968846    0.9241243 
C     2.7619181   -0.9082938   -1.5242615 
C    -2.4361119    3.2257813    0.3047044 
C    -2.3953922    3.1055079    1.8343804 
C     3.6543576   -2.7199389   -0.1051790 
C     4.0630551   -1.5846211   -1.0525453 
C     1.2287661    1.7159658    1.3008545 
C     2.2124029    0.7333325    1.0206404 
C    -0.7411188    2.9328560   -1.7141122 
C    -1.1691314    1.6636603    3.6499690 
C     1.7022530   -3.2960454    1.5139259 
C     2.9147821    0.2883362   -2.4957212 
C    -1.6470154    1.9561360   -2.4758794 
C    -0.8462912    4.3552704   -2.2975100 
C    -0.5273428    0.2951142    3.9177564 
C    -2.2966741    1.9435744    4.6636023 
C     0.7012680   -2.7375589    2.5331432 
C     2.5417931   -4.4251790    2.1428776 
C     3.4362998    1.5906530   -1.8668391 
C     1.6141805    0.5207741   -3.2812009 
C     1.5947192    2.8931780    1.9851740 
C     3.5307408    0.9346566    1.4790305 
C     2.9123344    3.0872553    2.4172688 
C     3.8784459    2.0998232    2.1731904 
H    -0.3458365    3.7283001    0.2437186 
H    -2.4568779    0.9643050    2.0683123 
H     3.1445691   -1.7062706    1.7642879 
H     2.1773483   -1.6855623   -2.0606155 
H    -2.7781051    4.2247438   -0.0162725 
H    -3.1435596    2.4857965   -0.1126815 
H    -3.4094822    3.1455969    2.2667110 
H    -1.8206923    3.9498741    2.2622912 
H     4.5252797   -3.1542338    0.4138572 
H     3.1877736   -3.5275472   -0.6999601 
H     4.6239723   -1.9699199   -1.9229349 
H     4.7240382   -0.8571627   -0.5461967 
H     0.3071856    2.6042508   -1.8454946 
H    -0.3926426    2.4411806    3.7870899 
H     1.1343464   -3.7272965    0.6693979 
H     3.6811906   -0.0495587   -3.2217157 
H    -1.5942594    0.9416456   -2.0354597 
H    -1.3394313    1.8842128   -3.5329792 
H    -2.6998163    2.2842095   -2.4495707 
H    -0.5735548    4.3537620   -3.3670338 
H    -0.1708274    5.0560568   -1.7755606 
H    -1.8756930    4.7479405   -2.2171883 
H     0.3384367    0.1187683    3.2578355 
H    -0.1722793    0.2232457    4.9599943 
H    -1.2550413   -0.5205366    3.7515459 
H    -3.1258282    1.2229323    4.5358879 
H    -1.9175223    1.8419833    5.6950241 
H    -2.7084266    2.9610064    4.5574033 
H     1.2204419   -2.2780420    3.3934735 
H     0.0452196   -3.5364391    2.9203058 
H     0.0556893   -1.9640161    2.0737704 
H     3.1900267   -4.9239142    1.4031799 
H     1.8814802   -5.1938979    2.5803014 
H     3.1838602   -4.0329232    2.9530292 
H     2.6754901    2.0665892   -1.2241724 
H     3.6977384    2.3093247   -2.6624647 
H     4.3387200    1.4274061   -1.2536186 
H     0.7576391    0.6255494   -2.5924316 
H     1.6742624    1.4351725   -3.8961169 
H     1.3999962   -0.3288736   -3.9489937 
H     0.8441185    3.6640358    2.1900496 
H     4.3024487    0.1832287    1.2874606 
H     3.1822984    4.0029705    2.9526975 
H     4.9076936    2.2394607    2.5186615 
