101
Energy =
C    -2.7488228   -1.4286940   -0.0995692 
C    -2.1028960   -1.8783623   -1.2731136 
C    -0.9476838   -2.7176958   -1.2055041 
H    -2.3934917   -1.4523832   -2.2415501 
Pd   -0.5474285   -0.7911325   -0.1466799 
P     1.7633693   -0.8046152    0.0923499 
P    -0.5215743    1.3259088    0.8036065 
H    -2.5629915   -2.0010276    0.8226402 
H    -0.8887197   -3.4285582   -0.3706478 
C    -6.0674908    1.2875373    0.2413776 
C    -5.5684417    0.6156350    1.3669880 
C    -4.5011704   -0.2807232    1.2305522 
C    -3.9012139   -0.5176558   -0.0297293 
C    -4.4386247    0.1430410   -1.1588520 
C    -5.5053312    1.0367365   -1.0225706 
H    -6.9022260    1.9885259    0.3423562 
H    -6.0161180    0.7829419    2.3520965 
H    -4.1263484   -0.8172445    2.1090822 
H    -4.0245179   -0.0444112   -2.1533714 
H    -5.9073976    1.5384031   -1.9088677 
C     1.5183947   -3.7054795   -4.5996521 
C     0.7681502   -2.5176546   -4.6020912 
C    -0.0432834   -2.1926664   -3.5093767 
C    -0.1349835   -3.0560754   -2.3905923 
C     0.6182336   -4.2516963   -2.4082198 
C     1.4386311   -4.5711200   -3.4981066 
H     2.1589686   -3.9543777   -5.4516697 
H     0.8265946   -1.8341860   -5.4556193 
H    -0.5885371   -1.2424066   -3.5103676 
H     0.5483338   -4.9415760   -1.5595892 
H     2.0120697   -5.5039154   -3.4905492 
C    -0.9904705    2.8914981   -0.1697071 
C    -1.7406448    1.6930950    2.1988466 
C     2.6630729   -2.1074274    1.1303697 
C     2.7704271   -1.1904845   -1.4685082 
C    -2.3672568    3.2777981    0.4069393 
C    -2.2565276    3.1234528    1.9306203 
C     3.1179302   -3.1273764    0.0721729 
C     3.7534479   -2.3149483   -1.0640734 
C     1.2216160    1.6778398    1.3099567 
C     2.2460081    0.7921079    0.8878827 
C    -0.8084939    2.8759149   -1.7037930 
C    -1.2933627    1.3077945    3.6304995 
C     1.9928115   -2.6503095    2.4098094 
C     3.3761290    0.0059282   -2.2329907 
C    -1.6618335    1.8265050   -2.4256268 
C    -1.0485131    4.2823420   -2.2877480 
C    -1.3702348   -0.2193630    3.8043647 
C    -2.1427903    2.0104591    4.7061125 
C     0.6231891   -3.3023806    2.1733736 
C     1.9379954   -1.5602977    3.4941424 
C     2.2866194    1.0146282   -2.6218737 
C     4.1366720   -0.4842420   -3.4808989 
C     1.5673724    2.8397695    2.0305795 
C     3.5918743    1.1053090    1.1668991 
C     2.9071325    3.1299957    2.3181068 
C     3.9217459    2.2684532    1.8737732 
H    -0.2609858    3.6250340    0.2262880 
H    -2.5769988    1.0223184    1.9193497 
H     3.5703456   -1.5597368    1.4543416 
H     1.9965135   -1.6401922   -2.1185722 
H    -2.6299956    4.3102490    0.1201596 
H    -3.1608303    2.6127526    0.0171063 
H    -3.2303710    3.2744078    2.4265347 
H    -1.5614956    3.8819750    2.3389449 
H     3.8284356   -3.8477932    0.5149322 
H     2.2578280   -3.7046502   -0.3119140 
H     3.9815209   -2.9481750   -1.9376748 
H     4.7073108   -1.8737688   -0.7154572 
H     0.2522221    2.6276983   -1.8837476 
H    -0.2418345    1.6257877    3.7724465 
H     2.6763841   -3.4440990    2.7735871 
H     4.1012132    0.5162331   -1.5687045 
H    -1.4761171    0.8183790   -2.0071610 
H    -1.4155035    1.7996215   -3.5011717 
H    -2.7376781    2.0488170   -2.3287841 
H    -0.7828217    4.3021771   -3.3587583 
H    -0.4374834    5.0447101   -1.7723798 
H    -2.1091854    4.5786506   -2.2030198 
H    -0.8674550   -0.7478833    2.9761334 
H    -0.9012439   -0.5420025    4.7487268 
H    -2.4245516   -0.5501876    3.8196199 
H    -3.2150610    1.7712432    4.5820201 
H    -1.8373323    1.6712845    5.7110790 
H    -2.0304556    3.1071136    4.6746130 
H    -0.1050125   -2.5561842    1.8000997 
H     0.2251481   -3.7231207    3.1122964 
H     0.6807035   -4.1199403    1.4337956 
H     2.9494466   -1.1874832    3.7329293 
H     1.4857984   -1.9465337    4.4232084 
H     1.3387160   -0.6959368    3.1600249 
H     1.5233969    0.5402282   -3.2651887 
H     2.7125935    1.8733028   -3.1683765 
H     1.7744723    1.4078451   -1.7268718 
H     3.4640888   -1.0582222   -4.1441263 
H     4.5301992    0.3748729   -4.0511950 
H     4.9908679   -1.1302671   -3.2176939 
H     0.7853431    3.5271425    2.3702089 
H     4.3917655    0.4321820    0.8398734 
H     3.1597920    4.0322220    2.8840894 
H     4.9709384    2.4987953    2.0843994 
