101
Energy =
C    -2.7997972   -1.3261802    0.0898447 
C    -2.1365244   -1.9388793   -0.9992629 
C    -1.0178820   -2.7994031   -0.7852116 
H    -2.3773665   -1.6258401   -2.0231327 
Pd   -0.5850263   -0.7717502    0.0346215 
P     1.7288675   -0.7393577    0.1246895 
P    -0.4524616    1.4015071    0.8379798 
H    -2.6739818   -1.7982811    1.0767066 
H    -1.0109817   -3.3818353    0.1478853 
C    -6.0692406    1.4715111   -0.0535366 
C    -5.6289056    0.9400198    1.1677457 
C    -4.5752100    0.0177120    1.1917284 
C    -3.9296369   -0.3864742   -0.0008516 
C    -4.4023888    0.1414093   -1.2255085 
C    -5.4568044    1.0596036   -1.2496025 
H    -6.8942092    2.1906419   -0.0770256 
H    -6.1114927    1.2382875    2.1042533 
H    -4.2451096   -0.4040437    2.1475020 
H    -3.9413412   -0.1637792   -2.1696888 
H    -5.8067640    1.4561971   -2.2082948 
C     1.4348458   -4.4134410   -3.9436582 
C     0.8274643   -3.1569033   -4.1020461 
C     0.0233820   -2.6290548   -3.0850652 
C    -0.1948727   -3.3470143   -1.8848177 
C     0.4150822   -4.6140434   -1.7453679 
C     1.2207579   -5.1413608   -2.7631843 
H     2.0668470   -4.8238785   -4.7376364 
H     0.9878297   -2.5812897   -5.0197395 
H    -0.4252301   -1.6373228   -3.2137538 
H     0.2458747   -5.1959943   -0.8326330 
H     1.6799487   -6.1270611   -2.6352810 
C    -0.6632161    2.8123122   -0.3937115 
C    -1.7489482    2.0806938    2.0069494 
C     2.7780481   -2.2185224    0.6479526 
C     2.5268132   -0.5669081   -1.5621064 
C    -0.9296840    4.0107604    0.5425853 
C    -1.9111019    3.5957817    1.6640151 
C     3.5188093   -2.6314996   -0.6496456 
C     3.8446203   -1.3578966   -1.4479248 
C     1.2314714    1.6227029    1.5638001 
C     2.2214990    0.6654541    1.2190034 
C    -1.7909430    2.4614363   -1.4102941 
C    -1.5934262    1.7301988    3.5077270 
C     1.9901716   -3.3287089    1.3772391 
C     2.5338049    0.8486824   -2.1960131 
C    -2.4275557    3.7073533   -2.0510332 
C    -1.2561832    1.5187824   -2.5014927 
C    -1.2549966    0.2460289    3.7245442 
C    -2.8730152    2.1176542    4.2743004 
C     1.3262447   -2.7903459    2.6545640 
C     2.8912684   -4.5380589    1.6856428 
C     2.4440213    0.7357694   -3.7297631 
C     3.7302565    1.7195915   -1.7791010 
C     1.5713213    2.6840291    2.4281973 
C     3.5279253    0.8062847    1.7293080 
C     2.8711637    2.8051558    2.9364104 
C     3.8526240    1.8686400    2.5819804 
H     0.2880135    2.9578514   -0.9372004 
H    -2.6475623    1.5447955    1.6444731 
H     3.5181737   -1.8057666    1.3602737 
H     1.8353526   -1.1927245   -2.1608045 
H     0.0321901    4.3273003    0.9805054 
H    -1.3024489    4.8819389   -0.0212392 
H    -2.9521788    3.7808483    1.3487740 
H    -1.7395502    4.2127665    2.5634258 
H     4.4307198   -3.2019962   -0.4051602 
H     2.8670966   -3.2907767   -1.2524568 
H     4.2479842   -1.5972716   -2.4477083 
H     4.6126883   -0.7621371   -0.9203870 
H    -2.5936147    1.9279520   -0.8652693 
H    -0.7582989    2.3307136    3.9170700 
H     1.1941590   -3.6657868    0.6888510 
H     1.6110102    1.3545508   -1.8514073 
H    -2.9545348    4.3341744   -1.3122458 
H    -3.1702562    3.3989936   -2.8071181 
H    -1.6687433    4.3314060   -2.5579925 
H    -2.0686937    1.1882629   -3.1709858 
H    -0.7905041    0.6155170   -2.0570611 
H    -0.4928144    2.0244440   -3.1203571 
H    -0.2836814   -0.0205274    3.2710933 
H    -1.1949366    0.0113785    4.8010011 
H    -2.0267608   -0.4070675    3.2780191 
H    -3.7380372    1.5346041    3.9091791 
H    -2.7557016    1.9132505    5.3523613 
H    -3.1149894    3.1878389    4.1589199 
H     2.0814789   -2.4153398    3.3694900 
H     0.7422145   -3.5787349    3.1600351 
H     0.6348899   -1.9573438    2.4236433 
H     3.2870694   -4.9998364    0.7654107 
H     2.3231043   -5.3113540    2.2312727 
H     3.7485091   -4.2420116    2.3180980 
H     3.3176982    0.1976216   -4.1397246 
H     2.4180712    1.7360703   -4.1959545 
H     1.5341764    0.1912721   -4.0382052 
H     4.6799282    1.3017314   -2.1577206 
H     3.6246052    2.7334961   -2.2024737 
H     3.8106459    1.8199156   -0.6846896 
H     0.8165213    3.4176421    2.7231476 
H     4.3051103    0.0834140    1.4619777 
H     3.1149535    3.6296442    3.6138848 
H     4.8702776    1.9602072    2.9744629 
