101
Energy =
C    -2.8528426   -1.0525038   -0.3549675 
C    -2.0993668   -1.8423026   -1.2590521 
C    -1.0940349   -2.7276307   -0.7767115 
H    -2.1823207   -1.6653398   -2.3386144 
Pd   -0.6215703   -0.6221365   -0.1819181 
P     1.6920803   -0.6437592    0.0084739 
P    -0.5718071    1.5038341    0.7681338 
H    -2.9139848   -1.4104401    0.6831064 
H    -1.2383872   -3.1272420    0.2382338 
C    -5.8541044    1.8738817   -1.3318151 
C    -5.6209477    1.4993454    0.0006648 
C    -4.6538971    0.5313731    0.2970520 
C    -3.8860776   -0.0712763   -0.7276723 
C    -4.1496398    0.3003584   -2.0663277 
C    -5.1223663    1.2606350   -2.3627215 
H    -6.6107143    2.6287732   -1.5680485 
H    -6.2014172    1.9552269    0.8094136 
H    -4.4902301    0.2275049    1.3373761 
H    -3.5838632   -0.1534159   -2.8855057 
H    -5.3105037    1.5362525   -3.4054811 
C     1.4861518   -5.1475115   -3.2307314 
C     1.0431146   -3.9012784   -3.7058116 
C     0.1991538   -3.1066527   -2.9217880 
C    -0.2161434   -3.5400861   -1.6410404 
C     0.2356616   -4.7960612   -1.1769908 
C     1.0743828   -5.5942087   -1.9659577 
H     2.1468363   -5.7669035   -3.8456611 
H     1.3602242   -3.5471133   -4.6923093 
H    -0.1284890   -2.1305203   -3.2976966 
H    -0.0781605   -5.1476223   -0.1878561 
H     1.4098128   -6.5664444   -1.5905892 
C    -1.2531452    3.1398551    0.0845559 
C    -1.5443026    1.6209420    2.3760101 
C     2.6407450   -2.0629929    0.8131055 
C     2.6514660   -0.7370604   -1.6313979 
C    -2.0346311    3.7821423    1.2747547 
C    -1.6699585    3.1349465    2.6212542 
C     3.2109689   -2.8322080   -0.3961756 
C     3.7546140   -1.7889304   -1.3772773 
C     1.2028511    1.8816285    1.1675046 
C     2.1902938    0.9032835    0.8794900 
C    -2.1318617    3.0266184   -1.1883759 
C    -1.0572548    0.7270457    3.5413775 
C     1.8361940   -2.8525150    1.8722967 
C     3.1267526    0.6013694   -2.2387786 
C    -2.6326931    4.4202938   -1.6172414 
C    -1.4257048    2.3425442   -2.3644818 
C    -1.4283231   -0.7433388    3.2826327 
C    -1.6350764    1.1860794    4.8943446 
C     1.7666460   -2.0387790    3.1751934 
C     2.4282380   -4.2491759    2.1321277 
C     1.9450636    1.5352715   -2.5272223 
C     3.9465739    0.3557266   -3.5211069 
C     1.6121407    3.1143317    1.7198716 
C     3.5411906    1.1589239    1.1903114 
C     2.9578573    3.3572787    2.0239815 
C     3.9246157    2.3744249    1.7694534 
H    -0.3526089    3.7340010   -0.1607699 
H    -2.5431585    1.2612567    2.0531868 
H     3.4943546   -1.5772178    1.3264382 
H     1.9068381   -1.1861535   -2.3165121 
H    -1.8818544    4.8741730    1.2942487 
H    -3.1118743    3.6099066    1.0958546 
H    -2.4539239    3.3434941    3.3695031 
H    -0.7293654    3.5368583    3.0367848 
H     4.0002173   -3.5307116   -0.0707395 
H     2.4214176   -3.4314733   -0.8807090 
H     4.0649754   -2.2558700   -2.3271954 
H     4.6476852   -1.2935482   -0.9484461 
H    -3.0146741    2.4217179   -0.9153670 
H     0.0464295    0.8124585    3.6026140 
H     0.8073394   -2.9870840    1.4828835 
H     3.7899627    1.0956562   -1.5020128 
H    -3.2280784    4.9145610   -0.8316899 
H    -3.2745220    4.3298618   -2.5104141 
H    -1.7847014    5.0823959   -1.8736789 
H    -2.1121949    2.2606381   -3.2240203 
H    -1.0918306    1.3218024   -2.0994439 
H    -0.5434426    2.9210288   -2.6906735 
H    -0.9994761   -1.1095950    2.3284516 
H    -1.0615745   -1.3960622    4.0911868 
H    -2.5269637   -0.8580491    3.2275454 
H    -2.7405663    1.1824143    4.8757045 
H    -1.3108908    0.5007967    5.6963261 
H    -1.2989418    2.2003928    5.1662357 
H     2.7739382   -1.9405661    3.6196509 
H     1.1143400   -2.5262803    3.9186329 
H     1.3826895   -1.0192780    2.9964787 
H     2.3926539   -4.8845763    1.2312939 
H     1.8594473   -4.7603858    2.9282789 
H     3.4803434   -4.1804761    2.4642344 
H     1.2537761    1.0775420   -3.2576551 
H     2.2908513    2.4973207   -2.9426712 
H     1.3684345    1.7534071   -1.6126753 
H     3.3484449   -0.1960904   -4.2698917 
H     4.2459259    1.3178612   -3.9713467 
H     4.8654170   -0.2209892   -3.3239998 
H     0.8816504    3.9044556    1.9103229 
H     4.3061390    0.4073868    0.9676802 
H     3.2502342    4.3187830    2.4578845 
H     4.9773278    2.5597947    2.0050961 
