101
Energy =
C    -2.8330595   -1.3456911   -0.1716988 
C    -2.1425423   -1.7588805   -1.3343623 
C    -1.0179783   -2.6362912   -1.2584631 
H    -2.3706269   -1.2727577   -2.2913280 
Pd   -0.6218768   -0.7660036   -0.0915150 
P     1.6929222   -0.7779337    0.1498900 
P    -0.6161683    1.3441485    0.8732881 
H    -2.7048773   -1.9607636    0.7326110 
H    -1.0108828   -3.3782976   -0.4485225 
C    -6.1449419    1.3957615    0.0802586 
C    -5.6448129    0.7634136    1.2285119 
C    -4.5808307   -0.1410529    1.1230888 
C    -3.9817712   -0.4239303   -0.1271025 
C    -4.5216951    0.1964477   -1.2787409 
C    -5.5871765    1.0966245   -1.1742007 
H    -6.9784801    2.1011558    0.1575625 
H    -6.0908400    0.9670297    2.2074782 
H    -4.2081706   -0.6479796    2.0196803 
H    -4.1136040   -0.0301340   -2.2687838 
H    -5.9897357    1.5650316   -2.0781768 
C     1.5087156   -3.6045887   -4.6147019 
C     1.3600343   -4.5042949   -3.5482195 
C     0.5239182   -4.1875528   -2.4696085 
C    -0.1773617   -2.9614317   -2.4282775 
C    -0.0179573   -2.0648669   -3.5126631 
C     0.8104609   -2.3857926   -4.5939101 
H     2.1618356   -3.8513607   -5.4577847 
H     1.8918791   -5.4613653   -3.5593890 
H     0.3995957   -4.9042950   -1.6498946 
H    -0.5229615   -1.0932285   -3.4954967 
H     0.9218339   -1.6758223   -5.4201562 
C    -1.3068692    2.8163528   -0.1294896 
C    -1.7082894    1.7149557    2.3662072 
C     2.5590635   -2.1305615    1.1458647 
C     2.7237811   -1.1143900   -1.4190159 
C    -2.3609780    3.4853971    0.7934778 
C    -2.0174841    3.2194150    2.2633980 
C     2.9239660   -3.1470875    0.0514804 
C     3.5928636   -2.3526135   -1.0744151 
C     1.1548191    1.7908080    1.1920995 
C     2.1647728    0.8302029    0.9212566 
C    -1.8661631    2.4427134   -1.5238009 
C    -1.3862061    1.1589508    3.7713661 
C     1.8850894   -2.6861958    2.4175514 
C     3.5107347    0.0575147   -2.0534015 
C    -2.5551718    3.6502389   -2.1882493 
C    -0.7950544    1.8638303   -2.4534546 
C    -0.0493671    1.6345817    4.3625327 
C    -1.5269236   -0.3721099    3.8030147 
C     0.5001218   -3.3027825    2.1716239 
C     1.8621146   -1.6192978    3.5223526 
C     2.5984778    1.2229315   -2.4556811 
C     4.2987758   -0.4431563   -3.2824696 
C     1.5309413    3.0560597    1.6887981 
C     3.5108779    1.1362798    1.2079494 
C     2.8728692    3.3537809    1.9540003 
C     3.8644096    2.3876014    1.7266591 
H    -0.4399781    3.4926993   -0.2597144 
H    -2.6275792    1.1963983    2.0215455 
H     3.5007058   -1.6393413    1.4641481 
H     1.9465689   -1.4259039   -2.1404693 
H    -2.4325915    4.5638083    0.5739983 
H    -3.3508857    3.0401303    0.5781212 
H    -2.8633486    3.4764039    2.9264499 
H    -1.1587277    3.8303038    2.5957622 
H     3.5905162   -3.9282422    0.4582242 
H     2.0170867   -3.6516984   -0.3264825 
H     3.7396794   -2.9707635   -1.9752236 
H     4.5912629   -2.0151208   -0.7360248 
H    -2.6351312    1.6667912   -1.3561930 
H    -2.1882221    1.5716940    4.4163913 
H     2.5519457   -3.5039531    2.7584321 
H     4.2439669    0.4267893   -1.3102659 
H    -3.4225599    4.0080109   -1.6090631 
H    -2.9196271    3.3724799   -3.1926083 
H    -1.8489102    4.4925386   -2.3083586 
H    -1.2388761    1.5509933   -3.4152866 
H    -0.3124812    0.9763873   -1.9996103 
H    -0.0087478    2.6080339   -2.6713309 
H     0.0352983    2.7346443    4.3511994 
H     0.0392415    1.3034444    5.4114530 
H     0.8121732    1.2265433    3.8088233 
H    -0.8659798   -0.8471525    3.0593763 
H    -1.2664097   -0.7776990    4.7952633 
H    -2.5614645   -0.6802567    3.5727437 
H    -0.2062801   -2.5401301    1.7881766 
H     0.0827853   -3.7090495    3.1084219 
H     0.5423006   -4.1240622    1.4355281 
H     2.8828669   -1.2783749    3.7692067 
H     1.3949274   -2.0040116    4.4445473 
H     1.2892665   -0.7344248    3.1985458 
H     1.8639809    0.8938338   -3.2117063 
H     3.1881536    2.0472687   -2.8923517 
H     2.0450475    1.6293392   -1.5928265 
H     3.6142801   -0.8916373   -4.0258213 
H     4.8230892    0.3991838   -3.7658396 
H     5.0565513   -1.1984572   -3.0161706 
H     0.7705361    3.8177989    1.8827462 
H     4.2939182    0.3941042    1.0198738 
H     3.1439184    4.3396709    2.3448028 
H     4.9137173    2.6122678    1.9425383 
