101
Energy =
C    -2.7768599   -1.3926608   -0.2625176 
C    -2.1094741   -1.7548170   -1.4554123 
C    -0.9795523   -2.6301609   -1.4220631 
H    -2.3548124   -1.2334104   -2.3893274 
Pd   -0.5727524   -0.8002824   -0.2029303 
P     1.7293577   -0.8345317    0.0677507 
P    -0.5470197    1.2810434    0.8076095 
H    -2.6283246   -2.0525415    0.6063842 
H    -0.9646964   -3.4010841   -0.6393734 
C    -6.0511707    1.3486951    0.2688571 
C    -5.5282303    0.6296801    1.3542832 
C    -4.4771503   -0.2736667    1.1537229 
C    -3.9164356   -0.4702035   -0.1307633 
C    -4.4779460    0.2378294   -1.2192648 
C    -5.5296807    1.1382139   -1.0192061 
H    -6.8737082    2.0549831    0.4200847 
H    -5.9438639    0.7666022    2.3579044 
H    -4.0828762   -0.8469874    2.0006126 
H    -4.0999638    0.0777236   -2.2339091 
H    -5.9504036    1.6766781   -1.8745822 
C     1.5726694   -3.4423816   -4.7990254 
C     1.4445517   -4.3751684   -3.7587885 
C     0.5972258   -4.1105548   -2.6747981 
C    -0.1362754   -2.9046309   -2.6020502 
C     0.0051468   -1.9727617   -3.6589228 
C     0.8443136   -2.2420175   -4.7454809 
H     2.2349040   -3.6478520   -5.6460059 
H     2.0011792   -5.3174207   -3.7948735 
H     0.4915102   -4.8517216   -1.8745709 
H    -0.5216648   -1.0136615   -3.6145691 
H     0.9416866   -1.5056140   -5.5500270 
C    -1.2895796    2.7697116   -0.1152437 
C    -1.6170001    1.5367710    2.3299872 
C     2.4808251   -2.1609157    1.1795529 
C     2.7950155   -1.3100215   -1.4338510 
C    -2.4043993    3.3047855    0.8212326 
C    -2.0281291    3.0200117    2.2824139 
C     2.8502237   -3.2539254    0.1618963 
C     3.6034066   -2.5515497   -0.9749995 
C     1.2239102    1.7376841    1.0966481 
C     2.2304319    0.7837267    0.7961306 
C    -1.7595476    2.4560111   -1.5552174 
C    -1.2034834    0.9096825    3.6816754 
C     1.7132049   -2.5971533    2.4460293 
C     3.6278443   -0.2093221   -2.1323718 
C    -2.4892886    3.6608541   -2.1770658 
C    -0.6031489    1.9952206   -2.4502831 
C    -2.4311129    0.8097063    4.6102891 
C    -0.0473859    1.6317962    4.3922541 
C     0.3046103   -3.1463600    2.1769962 
C     1.6843152   -1.4581446    3.4762589 
C     2.7552903    0.9613404   -2.6057496 
C     4.4016553   -0.8136581   -3.3224808 
C     1.6029871    2.9981056    1.6036453 
C     3.5815007    1.0908604    1.0556660 
C     2.9502140    3.2998312    1.8372277 
C     3.9406021    2.3411583    1.5735734 
H    -0.4652851    3.5076017   -0.1642549 
H    -2.5050712    0.9697768    1.9812891 
H     3.4287132   -1.6953023    1.5178263 
H     2.0262073   -1.6474662   -2.1527685 
H    -2.5700593    4.3804605    0.6422380 
H    -3.3512840    2.7824936    0.5871135 
H    -2.8811002    3.2105884    2.9570866 
H    -1.2026051    3.6749568    2.6167699 
H     3.4629856   -4.0377878    0.6412695 
H     1.9389864   -3.7415514   -0.2302141 
H     3.7684119   -3.2280500   -1.8297787 
H     4.5971926   -2.2296115   -0.6086327 
H    -2.4849613    1.6252570   -1.4764479 
H    -0.8803165   -0.1254150    3.4592559 
H     2.3146264   -3.4246809    2.8735072 
H     4.3713276    0.1791185   -1.4097256 
H    -3.4020497    3.9261585   -1.6175119 
H    -2.7900405    3.4304852   -3.2139909 
H    -1.8325405    4.5499289   -2.2076465 
H    -0.9628216    1.7519858   -3.4656112 
H    -0.1243936    1.0867785   -2.0375597 
H     0.1714960    2.7775403   -2.5449043 
H    -3.2613078    0.2640603    4.1281191 
H    -2.1683217    0.2767623    5.5402863 
H    -2.8025803    1.8101441    4.8952513 
H    -0.3255381    2.6681525    4.6548912 
H     0.2052839    1.1090184    5.3307578 
H     0.8642709    1.6694772    3.7752436 
H    -0.3519761   -2.3489287    1.7693179 
H    -0.1523827   -3.5142850    3.1114216 
H     0.3147914   -3.9807840    1.4546954 
H     2.7031369   -1.1280505    3.7438585 
H     1.1684642   -1.7667029    4.4016054 
H     1.1512826   -0.5830486    3.0673422 
H     1.9883799    0.6097951   -3.3189611 
H     3.3685570    1.7242457   -3.1153414 
H     2.2415508    1.4554555   -1.7643286 
H     3.7032406   -1.2762810   -4.0434055 
H     4.9658117   -0.0246873   -3.8491239 
H     5.1236780   -1.5835078   -3.0032213 
H     0.8413891    3.7495416    1.8329133 
H     4.3618444    0.3507077    0.8498345 
H     3.2266625    4.2821143    2.2332229 
H     4.9936984    2.5700113    1.7653502 
