101
Energy =
C    -2.8249249   -1.2860559   -0.1435182 
C    -2.1687620   -1.7570067   -1.3026560 
C    -1.0298297   -2.6153871   -1.2050106 
H    -2.4355069   -1.3339256   -2.2791743 
Pd   -0.6126835   -0.6822522   -0.1599422 
P     1.6855424   -0.7444720    0.1376611 
P    -0.5496741    1.4350815    0.7856016 
H    -2.6566261   -1.8509318    0.7867679 
H    -0.9998855   -3.3164101   -0.3608865 
C    -6.1299057    1.4537970    0.1276344 
C    -5.6241124    0.8200734    1.2725938 
C    -4.5613409   -0.0846568    1.1598214 
C    -3.9699306   -0.3645767   -0.0957934 
C    -4.5117293    0.2601333   -1.2433706 
C    -5.5764794    1.1597000   -1.1306649 
H    -6.9628345    2.1592417    0.2103729 
H    -6.0648469    1.0225473    2.2541933 
H    -4.1845078   -0.5942982    2.0542126 
H    -4.1032137    0.0386583   -2.2334843 
H    -5.9831641    1.6323509   -2.0306486 
C     1.5130802   -3.6923342   -4.5130708 
C     0.7578819   -2.5088742   -4.5687963 
C    -0.0809395   -2.1552743   -3.5061663 
C    -0.1953020   -2.9848814   -2.3645662 
C     0.5620341   -4.1778240   -2.3291862 
C     1.4097940   -4.5258153   -3.3888514 
H     2.1752692   -3.9628965   -5.3416289 
H     0.8336275   -1.8512010   -5.4410101 
H    -0.6314894   -1.2092777   -3.5499292 
H     0.4751612   -4.8413739   -1.4613129 
H     1.9864618   -5.4553548   -3.3399075 
C    -1.1016853    2.9753795   -0.1599836 
C    -1.7248978    1.7481987    2.2333980 
C     2.5209373   -2.0330676    1.2420018 
C     2.7217050   -1.1807680   -1.3830415 
C    -2.5237312    3.2196651    0.3833491 
C    -2.4279449    3.0868932    1.9117128 
C     3.0535657   -3.0620620    0.2252748 
C     3.7198255   -2.2590759   -0.9020894 
C     1.2033294    1.8051645    1.2338450 
C     2.2043487    0.8647821    0.8824364 
C    -0.8633579    3.0038907   -1.6866193 
C    -1.1437148    1.5743779    3.6522621 
C     1.7573967   -2.5442761    2.4868259 
C     3.3004649    0.0007210   -2.1902220 
C    -1.6167156    1.9135430   -2.4588509 
C    -1.1800055    4.4018640   -2.2536199 
C    -0.5461366    0.1695873    3.8265169 
C    -2.2209017    1.8486589    4.7190612 
C     2.6586927   -3.4813611    3.3157819 
C     0.4068245   -3.2058744    2.1814470 
C     2.1819384    0.9507265   -2.6445755 
C     4.1039652   -0.5146641   -3.4000886 
C     1.5755573    3.0109468    1.8628163 
C     3.5564078    1.1574741    1.1548972 
C     2.9216134    3.2864138    2.1352479 
C     3.9136932    2.3618751    1.7743494 
H    -0.4526286    3.7614653    0.2744889 
H    -2.4717175    0.9467626    2.0772702 
H     3.4003218   -1.4773363    1.6234565 
H     1.9713946   -1.6831683   -2.0226584 
H    -2.8897418    4.2172286    0.0861221 
H    -3.2341333    2.4742536   -0.0189993 
H    -3.4256324    3.1159394    2.3817579 
H    -1.8430034    3.9308854    2.3263170 
H     3.7664870   -3.7535259    0.7058105 
H     2.2270243   -3.6705418   -0.1840843 
H     4.0095164   -2.9099119   -1.7441600 
H     4.6432012   -1.7796640   -0.5225005 
H     0.2198642    2.8330535   -1.8302603 
H    -0.3316324    2.3150488    3.7899362 
H     1.5570668   -1.6532391    3.1107006 
H     3.9923192    0.5664114   -1.5357553 
H    -1.3779234    0.9101201   -2.0545206 
H    -1.3317529    1.9264484   -3.5249147 
H    -2.7077921    2.0612587   -2.3952945 
H    -0.8843799    4.4612194   -3.3152629 
H    -0.6382359    5.1933057   -1.7056958 
H    -2.2605600    4.6235040   -2.1963435 
H     0.2572646   -0.0164355    3.0925149 
H    -0.1167506    0.0401931    4.8345515 
H    -1.3182203   -0.6087900    3.6816826 
H    -3.0817217    1.1662771    4.5910609 
H    -1.8097233    1.6877071    5.7305228 
H    -2.5957967    2.8846960    4.6707890 
H     2.8381875   -4.4364414    2.7910104 
H     2.1797633   -3.7176923    4.2814347 
H     3.6386982   -3.0176373    3.5274884 
H    -0.2767565   -2.4904373    1.6860042 
H    -0.0760505   -3.5444516    3.1139730 
H     0.5221248   -4.0864466    1.5236893 
H     1.4650517    0.4255784   -3.3005997 
H     2.5912934    1.8118342   -3.1999365 
H     1.6175274    1.3451177   -1.7814094 
H     3.4668978   -1.1422162   -4.0495367 
H     4.4775699    0.3324535   -4.0009798 
H     4.9756216   -1.1156616   -3.0910037 
H     0.8110349    3.7440818    2.1418877 
H     4.3394068    0.4406672    0.8848790 
H     3.1968716    4.2247701    2.6271171 
H     4.9673066    2.5777997    1.9780336 
