101
Energy =
C    -2.7319032   -1.3687656   -0.0177785 
C    -2.0938470   -1.8560025   -1.1813066 
C    -0.9244380   -2.6724079   -1.0811529 
H    -2.3913858   -1.4657170   -2.1624272 
Pd   -0.5387784   -0.7173113   -0.1140380 
P     1.7737910   -0.7789013    0.0535367 
P    -0.4316005    1.4345197    0.7752618 
H    -2.5246529   -1.9011131    0.9237248 
H    -0.8626766   -3.3456703   -0.2146436 
C    -6.0828723    1.3172653    0.2415395 
C    -5.4862498    0.7959115    1.3995975 
C    -4.4118667   -0.0956755    1.2931896 
C    -3.8996653   -0.4745677    0.0294229 
C    -4.5328627    0.0356965   -1.1280084 
C    -5.6087384    0.9227492   -1.0212094 
H    -6.9246465    2.0126452    0.3201278 
H    -5.8625041    1.0786539    2.3882461 
H    -3.9567654   -0.5101057    2.1998237 
H    -4.1855050   -0.2635832   -2.1213115 
H    -6.0857784    1.3065416   -1.9288938 
C     1.6374053   -3.7474796   -4.3787652 
C     0.8597715   -2.5791910   -4.4488020 
C     0.0131943   -2.2298150   -3.3908799 
C    -0.0824176   -3.0450299   -2.2377398 
C     0.6970898   -4.2221606   -2.1872674 
C     1.5492361   -4.5685673   -3.2446678 
H     2.3035163   -4.0166515   -5.2046594 
H     0.9218071   -1.9311840   -5.3293987 
H    -0.5584311   -1.2973443   -3.4477972 
H     0.6270059   -4.8761190   -1.3107684 
H     2.1423322   -5.4870857   -3.1846201 
C    -0.8080352    2.8637611   -0.4064882 
C    -1.6510150    2.0657215    2.0650192 
C     2.5997753   -2.2470815    0.9408847 
C     2.8652492   -0.8899530   -1.4835507 
C    -1.0316080    4.0376889    0.5659997 
C    -1.9253236    3.5672217    1.7324103 
C     3.5446325   -2.8603365   -0.1219467 
C     4.0647255   -1.7581273   -1.0491576 
C     1.3035672    1.6851665    1.3709419 
C     2.2830087    0.7197224    1.0123766 
C    -2.0303345    2.4920059   -1.3023406 
C    -1.3544815    1.7664161    3.5552324 
C     1.6417353   -3.2737822    1.5898532 
C     3.2182910    0.4481236   -2.1686423 
C    -2.7879111    3.7252884   -1.8267800 
C    -1.5889750    1.6088908   -2.4791309 
C    -0.8867876    0.3223514    3.7784700 
C    -2.6020278    2.0749164    4.4066838 
C     0.6900600   -2.6262900    2.6023830 
C     2.4364387   -4.4200569    2.2461875 
C     1.9534376    1.2182797   -2.5664626 
C     4.1159489    0.2102091   -3.3987649 
C     1.6877792    2.7836314    2.1688940 
C     3.6193678    0.9031557    1.4232337 
C     3.0174213    2.9472055    2.5780605 
C     3.9884252    2.0117398    2.1952273 
H     0.0736657    3.0526821   -1.0434065 
H    -2.5484183    1.4782339    1.7912734 
H     3.1996534   -1.7776749    1.7447184 
H     2.2382994   -1.4858337   -2.1767644 
H    -0.0520534    4.3736566    0.9454246 
H    -1.4648847    4.9084626    0.0464886 
H    -2.9899439    3.6863160    1.4674107 
H    -1.7495023    4.1943075    2.6237822 
H     4.3735714   -3.4010148    0.3650239 
H     2.9770812   -3.5961616   -0.7205960 
H     4.5653355   -2.1920050   -1.9314117 
H     4.8166888   -1.1314090   -0.5322154 
H    -2.7436528    1.9083099   -0.6886547 
H    -0.5414197    2.4420493    3.8854162 
H     1.0341780   -3.7090430    0.7731993 
H     3.7859335    1.0620337   -1.4411715 
H    -3.2557602    4.3078569   -1.0156177 
H    -3.5968977    3.4013219   -2.5040464 
H    -2.1190975    4.3965082   -2.3960787 
H    -2.4602761    1.2688415   -3.0641886 
H    -1.0416905    0.7145548   -2.1217827 
H    -0.9186258    2.1648288   -3.1588004 
H     0.0768677    0.1319608    3.2773816 
H    -0.7500792    0.1132544    4.8533045 
H    -1.6247110   -0.4005431    3.3846872 
H    -3.4386722    1.4090032    4.1253625 
H    -2.3884083    1.9169045    5.4777580 
H    -2.9433407    3.1164686    4.2814143 
H     1.2478913   -2.1394756    3.4226725 
H     0.0143371   -3.3764440    3.0485197 
H     0.0621519   -1.8559907    2.1135034 
H     3.0428804   -4.9790281    1.5142233 
H     1.7476418   -5.1365884    2.7259731 
H     3.1144603   -4.0301479    3.0275993 
H     1.3527881    0.6383362   -3.2892055 
H     2.2037947    2.1891864   -3.0273793 
H     1.3154716    1.4152741   -1.6886946 
H     3.6165441   -0.4618929   -4.1209529 
H     4.3233844    1.1656151   -3.9108519 
H     5.0852035   -0.2390536   -3.1257656 
H     0.9437545    3.5174602    2.4884683 
H     4.3826403    0.1685385    1.1487662 
H     3.2923670    3.8049443    3.2000705 
H     5.0299209    2.1359937    2.5082148 
