101
Energy =
C    -2.8425901   -1.3399317   -0.2348269 
C    -2.1545274   -1.7231285   -1.4102085 
C    -1.0018477   -2.5657459   -1.3156267 
H    -2.3934396   -1.2333930   -2.3626380 
Pd   -0.6551558   -0.7039052   -0.1676257 
P     1.6509243   -0.7887367    0.1200068 
P    -0.6198972    1.4148818    0.7994129 
H    -2.6796706   -1.9637506    0.6580208 
H    -1.0013449   -3.3078327   -0.5050020 
C    -6.1790647    1.3478706    0.1576410 
C    -5.5607682    0.7955995    1.2907093 
C    -4.4907144   -0.0940152    1.1407463 
C    -4.0051731   -0.4401526   -0.1421215 
C    -4.6566039    0.1023198   -1.2740029 
C    -5.7294502    0.9881626   -1.1234756 
H    -7.0190771    2.0405863    0.2709931 
H    -5.9187190    1.0533447    2.2928418 
H    -4.0166645   -0.5319393    2.0267996 
H    -4.3295953   -0.1738265   -2.2815441 
H    -6.2224407    1.3967357   -2.0114899 
C     1.8203784   -3.3846176   -4.4686765 
C     1.6836678   -4.2633751   -3.3835620 
C     0.7419691   -4.0016760   -2.3793874 
C    -0.0786234   -2.8520853   -2.4329003 
C     0.0666455   -1.9787788   -3.5366045 
C     1.0015794   -2.2449632   -4.5428407 
H     2.5566110   -3.5862509   -5.2532269 
H     2.3081918   -5.1606633   -3.3213638 
H     0.6351299   -4.6994546   -1.5411748 
H    -0.5365450   -1.0670074   -3.5944955 
H     1.1010555   -1.5531124   -5.3857367 
C    -1.4333165    2.8289477   -0.1876459 
C    -1.4679779    1.8622463    2.4444926 
C     2.3229489   -2.2614217    1.1324812 
C     2.8959351   -0.9907933   -1.3002106 
C    -2.4984697    3.4031778    0.7798040 
C    -2.0081440    3.2903877    2.2219112 
C     3.4194810   -2.8913044    0.2318211 
C     4.0310129   -1.8415801   -0.6928778 
C     1.1650757    1.8266423    1.0676581 
C     2.1311601    0.7889204    0.9623242 
C    -2.0498811    2.4208297   -1.5502495 
C    -0.6428890    1.6866427    3.7406972 
C     1.2782678   -3.3275005    1.5641121 
C     3.3937621    0.2875904   -2.0150241 
C    -2.8170123    3.5993909   -2.1817440 
C    -1.0307246    1.8582761   -2.5431189 
C    -0.1199857    0.2563044    3.9028239 
C    -1.4724361    2.0999585    4.9733686 
C     0.1489220   -2.7864389    2.4451583 
C     1.9720975   -4.5068607    2.2779337 
C     2.2453107    1.1713775   -2.5064360 
C     4.3227501   -0.0873971   -3.1883519 
C     1.5704419    3.1031325    1.5061181 
C     3.4561435    1.0375648    1.3732075 
C     2.8996317    3.3451995    1.8781694 
C     3.8378540    2.3042248    1.8354280 
H    -0.6295028    3.5734893   -0.3533165 
H    -2.3275805    1.1636299    2.4712787 
H     2.7760185   -1.8072030    2.0353933 
H     2.3329663   -1.6094635   -2.0266040 
H    -2.7352103    4.4475197    0.5160749 
H    -3.4300584    2.8168586    0.6645573 
H    -2.8235033    3.5096516    2.9324607 
H    -1.2061853    4.0267335    2.4223423 
H     4.1903034   -3.3838918    0.8478459 
H     2.9464762   -3.6751903   -0.3883994 
H     4.6174365   -2.3247895   -1.4927563 
H     4.7313365   -1.1869073   -0.1402939 
H    -2.7842332    1.6248482   -1.3312950 
H     0.2285608    2.3668095    3.6771730 
H     0.8292504   -3.7167999    0.6296558 
H     3.9865308    0.8702897   -1.2827403 
H    -3.6690068    3.9246934   -1.5624257 
H    -3.2191213    3.3030337   -3.1661979 
H    -2.1510626    4.4680955   -2.3389238 
H    -1.5309982    1.5467468   -3.4773791 
H    -0.5221743    0.9712608   -2.1206820 
H    -0.2613821    2.6055388   -2.8057682 
H     0.5370827   -0.0278127    3.0643551 
H     0.4624752    0.1518848    4.8343357 
H    -0.9556976   -0.4652057    3.9420243 
H    -2.3954510    1.4954694    5.0478248 
H    -0.8881939    1.9362520    5.8952180 
H    -1.7599654    3.1639625    4.9468474 
H     0.5361039   -2.4358824    3.4168695 
H    -0.5989022   -3.5743997    2.6426820 
H    -0.3737889   -1.9389642    1.9571526 
H     2.6926723   -5.0302181    1.6286178 
H     1.2210473   -5.2464544    2.6047610 
H     2.5114969   -4.1558903    3.1769285 
H     1.5968945    0.6175182   -3.2069642 
H     2.6312560    2.0634299   -3.0291935 
H     1.6243797    1.5206658   -1.6658535 
H     3.7912247   -0.7303117   -3.9138224 
H     4.6520135    0.8233937   -3.7175463 
H     5.2270907   -0.6220268   -2.8535712 
H     0.8413287    3.9170672    1.5713344 
H     4.2043766    0.2406042    1.3229072 
H     3.1975254    4.3426380    2.2166685 
H     4.8719723    2.4806513    2.1479329 
