101
Energy =
C    -2.9072752   -1.1100432   -0.3810681 
C    -2.1442396   -1.6685330   -1.4309644 
C    -1.0801862   -2.5789479   -1.1657274 
H    -2.2689087   -1.2735823   -2.4464555 
Pd   -0.6807639   -0.6154282   -0.1581587 
P     1.6204674   -0.6779874    0.1836209 
P    -0.6441086    1.4937068    0.8294650 
H    -2.8854019   -1.6291434    0.5896246 
H    -1.1812582   -3.2153501   -0.2763131 
C    -6.0858655    1.7653426   -0.7663492 
C    -5.6769664    1.3116195    0.4975029 
C    -4.6597429    0.3556382    0.6031917 
C    -4.0112554   -0.1496647   -0.5480638 
C    -4.4567172    0.2942990   -1.8151697 
C    -5.4815777    1.2402727   -1.9209387 
H    -6.8839934    2.5094211   -0.8530914 
H    -6.1607526    1.6947728    1.4019406 
H    -4.3599694   -0.0130357    1.5906512 
H    -3.9993282   -0.0979906   -2.7283799 
H    -5.8127758    1.5712879   -2.9105342 
C     1.7001403   -4.0783430   -4.0947150 
C     1.5104484   -4.7479414   -2.8759798 
C     0.5887255   -4.2603643   -1.9407304 
C    -0.1577505   -3.0876920   -2.1977218 
C     0.0427945   -2.4254788   -3.4323612 
C     0.9560595   -2.9190885   -4.3707118 
H     2.4186534   -4.4590298   -4.8275251 
H     2.0776161   -5.6583399   -2.6558588 
H     0.4359155   -4.7943735   -0.9962879 
H    -0.5053049   -1.5039617   -3.6547734 
H     1.0950706   -2.3916474   -5.3200508 
C    -1.3908749    3.0854241    0.1020184 
C    -1.5838873    1.6631567    2.4494158 
C     2.5209209   -1.8908206    1.3276404 
C     2.6767802   -1.1033705   -1.3260352 
C    -2.1915106    3.7394761    1.2703165 
C    -1.7472080    3.1809718    2.6333447 
C     3.1909806   -2.8784505    0.3515849 
C     3.7807662   -2.0498259   -0.7982292 
C     1.1341509    1.9534453    1.0834369 
C     2.1282233    0.9789258    0.8187349 
C    -2.2386737    2.9035684   -1.1799368 
C    -1.1648290    0.8313992    3.6824319 
C     1.7362339   -2.4710025    2.5280256 
C     3.1429786    0.0831324   -2.1990757 
C    -2.7891620    4.2613476   -1.6581859 
C    -1.4699529    2.2149034   -2.3158976 
C     0.2842928    1.0570439    4.1439500 
C    -1.4685559   -0.6607760    3.4648097 
C     2.7053116   -3.1090932    3.5424698 
C     0.6301077   -3.4561616    2.1274707 
C     1.9562242    0.9459741   -2.6550514 
C     3.9455798   -0.4271229   -3.4120636 
C     1.5334248    3.2357938    1.5161249 
C     3.4867391    1.2940059    1.0265499 
C     2.8861892    3.5385446    1.7143348 
C     3.8661517    2.5642675    1.4763601 
H    -0.5095236    3.7027748   -0.1537588 
H    -2.5718134    1.2815884    2.1185752 
H     3.3205331   -1.2523017    1.7502002 
H     1.9761092   -1.7100469   -1.9304405 
H    -2.1045222    4.8381751    1.2292793 
H    -3.2599349    3.4922344    1.1284870 
H    -2.5014490    3.3927061    3.4128572 
H    -0.8032597    3.6382885    2.9785583 
H     3.9660805   -3.4710621    0.8676787 
H     2.4465208   -3.5874571   -0.0512511 
H     4.1469610   -2.6981493   -1.6119399 
H     4.6456822   -1.4602934   -0.4362414 
H    -3.1003841    2.2690425   -0.9093488 
H    -1.8275297    1.1855990    4.4976546 
H     1.2569345   -1.6119614    3.0331959 
H     3.8153538    0.7180044   -1.5896815 
H    -3.4249227    4.7458015   -0.8983428 
H    -3.4046707    4.1212797   -2.5634688 
H    -1.9658660    4.9550374   -1.9114721 
H    -2.1207518    2.0848853   -3.1977124 
H    -1.1087352    1.2139935   -2.0105471 
H    -0.5929701    2.8114613   -2.6270828 
H     0.5189483    2.1284352    4.2641607 
H     0.4539320    0.5635007    5.1162259 
H     1.0077612    0.6377884    3.4239308 
H    -0.9288952   -1.0470054    2.5793236 
H    -1.1634762   -1.2635500    4.3371233 
H    -2.5471455   -0.8294910    3.2965868 
H     3.2077209   -3.9960933    3.1169891 
H     2.1584872   -3.4376340    4.4431897 
H     3.4847009   -2.3939212    3.8600866 
H    -0.0664888   -2.9946852    1.4073791 
H     0.0465792   -3.7627975    3.0121041 
H     1.0468856   -4.3697465    1.6678930 
H     1.2331366    0.3441840   -3.2341580 
H     2.2967209    1.7785525   -3.2943375 
H     1.4185150    1.3836361   -1.7961687 
H     3.3329024   -1.1151831   -4.0222950 
H     4.2513940    0.4184990   -4.0520391 
H     4.8600838   -0.9628833   -3.1068060 
H     0.7886430    4.0141476    1.7020939 
H     4.2603789    0.5450118    0.8279123 
H     3.1742425    4.5383658    2.0544005 
H     4.9249815    2.7961189    1.6285952 
