101
Energy =
C    -2.8788128   -1.3290782   -0.0528818 
C    -2.2338780   -1.8144018   -1.2136405 
C    -1.0486681   -2.6065575   -1.1067434 
H    -2.5478547   -1.4485460   -2.1991016 
Pd   -0.7024376   -0.6281430   -0.1630438 
P     1.6061410   -0.6356824    0.0420338 
P    -0.6828739    1.4798340    0.8093838 
H    -2.6611964   -1.8538727    0.8905640 
H    -0.9665222   -3.2560466   -0.2239213 
C    -6.3121167    1.2504838    0.2096959 
C    -5.7487177    0.6817872    1.3619838 
C    -4.6443848   -0.1719100    1.2530200 
C    -4.0677833   -0.4637358   -0.0064373 
C    -4.6669916    0.0931586   -1.1602791 
C    -5.7735951    0.9415693   -1.0512608 
H    -7.1770405    1.9166058    0.2897950 
H    -6.1766387    0.8952131    2.3469384 
H    -4.2221674   -0.6312939    2.1542388 
H    -4.2694692   -0.1396798   -2.1524256 
H    -6.2240272    1.3623760   -1.9561167 
C     1.4185404   -3.7913964   -4.4371051 
C     1.4053571   -4.5445181   -3.2538382 
C     0.5896384   -4.1579437   -2.1819558 
C    -0.2216317   -3.0034793   -2.2644785 
C    -0.1859771   -2.2456135   -3.4593794 
C     0.6145054   -2.6430001   -4.5355108 
H     2.0503831   -4.0950499   -5.2777657 
H     2.0233258   -5.4444367   -3.1685485 
H     0.5686924   -4.7660781   -1.2706451 
H    -0.7747088   -1.3251962   -3.5403926 
H     0.6217197   -2.0467566   -5.4537675 
C    -1.3352692    2.9863449   -0.1244043 
C    -1.8243551    1.7610082    2.3056008 
C     2.4763090   -2.0449382    0.9859241 
C     2.6637660   -0.8518399   -1.5017585 
C    -2.7667046    3.1236633    0.4254584 
C    -2.6564109    3.0186228    1.9518122 
C     3.5574991   -2.5824298    0.0079510 
C     3.9679264   -1.4899248   -0.9874996 
C     1.0673651    1.8624095    1.2508463 
C     2.0725180    0.9003063    0.9700024 
C    -1.1475633    3.0294965   -1.6550906 
C    -1.1884468    1.7588638    3.7148273 
C     1.5484986   -3.1533300    1.5419498 
C     2.7711326    0.2905938   -2.5397098 
C     0.3444843    3.0130792   -2.0092874 
C    -1.9096290    1.9310191   -2.4087269 
C    -0.4357989    0.4520634    4.0007176 
C    -2.2678139    2.0046002    4.7884297 
C     0.4980853   -2.6095825    2.5178447 
C     2.3736204   -4.2695630    2.2131483 
C     3.3989487   -0.2473362   -3.8423401 
C     3.5347039    1.5353302   -2.0578400 
C     1.4177504    3.0670295    1.8937393 
C     3.3948354    1.1478367    1.3943504 
C     2.7396285    3.3081053    2.2880588 
C     3.7264715    2.3397917    2.0497168 
H    -0.7375704    3.8184740    0.2991645 
H    -2.4947964    0.8842474    2.2373530 
H     2.9620343   -1.5389318    1.8420762 
H     2.0826938   -1.6621407   -1.9897445 
H    -3.2101574    4.0841666    0.1083791 
H    -3.4157287    2.3182865    0.0362154 
H    -3.6513753    2.9609952    2.4242302 
H    -2.1518606    3.9192813    2.3518285 
H     4.4235732   -2.9714735    0.5693058 
H     3.1269010   -3.4284573   -0.5595959 
H     4.5449127   -1.9189370   -1.8249083 
H     4.6169719   -0.7337709   -0.5098297 
H    -1.5668785    4.0060748   -1.9710608 
H    -0.4644068    2.5947767    3.7690571 
H     1.0232446   -3.5964409    0.6741854 
H     1.7322382    0.5875660   -2.7784764 
H     0.8993547    3.8182253   -1.4968594 
H     0.5030254    3.1213586   -3.0958162 
H     0.7895485    2.0514394   -1.6996646 
H    -1.7466824    2.0230125   -3.4964221 
H    -2.9933617    1.9815820   -2.2199582 
H    -1.5505823    0.9294617   -2.0940623 
H     0.3842995    0.2885050    3.2816181 
H     0.0049333    0.4660779    5.0121947 
H    -1.1196778   -0.4142132    3.9420664 
H    -3.0507893    1.2249739    4.7422343 
H    -1.8181541    1.9711043    5.7957309 
H    -2.7553658    2.9868389    4.6729052 
H     0.9763462   -2.1642411    3.4081867 
H    -0.1749493   -3.4145124    2.8610061 
H    -0.1251762   -1.8275187    2.0404134 
H     3.0609452   -4.7646289    1.5072255 
H     1.7036389   -5.0439258    2.6250111 
H     2.9734718   -3.8643172    3.0487939 
H     4.4686783   -0.4847620   -3.7035145 
H     3.3304787    0.5122295   -4.6402663 
H     2.8865891   -1.1601485   -4.1900274 
H     4.5786563    1.2872698   -1.7951481 
H     3.5675456    2.2898052   -2.8626700 
H     3.0663591    2.0056506   -1.1796901 
H     0.6516307    3.8231785    2.0965161 
H     4.1810763    0.4121452    1.2019024 
H     2.9970327    4.2459382    2.7903977 
H     4.7589720    2.5159232    2.3675819 
