101
Energy =
C    -2.8812857   -1.2535439   -0.0296125 
C    -2.2314640   -1.7755270   -1.1754706 
C    -1.1227747   -2.6630886   -1.0332245 
H    -2.4746089   -1.3777992   -2.1691193 
Pd   -0.6836145   -0.6957100   -0.0589929 
P     1.6413013   -0.6395398    0.0955600 
P    -0.6668151    1.4414527    0.8268216 
H    -2.7482383   -1.8140171    0.9090238 
H    -1.1217894   -3.3152461   -0.1481866 
C    -6.1645746    1.5267685    0.1468677 
C    -5.6784743    0.9097068    1.3095464 
C    -4.6183536   -0.0017163    1.2282042 
C    -4.0125230   -0.3097059   -0.0132989 
C    -4.5321093    0.3016641   -1.1785824 
C    -5.5927143    1.2103528   -1.0972322 
H    -6.9942972    2.2383117    0.2056782 
H    -6.1316517    1.1320365    2.2811054 
H    -4.2561414   -0.4963315    2.1369494 
H    -4.1142557    0.0596794   -2.1607176 
H    -5.9807538    1.6713368   -2.0113027 
C     1.2613895   -4.0971766   -4.3226100 
C     0.7178606   -2.8021446   -4.3653803 
C    -0.0607599   -2.3283582   -3.3036801 
C    -0.3156408   -3.1415197   -2.1743370 
C     0.2362383   -4.4425933   -2.1458967 
C     1.0149875   -4.9160315   -3.2103538 
H     1.8730506   -4.4647424   -5.1527234 
H     0.9095675   -2.1560258   -5.2286005 
H    -0.4559160   -1.3060429   -3.3349947 
H     0.0411994   -5.0907702   -1.2840421 
H     1.4289518   -5.9289313   -3.1718138 
C    -1.4070866    2.8296264   -0.2246639 
C    -1.6890318    1.8315465    2.3662932 
C     2.5763425   -2.0409863    0.9814798 
C     2.6200671   -0.7439345   -1.5355407 
C    -2.6341097    3.2966853    0.5935726 
C    -2.2937999    3.2243374    2.0868081 
C     3.7279048   -2.3583892   -0.0060700 
C     3.1722648   -2.1857058   -1.4250393 
C     1.0818580    1.8897976    1.2006128 
C     2.0875736    0.9106232    0.9959662 
C    -1.7155694    2.4074831   -1.6811086 
C    -0.9954154    1.6368256    3.7326428 
C     1.6720650   -3.2604580    1.3236298 
C     3.6887009    0.3559587   -1.8025762 
C    -2.5266248    3.4868890   -2.4201354 
C    -0.4385093    2.0551053   -2.4539820 
C    -0.4196312    0.2197816    3.8746940 
C    -1.9719784    1.9483583    4.8835230 
C     0.5537463   -2.8814191    2.3058997 
C     2.4925279   -4.4281344    1.9071329 
C     3.0450556    1.7225394   -2.0875671 
C     4.6033806   -0.0328105   -2.9833250 
C     1.4301915    3.1356837    1.7593474 
C     3.4032755    1.1709830    1.4296428 
C     2.7503174    3.3966004    2.1498284 
C     3.7322097    2.4049002    2.0055874 
H    -0.6440228    3.6333451   -0.2325143 
H    -2.5094251    1.0914811    2.2871989 
H     2.9570026   -1.6202006    1.9306004 
H     1.8634102   -0.6924530   -2.3382725 
H    -2.9318434    4.3161048    0.2955163 
H    -3.4894532    2.6295869    0.3787422 
H    -3.1933504    3.3866985    2.7050299 
H    -1.5679739    4.0145986    2.3598743 
H     4.5694870   -1.6597352    0.1552490 
H     4.1272732   -3.3718780    0.1591783 
H     2.3525648   -2.9056996   -1.5966036 
H     3.9268491   -2.3843423   -2.2019775 
H    -2.3406851    1.4963859   -1.6196310 
H    -0.1558820    2.3562494    3.7955434 
H     1.2074770   -3.6070793    0.3805059 
H     4.3319220    0.4586832   -0.9090050 
H    -3.5127394    3.6512096   -1.9542534 
H    -2.6988425    3.1840251   -3.4677482 
H    -1.9854606    4.4510110   -2.4341763 
H    -0.6774255    1.7123101   -3.4760938 
H     0.1181860    1.2429037   -1.9510712 
H     0.2318476    2.9290631   -2.5369491 
H     0.3514720    0.0184220    3.1113815 
H     0.0473568    0.0810011    4.8647200 
H    -1.2128618   -0.5425134    3.7638897 
H    -2.8592270    1.2898047    4.8355054 
H    -1.4810609    1.7817682    5.8577766 
H    -2.3204908    2.9943491    4.8596939 
H     0.9718118   -2.5498459    3.2734450 
H    -0.1087766   -3.7429672    2.4990994 
H    -0.0734730   -2.0572913    1.9099676 
H     3.2159182   -4.8413842    1.1853029 
H     1.8192426   -5.2505671    2.2043846 
H     3.0492904   -4.1078261    2.8069235 
H     2.4584013    1.6837800   -3.0227456 
H     3.8228814    2.4957410   -2.2088529 
H     2.3737414    2.0485833   -1.2774515 
H     4.0069955   -0.2669483   -3.8843838 
H     5.2714685    0.8098572   -3.2312873 
H     5.2417999   -0.9025438   -2.7573742 
H     0.6657113    3.9063364    1.9023454 
H     4.1821143    0.4102303    1.3144420 
H     3.0083370    4.3677570    2.5839419 
H     4.7589172    2.5953542    2.3338964 
