101
Energy =
C    -2.8726330   -1.3153384   -0.1152796 
C    -2.1960750   -1.8015753   -1.2606975 
C    -1.0565454   -2.6526065   -1.1228738 
H    -2.4370660   -1.3851868   -2.2467211 
Pd   -0.6884037   -0.7208323   -0.0891282 
P     1.6227426   -0.7120238    0.1146694 
P    -0.6802609    1.3985931    0.8483419 
H    -2.7471721   -1.8912655    0.8151520 
H    -1.0416449   -3.3313725   -0.2581570 
C    -6.1807215    1.4350780    0.0602169 
C    -5.7171128    0.7893480    1.2165121 
C    -4.6475079   -0.1108930    1.1354312 
C    -4.0115636   -0.3802429   -0.0996640 
C    -4.5036599    0.2644591   -1.2586567 
C    -5.5738297    1.1618305   -1.1774746 
H    -7.0178601    2.1378511    0.1189335 
H    -6.1950004    0.9811173    2.1827161 
H    -4.2999181   -0.6249351    2.0390411 
H    -4.0554981    0.0593846   -2.2358645 
H    -5.9413498    1.6485038   -2.0867013 
C     1.5448584   -3.8020284   -4.3620784 
C     0.7856146   -2.6232559   -4.4583402 
C    -0.0603146   -2.2401172   -3.4126096 
C    -0.1853221   -3.0397492   -2.2513041 
C     0.5815699   -4.2240870   -2.1707374 
C     1.4413675   -4.5986466   -3.2121419 
H     2.2119647   -4.0955849   -5.1787907 
H     0.8651764   -1.9920498   -5.3493656 
H    -0.6119184   -1.2964399   -3.4874461 
H     0.4909203   -4.8644062   -1.2860991 
H     2.0233558   -5.5224744   -3.1297570 
C    -1.4319597    2.8066364   -0.1676421 
C    -1.6967449    1.7638327    2.4064601 
C     2.5075543   -2.0932510    1.0783464 
C     2.6923356   -0.9283459   -1.4206542 
C    -2.7038237    3.1843979    0.6217221 
C    -2.3789897    3.1195146    2.1175970 
C     3.6673021   -2.5601108    0.1506186 
C     4.0250107   -1.4738171   -0.8730935 
C     1.0763519    1.8368948    1.1966785 
C     2.0828249    0.8581267    0.9855394 
C    -1.6470667    2.4527912   -1.6564997 
C    -0.9716813    1.6491031    3.7661420 
C     1.5992826   -3.2640991    1.5364228 
C     2.7485627    0.1803462   -2.5000404 
C    -2.4772634    3.5260791   -2.3818839 
C    -0.3062780    2.2153116   -2.3615823 
C    -0.3337826    0.2659684    3.9531207 
C    -1.9396901    1.9629508    4.9240412 
C     0.4675427   -2.8177935    2.4701459 
C     2.4357557   -4.3679583    2.2147913 
C     3.5624748   -0.3186303   -3.7122238 
C     3.2824183    1.5409043   -2.0218607 
C     1.4254303    3.0878395    1.7444583 
C     3.4015409    1.1324977    1.4029743 
C     2.7478114    3.3595973    2.1176747 
C     3.7318656    2.3716223    1.9655924 
H    -0.7043872    3.6400765   -0.0977772 
H    -2.4751831    0.9769601    2.3610760 
H     2.9127930   -1.5916161    1.9777297 
H     2.1637423   -1.7865498   -1.8856616 
H    -3.0569661    4.1876442    0.3289920 
H    -3.5128544    2.4700518    0.3831011 
H    -3.2917693    3.2296598    2.7276361 
H    -1.6991243    3.9470879    2.3993309 
H     4.5419260   -2.8643131    0.7497266 
H     3.3249836   -3.4531166   -0.4044856 
H     4.6325407   -1.8986261   -1.6904822 
H     4.6276244   -0.6664550   -0.4202754 
H    -2.2194710    1.5049230   -1.6803850 
H    -0.1638159    2.4061093    3.7862028 
H     1.1480653   -3.6929349    0.6204174 
H     1.7084023    0.3209268   -2.8457577 
H    -3.4955075    3.6073340   -1.9657563 
H    -2.5724661    3.2755099   -3.4529193 
H    -1.9940618    4.5180436   -2.3112110 
H    -0.4549376    1.8995882   -3.4089172 
H     0.2637511    1.4195043   -1.8499434 
H     0.3151050    3.1291132   -2.3654653 
H     0.4190829    0.0600362    3.1733464 
H     0.1708862    0.1931286    4.9316905 
H    -1.0989003   -0.5302342    3.9059651 
H    -2.8003019    1.2683853    4.9164273 
H    -1.4242857    1.8496951    5.8932933 
H    -2.3301093    2.9929180    4.8721523 
H     0.8692883   -2.4024191    3.4110318 
H    -0.1864634   -3.6692432    2.7269663 
H    -0.1629380   -2.0378794    1.9973595 
H     3.1920499   -4.7989199    1.5382098 
H     1.7808460   -5.1906631    2.5500575 
H     2.9584248   -3.9702816    3.1042053 
H     4.6410835   -0.3672663   -3.4797454 
H     3.4388744    0.3731552   -4.5633455 
H     3.2335703   -1.3214063   -4.0343214 
H     4.2948846    1.4496185   -1.5894427 
H     3.3490536    2.2366967   -2.8761573 
H     2.6316531    2.0055371   -1.2644857 
H     0.6575730    3.8546100    1.8922803 
H     4.1862376    0.3808336    1.2805307 
H     3.0057895    4.3346009    2.5430115 
H     4.7623348    2.5687141    2.2778245 
