120
Energy =
C    -0.2618903    1.5312529    2.9961926 
C    -1.1558550    0.4435678    3.0214666 
C    -0.7019025   -0.9114675    2.9709299 
H    -2.2349924    0.6381303    2.9903445 
Pd   -0.1416216    0.1578934    1.0901320 
P     0.3752786   -1.8631745   -0.0582389 
P    -0.1310278    1.7650778   -0.6517907 
H     0.7972314    1.3166278    3.2047094 
H     0.2740044   -1.1309942    3.4249225 
C    -1.2781472    5.6879857    3.4501119 
C     0.0532599    5.2575969    3.5547386 
C     0.3650501    3.9019256    3.4043722 
C    -0.6421350    2.9451561    3.1356809 
C    -1.9822042    3.3936771    3.0553743 
C    -2.2943116    4.7476506    3.2093284 
H    -1.5261723    6.7476151    3.5685026 
H     0.8502572    5.9795305    3.7603113 
H     1.4053535    3.5723664    3.4992823 
H    -2.7890217    2.6801739    2.8630197 
H    -3.3373630    5.0740633    3.1439762 
C    -3.5220887   -4.1700782    3.0126323 
C    -3.8543569   -2.9623739    2.3770350 
C    -2.9341444   -1.9111833    2.3338256 
C    -1.6649233   -2.0330717    2.9479672 
C    -1.3425978   -3.2566755    3.5774192 
C    -2.2596212   -4.3158751    3.6059967 
H    -4.2430760   -4.9934491    3.0418142 
H    -4.8311768   -2.8461650    1.8972631 
H    -3.1934577   -0.9902957    1.7998147 
H    -0.3719077   -3.3662498    4.0741294 
H    -1.9927420   -5.2513996    4.1087471 
O    -1.9460309   -0.4734179   -1.2822624 
C     1.2495881   -3.0734498    1.0738095 
C     1.3039788   -1.8147943   -1.7012578 
C     1.4349884    2.7556846   -0.8820380 
C    -1.4859882    3.0415401   -0.4084200 
C     1.7406530   -4.4218646    0.4934467 
C     2.4052277   -2.3945822    1.8519132 
C     2.8335709   -1.6878461   -1.5266476 
C     0.9528350   -2.9651856   -2.6706877 
C     1.7184575    3.6113860    0.3682213 
C     2.6302678    1.8284403   -1.1726129 
C    -1.4753696    4.1604139   -1.4708368 
C    -2.8710302    2.3615988   -0.3255445 
C     2.2046850   -5.3413599    1.6404331 
C     2.8872880   -3.3028818    2.9973152 
C     3.5080377   -1.4596816   -2.8924127 
C     1.6500176   -2.7531856   -4.0278514 
C     3.0236944    4.4117577    0.2127662 
C     3.9363256    2.6242090   -1.3354487 
C    -2.6015181    5.1791558   -1.2078760 
C    -3.9919581    3.3890022   -0.0861910 
C     3.3165181   -4.6842691    2.4747435 
C     3.1707103   -2.5933611   -3.8737157 
C     4.2170193    3.4942226   -0.0994518 
C    -3.9763800    4.4956075   -1.1522692 
C    -1.2521736   -2.6338318   -0.4640265 
C    -0.4988083    1.0893934   -2.3311079 
C    -2.2315877   -1.8209275   -1.0808855 
C    -1.3593356   -0.0271118   -2.4522455 
C    -1.6195970   -3.9551422   -0.1398232 
C     0.0795003    1.5987180   -3.5129463 
C    -3.5118991   -2.2966155   -1.3817904 
C    -1.6087444   -0.6354006   -3.6901759 
C    -2.8930544   -4.4490002   -0.4530586 
C    -0.1662055    1.0049434   -4.7583075 
C    -3.8380874   -3.6261000   -1.0802636 
C    -1.0045186   -0.1162689   -4.8425869 
H     0.4474072   -3.2943194    1.8041374 
H     0.9521663   -0.8737081   -2.1590374 
H     1.2817381    3.4334276   -1.7435265 
H    -1.2600044    3.4848993    0.5797119 
H     2.5883407   -4.2442522   -0.1923544 
H     0.9598511   -4.9217765   -0.1023907 
H     2.0830895   -1.4108264    2.2396087 
H     3.2486099   -2.1969926    1.1662317 
H     3.2382219   -2.6164042   -1.0866573 
H     3.0817591   -0.8694803   -0.8309740 
H    -0.1394273   -3.0234636   -2.8156282 
H     1.2689126   -3.9320884   -2.2378974 
H     1.8043345    2.9312936    1.2367795 
H     0.8795266    4.2947379    0.5836356 
H     2.4381176    1.2192854   -2.0722640 
H     2.7300220    1.1240827   -0.3233118 
H    -1.6119908    3.7124671   -2.4742713 
H    -0.5016362    4.6816991   -1.4780442 
H    -2.8635335    1.5910804    0.4675716 
H    -3.0707696    1.8288325   -1.2737686 
H     2.5526459   -6.3041023    1.2252510 
H     1.3375429   -5.5710784    2.2913604 
H     2.0672272   -3.4253778    3.7325881 
H     3.7217630   -2.8167028    3.5338570 
H     4.6010191   -1.3729234   -2.7554386 
H     3.1619516   -0.4955508   -3.3145769 
H     1.2317212   -1.8435880   -4.5007722 
H     1.4144015   -3.5990722   -4.6985146 
H     3.2104502    4.9925891    1.1341793 
H     2.9004751    5.1490398   -0.6047260 
H     3.8586389    3.2695878   -2.2325239 
H     4.7735027    1.9269740   -1.5202976 
H    -2.5845505    5.9563859   -1.9928468 
H    -2.4061013    5.6922360   -0.2456571 
H    -3.8625044    3.8487227    0.9112945 
H    -4.9687300    2.8721459   -0.0751889 
H     3.6036441   -5.3399845    3.3158795 
H     4.2194340   -4.5665137    1.8437249 
H     3.6375976   -2.4016865   -4.8563110 
H     3.6040530   -3.5411410   -3.4975108 
H     5.1332851    4.0923809   -0.2491360 
H     4.4071296    2.8356591    0.7715497 
H    -4.7670465    5.2388366   -0.9454217 
H    -4.2059418    4.0550235   -2.1426753 
H    -0.9193255   -4.6083168    0.3836758 
H     0.7447150    2.4654853   -3.4628889 
H    -4.2371683   -1.6164760   -1.8378309 
H    -2.2670200   -1.5068392   -3.7449379 
H    -3.1500147   -5.4784844   -0.1865051 
H     0.2993181    1.4162835   -5.6588993 
H    -4.8354408   -4.0094290   -1.3177126 
H    -1.1961824   -0.5902108   -5.8104566 
