120
Energy =
C    -1.7142463    0.7814982    2.7116409 
C    -0.8646483    1.9223097    2.5820033 
C    -1.0057220    2.8114371    1.4956282 
H    -0.0185359    2.0442779    3.2690885 
Pd   -0.5458341    0.6894205    0.7813850 
P     0.9561313    1.2583276   -0.9606627 
P    -1.2932127   -1.4430592    0.0364078 
H    -2.7372404    0.8748296    2.3250374 
H    -1.9448827    2.7590962    0.9233823 
C    -1.2439229   -2.2119613    5.7783050 
C    -2.4777120   -2.0351506    5.1338335 
C    -2.6227705   -1.0477410    4.1509439 
C    -1.5352727   -0.2250635    3.7758812 
C    -0.3014261   -0.4095082    4.4449087 
C    -0.1598585   -1.3862554    5.4353991 
H    -1.1289606   -2.9809409    6.5489304 
H    -3.3345427   -2.6600915    5.4065789 
H    -3.5978936   -0.8969817    3.6742708 
H     0.5684514    0.1936258    4.1640131 
H     0.8053022   -1.5136998    5.9367345 
C     1.2389127    6.3878703    0.6979502 
C     0.2190988    5.9681489   -0.1696863 
C    -0.5100221    4.8080790    0.1142901 
C    -0.2239878    4.0334370    1.2631987 
C     0.7919569    4.4804525    2.1404272 
C     1.5128002    5.6453461    1.8596450 
H     1.8070372    7.2984306    0.4820641 
H    -0.0123194    6.5471151   -1.0695172 
H    -1.3044211    4.4832438   -0.5660749 
H     1.0178807    3.9197531    3.0525288 
H     2.2906795    5.9818733    2.5526874 
O    -1.8103841    0.7203325   -1.9717132 
C     1.6661784   -0.1698845   -1.9519362 
C     2.3700422    2.3229159   -0.3325135 
C    -3.0752832   -1.7223512    0.5575406 
C    -0.1534147   -2.8298095    0.6114451 
C     2.1718695    0.1584079   -3.3724693 
C     2.6912062   -1.0031399   -1.1528549 
C     2.8488019    1.7944710    1.0450666 
C     3.5736450    2.5255645   -1.2818279 
C    -3.9252933   -0.4995597    0.1318512 
C    -3.7526131   -3.0108959    0.0411880 
C     0.5704536   -2.3787162    1.8996861 
C    -0.7180541   -4.2525516    0.8206007 
C     2.5116091   -1.1473004   -4.1174201 
C     3.0148883   -2.3030977   -1.9127571 
C     3.9269868    2.7061401    1.6587699 
C     4.6085344    3.4760310   -0.6511890 
C    -5.3557307   -0.5973053    0.6892951 
C    -5.1900177   -3.1223545    0.5901414 
C     1.7001416   -3.3465288    2.2837402 
C     0.4120081   -5.2327488    1.1947358 
C     3.5197453   -2.0055642   -3.3347047 
C     5.1042680    2.9332935    0.6979661 
C    -6.0403923   -1.8945997    0.2311877 
C     1.1684161   -4.7781858    2.4522289 
C     0.0269404    2.2851164   -2.1792476 
C    -1.3803619   -1.6246482   -1.7990223 
C    -1.2938077    1.8976707   -2.5105014 
C    -1.5732769   -0.4849062   -2.6152624 
C     0.4921745    3.5101505   -2.7004513 
C    -1.1689034   -2.8620770   -2.4442661 
C    -2.1300826    2.7057284   -3.2883985 
C    -1.5177257   -0.5683709   -4.0143161 
C    -0.3253739    4.3123898   -3.5093395 
C    -1.1303639   -2.9611031   -3.8408680 
C    -1.6398506    3.9181797   -3.7955252 
C    -1.2968828   -1.8096796   -4.6238940 
H     0.7782568   -0.8116784   -2.0783045 
H     1.8888110    3.3057361   -0.1611222 
H    -3.0174471   -1.7590053    1.6621508 
H     0.5906180   -2.8659987   -0.2092850 
H     3.0695765    0.7992591   -3.3259896 
H     1.4007155    0.7220802   -3.9269912 
H     2.3016480   -1.2286636   -0.1440783 
H     3.6245118   -0.4276042   -1.0127984 
H     3.2579410    0.7737752    0.9294390 
H     1.9828950    1.7075491    1.7277729 
H     3.2506853    2.9106170   -2.2638082 
H     4.0587701    1.5513589   -1.4726013 
H    -3.9660140   -0.4655807   -0.9733054 
H    -3.4426865    0.4423699    0.4457184 
H    -3.1847356   -3.9069373    0.3287095 
H    -3.7781848   -2.9841336   -1.0651321 
H    -0.1663327   -2.3346193    2.7209949 
H     0.9595008   -1.3486785    1.7776275 
H    -1.2423584   -4.6210666   -0.0770485 
H    -1.4622643   -4.2257501    1.6388369 
H     2.9052468   -0.9090681   -5.1218668 
H     1.5781057   -1.7234745   -4.2675801 
H     2.0985232   -2.9242659   -1.9735899 
H     3.7609835   -2.8903289   -1.3473450 
H     4.2787885    2.2689809    2.6108028 
H     3.4707380    3.6827915    1.9028153 
H     4.1461481    4.4720693   -0.5037745 
H     5.4535290    3.6151437   -1.3490936 
H    -5.9398314    0.2845024    0.3697679 
H    -5.3196952   -0.5680364    1.7968615 
H    -5.1453117   -3.2309073    1.6921152 
H    -5.6587078   -4.0445051    0.2022143 
H     2.1806259   -2.9981652    3.2159115 
H     2.4796404   -3.3296024    1.4956605 
H     1.1188031   -5.3068612    0.3443953 
H    -0.0131581   -6.2417887    1.3411514 
H     3.7187500   -2.9486684   -3.8742577 
H     4.4869746   -1.4688767   -3.2704643 
H     5.8350625    3.6281618    1.1486407 
H     5.6379391    1.9765547    0.5314750 
H    -7.0469166   -1.9790852    0.6781859 
H    -6.1823841   -1.8589634   -0.8669120 
H     1.9950507   -5.4756995    2.6761705 
H     0.4815376   -4.8078890    3.3209371 
H     1.4973940    3.8602483   -2.4555655 
H    -1.0145795   -3.7633265   -1.8457386 
H    -3.1526330    2.3723526   -3.4879374 
H    -1.6444200    0.3354887   -4.6163290 
H     0.0638812    5.2571340   -3.9013086 
H    -0.9621552   -3.9331763   -4.3138397 
H    -2.2859357    4.5506034   -4.4125599 
H    -1.2568154   -1.8735048   -5.7159153 
