120
Energy =
C    -0.3212900    1.4567940    3.0052096 
C    -1.2255083    0.3780048    3.0791293 
C    -0.7762633   -0.9801160    3.0202920 
H    -2.3042758    0.5780984    3.0594641 
Pd   -0.2489504    0.0774711    1.1337302 
P     0.3006726   -1.9000619   -0.0316533 
P    -0.1201864    1.6763109   -0.6128296 
H     0.7417477    1.2341860    3.1821797 
H     0.2022943   -1.2028103    3.4665284 
C    -1.2500580    5.6545105    3.2345070 
C     0.0778263    5.2176072    3.1084279 
C     0.3611749    3.8488534    3.0524554 
C    -0.6732686    2.8828603    3.0924795 
C    -2.0030225    3.3401488    3.2446223 
C    -2.2846517    4.7084817    3.3187935 
H    -1.4766146    6.7241481    3.2877093 
H     0.8952191    5.9450562    3.0689276 
H     1.4018285    3.5153098    2.9826358 
H    -2.8274121    2.6241450    3.3132984 
H    -3.3197828    5.0410509    3.4471830 
C    -3.5598314   -4.2701222    2.9894542 
C    -3.9018127   -3.0559150    2.3716275 
C    -2.9957706   -1.9915412    2.3570848 
C    -1.7316336   -2.1077846    2.9826079 
C    -1.3987512   -3.3378361    3.5933982 
C    -2.3017040   -4.4095655    3.5934364 
H    -4.2696838   -5.1036061    2.9959903 
H    -4.8749716   -2.9445970    1.8832228 
H    -3.2604914   -1.0648833    1.8355244 
H    -0.4299676   -3.4436806    4.0949763 
H    -2.0272978   -5.3506589    4.0815830 
O    -2.0428961   -0.5275829   -1.2405502 
C     1.2157069   -3.1089800    1.0648838 
C     1.2349558   -1.7349931   -1.6521337 
C     1.6505441    2.2971515   -0.8314751 
C    -1.3628970    3.0722873   -0.3601496 
C     1.7786420   -4.3966022    0.4183931 
C     2.3377810   -2.4079038    1.8723859 
C     2.7187634   -1.3614265   -1.4507410 
C     1.0742902   -2.8988590   -2.6530430 
C     1.8751838    3.7548099   -1.2887846 
C     2.4599295    2.0231065    0.4582517 
C    -1.4970700    4.0645533   -1.5359466 
C    -2.7340218    2.4163858   -0.0534548 
C     2.3024323   -5.3466960    1.5134511 
C     2.8731709   -3.3441767    2.9706035 
C     3.3477239   -0.9751912   -2.8022544 
C     1.7268542   -2.5223102   -3.9976861 
C     3.3764206    4.0440720   -1.4872678 
C     3.9575809    2.3035371    0.2536245 
C    -2.5962539    5.1096669   -1.2619236 
C    -3.8438440    3.4577199    0.1738210 
C     3.3786831   -4.6706184    2.3785220 
C     3.1994712   -2.1129741   -3.8263083 
C     4.1918410    3.7463565   -0.2203363 
C    -3.9523579    4.4392026   -1.0017355 
C    -1.3001805   -2.6963507   -0.4765508 
C    -0.5858261    1.0417718   -2.2858811 
C    -2.3000483   -1.8863185   -1.0662357 
C    -1.4757478   -0.0518558   -2.4096507 
C    -1.6370368   -4.0327394   -0.1822076 
C    -0.0163074    1.5577031   -3.4697237 
C    -3.5738266   -2.3810248   -1.3639183 
C    -1.7578638   -0.6302434   -3.6558291 
C    -2.9044179   -4.5435592   -0.4929647 
C    -0.3025729    0.9991792   -4.7219886 
C    -3.8716325   -3.7230046   -1.0886362 
C    -1.1687403   -0.1004577   -4.8106796 
H     0.4239189   -3.3998537    1.7828512 
H     0.7521078   -0.8555897   -2.1088254 
H     2.0390123    1.6192704   -1.6174411 
H    -1.0096721    3.6096845    0.5410006 
H     2.6110946   -4.1311355   -0.2588706 
H     1.0229871   -4.9081136   -0.2005364 
H     1.9672367   -1.4630524    2.3088036 
H     3.1656436   -2.1324527    1.1942869 
H     3.2721965   -2.2211614   -1.0302061 
H     2.8157448   -0.5335720   -0.7267177 
H     0.0041444   -3.1273492   -2.8018003 
H     1.5473329   -3.8146650   -2.2568623 
H     1.4627828    4.4404830   -0.5237321 
H     1.3369906    3.9654027   -2.2280545 
H     2.2982878    0.9796740    0.7923732 
H     2.0706807    2.6713564    1.2635316 
H    -1.7560632    3.5039185   -2.4541600 
H    -0.5441159    4.5787605   -1.7296316 
H    -2.6415282    1.7475013    0.8217917 
H    -3.0180972    1.7708755   -0.9053592 
H     2.7033005   -6.2642237    1.0468569 
H     1.4539960   -5.6607617    2.1535398 
H     2.0623703   -3.5495686    3.6977176 
H     3.6799279   -2.8391192    3.5315687 
H     4.4122165   -0.7151209   -2.6587674 
H     2.8440736   -0.0659940   -3.1879463 
H     1.1618041   -1.6801045   -4.4414240 
H     1.6414784   -3.3703068   -4.7007562 
H     3.5087738    5.0963356   -1.7964171 
H     3.7535471    3.4195253   -2.3213046 
H     4.3579412    1.5966662   -0.5005348 
H     4.5045020    2.1071608    1.1935315 
H    -2.6605142    5.8018945   -2.1206402 
H    -2.3095705    5.7181160   -0.3815306 
H    -3.6244898    4.0261695    1.0950678 
H    -4.8037693    2.9353513    0.3393933 
H     3.7058592   -5.3505746    3.1850203 
H     4.2709664   -4.4697086    1.7533966 
H     3.6273622   -1.8104608   -4.7986933 
H     3.7863099   -2.9874741   -3.4819672 
H     5.2663732    3.9231658   -0.4044436 
H     3.8883313    4.4470221    0.5827137 
H    -4.7276001    5.1990428   -0.7966297 
H    -4.2722518    3.8952954   -1.9126271 
H    -0.9156917   -4.6840788    0.3154628 
H     0.6749858    2.4029767   -3.4128678 
H    -4.3181137   -1.7054631   -1.7954691 
H    -2.4277207   -1.4924541   -3.7137816 
H    -3.1391653   -5.5840821   -0.2497929 
H     0.1549821    1.4178929   -5.6232334 
H    -4.8649066   -4.1188145   -1.3227052 
H    -1.3899895   -0.5517800   -5.7830544 
