120
Energy =
C    -0.3964012    1.6837819    2.9053230 
C    -1.1599405    0.5002474    2.9490079 
C    -0.5707806   -0.7956591    2.9729313 
H    -2.2515048    0.5731071    2.8780048 
Pd   -0.0652687    0.2897619    1.0500089 
P     0.4382148   -1.7415488   -0.1272380 
P     0.0013734    1.9012381   -0.6795386 
H     0.6670734    1.6065455    3.1736927 
H     0.4352351   -0.8873973    3.4056682 
C    -1.9643294    5.6858352    3.2086779 
C    -0.5808155    5.4532977    3.2195721 
C    -0.0882827    4.1470929    3.1235708 
C    -0.9616796    3.0417851    2.9869460 
C    -2.3544401    3.2935276    2.9944018 
C    -2.8465887    4.5971969    3.1120491 
H    -2.3544474    6.7050667    3.2938216 
H     0.1173564    6.2908115    3.3188171 
H     0.9899325    3.9737020    3.1656099 
H    -3.0662065    2.4666482    2.9136293 
H    -3.9279537    4.7667899    3.1307743 
C    -3.0292961   -4.3171704    3.3342592 
C    -3.5308426   -3.1760362    2.6873604 
C    -2.7290659   -2.0415602    2.5319818 
C    -1.4116178   -2.0088628    3.0465644 
C    -0.9212961   -3.1653113    3.6957523 
C    -1.7175689   -4.3098352    3.8317439 
H    -3.6578081   -5.2060889    3.4501802 
H    -4.5485847   -3.1766594    2.2849626 
H    -3.1247892   -1.1778488    1.9872434 
H     0.0881040   -3.1544608    4.1219841 
H    -1.3183250   -5.1908785    4.3450560 
O    -1.9335613   -0.3038330   -1.1956508 
C     1.3660208   -2.9278746    0.9869224 
C     1.2418718   -1.7919921   -1.8426914 
C     1.5803543    2.8618785   -1.0392299 
C    -1.3139644    3.2404377   -0.4833764 
C     1.8167999   -4.2989010    0.4284816 
C     2.5638233   -2.2159908    1.6669908 
C     2.7829309   -1.7194452   -1.8078316 
C     0.7705578   -2.9688454   -2.7269389 
C     1.9607969    3.8585334    0.0860003 
C     2.7787559    1.9579368   -1.4189012 
C    -1.2308039    4.3457653   -1.5581106 
C    -2.7206749    2.6002540   -0.4511089 
C     2.3708725   -5.1705311    1.5727447 
C     3.1484168   -3.0852491    2.7948777 
C     3.3411519   -1.5648933   -3.2347204 
C     1.3584137   -2.8456262   -4.1460415 
C     2.7114655    3.2126733    1.2607930 
C     3.5049939    1.3493431   -0.2083760 
C    -2.3494378    5.3895705   -1.3721761 
C    -3.8317057    3.6541469   -0.2992908 
C     3.5453453   -4.4805283    2.2852318 
C     2.8902800   -2.7278342   -4.1318246 
C     3.9404996    2.4274163    0.7905590 
C    -3.7377167    4.7337658   -1.3872612 
C    -1.2273539   -2.4816849   -0.4200122 
C    -0.4450230    1.1802238   -2.3270924 
C    -2.2290525   -1.6467785   -0.9685219 
C    -1.3638451    0.1035573   -2.3899662 
C    -1.5906540   -3.8034968   -0.0961605 
C     0.1096084    1.6281794   -3.5453132 
C    -3.5340362   -2.0993336   -1.1885214 
C    -1.6959044   -0.5126847   -3.6047929 
C    -2.8878111   -4.2762601   -0.3366358 
C    -0.2143348    1.0214962   -4.7661861 
C    -3.8600651   -3.4288113   -0.8844371 
C    -1.1149471   -0.0525831   -4.7928864 
H     0.6085075   -3.1208840    1.7697217 
H     0.8872512   -0.8593869   -2.3135579 
H     1.3129772    3.4640723   -1.9249791 
H    -1.1114101    3.6861572    0.5086787 
H     2.6078492   -4.1538770   -0.3283473 
H     0.9926427   -4.8232563   -0.0816407 
H     2.2488006   -1.2310972    2.0593668 
H     3.3505781   -2.0145949    0.9173525 
H     3.1941111   -2.6447812   -1.3679251 
H     3.1194208   -0.8890397   -1.1719697 
H    -0.3307857   -2.9913870   -2.7831577 
H     1.0863089   -3.9275709   -2.2756990 
H     1.0708036    4.4009931    0.4514529 
H     2.6179217    4.6216370   -0.3740977 
H     3.4962994    2.5867299   -1.9809318 
H     2.4559050    1.1652531   -2.1163179 
H    -1.3246316    3.8873888   -2.5619578 
H    -0.2516834    4.8542082   -1.5219730 
H    -2.7717082    1.8517368    0.3602449 
H    -2.8878131    2.0503268   -1.3954471 
H     2.6852151   -6.1505652    1.1714479 
H     1.5592256   -5.3702939    2.3004794 
H     2.3940687   -3.1898286    3.5994685 
H     4.0190750   -2.5747113    3.2441739 
H     4.4438071   -1.5053212   -3.1955657 
H     2.9841412   -0.6077120   -3.6644653 
H     0.9282840   -1.9464586   -4.6274093 
H     1.0406343   -3.7143775   -4.7503727 
H     2.0344167    2.5127644    1.7848524 
H     2.9982589    3.9944151    1.9868601 
H     4.3752647    0.7660599   -0.5583852 
H     2.8280936    0.6394073    0.3093774 
H    -2.2692907    6.1550622   -2.1648089 
H    -2.1991216    5.9110492   -0.4064530 
H    -3.7466328    4.1353090    0.6911270 
H    -4.8161242    3.1524619   -0.3295573 
H     3.9083807   -5.1043823    3.1212734 
H     4.3900545   -4.3804487    1.5755105 
H     3.2734903   -2.5937062   -5.1591751 
H     3.3293812   -3.6711872   -3.7511861 
H     4.6656720    3.1135629    0.3106801 
H     4.4575700    1.9682840    1.6519973 
H    -4.5247673    5.4951611   -1.2417155 
H    -3.9165567    4.2770555   -2.3809051 
H    -0.8662274   -4.4729436    0.3715638 
H     0.8209534    2.4583891   -3.5472328 
H    -4.2755826   -1.4036143   -1.5918583 
H    -2.4015901   -1.3478354   -3.6119689 
H    -3.1414772   -5.3070076   -0.0717650 
H     0.2378220    1.3884241   -5.6923829 
H    -4.8763691   -3.7941923   -1.0626545 
H    -1.3729378   -0.5345667   -5.7411289 
