120
Energy =
C    -0.2405121    1.5562923    2.9888755 
C    -1.1355150    0.4704280    3.0240082 
C    -0.6833089   -0.8862213    2.9779982 
H    -2.2146631    0.6661105    2.9987063 
Pd   -0.1366821    0.1633847    1.0857011 
P     0.3824657   -1.8658863   -0.0415735 
P    -0.1435603    1.7536636   -0.6717190 
H     0.8197677    1.3406192    3.1900656 
H     0.2934805   -1.1046934    3.4306033 
C    -1.2432353    5.7187067    3.4129332 
C     0.0858188    5.2837823    3.5284109 
C     0.3933231    3.9261922    3.3869506 
C    -0.6163117    2.9718578    3.1186756 
C    -1.9541088    3.4250529    3.0273327 
C    -2.2617181    4.7811780    3.1705980 
H    -1.4876568    6.7800434    3.5232889 
H     0.8842923    6.0038425    3.7347759 
H     1.4319753    3.5931432    3.4883021 
H    -2.7621073    2.7131528    2.8339359 
H    -3.3028602    5.1115556    3.0953650 
C    -3.5122508   -4.1367041    3.0551891 
C    -3.8417764   -2.9345138    2.4078148 
C    -2.9186281   -1.8864423    2.3533648 
C    -1.6491018   -2.0058387    2.9674170 
C    -1.3291999   -3.2242596    3.6080232 
C    -2.2493703   -4.2803991    3.6481969 
H    -4.2356295   -4.9575959    3.0935568 
H    -4.8187010   -2.8204163    1.9277453 
H    -3.1756214   -0.9698948    1.8107455 
H    -0.3579924   -3.3317931    4.1042334 
H    -1.9846496   -5.2117673    4.1597374 
O    -1.9449320   -0.5008441   -1.2767908 
C     1.2663682   -3.0619585    1.0978867 
C     1.3049449   -1.8262555   -1.6881033 
C     1.4122174    2.7567516   -0.9157333 
C    -1.5081546    3.0203107   -0.4305689 
C     1.7608390   -4.4129699    0.5265590 
C     2.4220479   -2.3717710    1.8658427 
C     2.8341086   -1.6871062   -1.5194326 
C     0.9580956   -2.9870983   -2.6464829 
C     1.6925780    3.6235445    0.3276286 
C     2.6153223    1.8391859   -1.2052686 
C    -1.5128209    4.1321350   -1.5004024 
C    -2.8874093    2.3304969   -0.3342849 
C     2.2341488   -5.3210151    1.6788684 
C     2.9122930   -3.2687535    3.0166883 
C     3.5030245   -1.4673020   -2.8892886 
C     1.6497862   -2.7823558   -4.0075682 
C     2.9889260    4.4359210    0.1609883 
C     3.9126602    2.6468940   -1.3790860 
C    -2.6449399    5.1440867   -1.2367542 
C    -4.0144483    3.3510190   -0.0939384 
C     3.3463831   -4.6519905    2.5030695 
C     3.1699118   -2.6119420   -3.8592669 
C     4.1899755    3.5281777   -0.1502924 
C    -4.0142912    4.4508112   -1.1671535 
C    -1.2421151   -2.6483956   -0.4350931 
C    -0.5136051    1.0629076   -2.3444012 
C    -2.2250410   -1.8472526   -1.0616008 
C    -1.3671447   -0.0603024   -2.4532010 
C    -1.6041225   -3.9667046   -0.0932283 
C     0.0557441    1.5672411   -3.5326760 
C    -3.5033688   -2.3319541   -1.3563707 
C    -1.6178223   -0.6799078   -3.6851860 
C    -2.8758634   -4.4694495   -0.3992514 
C    -0.1915442    0.9622859   -4.7723657 
C    -3.8240916   -3.6587095   -1.0373844 
C    -1.0222781   -0.1654083   -4.8442371 
H     0.4679498   -3.2799081    1.8332821 
H     0.9454169   -0.8914497   -2.1526890 
H     1.2490021    3.4271118   -1.7811682 
H    -1.2799634    3.4725074    0.5530601 
H     2.6046109   -4.2370401   -0.1645252 
H     0.9795519   -4.9211455   -0.0616318 
H     2.0973032   -1.3862424    2.2466617 
H     3.2619448   -2.1762995    1.1753197 
H     3.2465278   -2.6085105   -1.0716069 
H     3.0783099   -0.8601568   -0.8324420 
H    -0.1342267   -3.0534204   -2.7875285 
H     1.2815035   -3.9482940   -2.2065370 
H     1.7890511    2.9501882    1.2002806 
H     0.8479319    4.2999972    0.5425489 
H     2.4254991    1.2218265   -2.0998330 
H     2.7258104    1.1416855   -0.3516328 
H    -1.6522272    3.6764252   -2.4999708 
H    -0.5432062    4.6608248   -1.5172984 
H    -2.8690954    1.5651589    0.4637140 
H    -3.0893772    1.7900934   -1.2776794 
H     2.5848899   -6.2854171    1.2699198 
H     1.3709172   -5.5496220    2.3353590 
H     2.0951818   -3.3895860    3.7555892 
H     3.7461809   -2.7744087    3.5466174 
H     4.5958529   -1.3724440   -2.7565477 
H     3.1495512   -0.5093085   -3.3191953 
H     1.2245142   -1.8793667   -4.4869311 
H     1.4174076   -3.6353506   -4.6702997 
H     3.1737468    5.0247864    1.0776774 
H     2.8547167    5.1663747   -0.6609015 
H     3.8246961    3.2852867   -2.2802008 
H     4.7560263    1.9568535   -1.5627376 
H    -2.6391733    5.9161822   -2.0269274 
H    -2.4469021    5.6651053   -0.2793282 
H    -3.8820527    3.8182106    0.8998343 
H    -4.9872296    2.8270234   -0.0730015 
H     3.6405637   -5.2996274    3.3480192 
H     4.2458495   -4.5345919    1.8670903 
H     3.6328628   -2.4263868   -4.8448900 
H     3.6100544   -3.5536206   -3.4756918 
H     5.0995589    4.1343999   -0.3081237 
H     4.3904655    2.8775222    0.7243142 
H    -4.8090421    5.1895092   -0.9597384 
H    -4.2473501    4.0019679   -2.1530178 
H    -0.9011225   -4.6102607    0.4385035 
H     0.7151459    2.4389548   -3.4921985 
H    -4.2318122   -1.6606929   -1.8204196 
H    -2.2700890   -1.5563931   -3.7304257 
H    -3.1289737   -5.4961850   -0.1187731 
H     0.2667738    1.3700370   -5.6782672 
H    -4.8199727   -4.0491173   -1.2694190 
H    -1.2148983   -0.6480880   -5.8075912 
