120
Energy =
C    -0.2962459    1.4988407    3.0114374 
C    -1.1987993    0.4183497    3.0071189 
C    -0.7547218   -0.9399415    2.9461630 
H    -2.2757730    0.6219371    2.9613130 
Pd   -0.1571178    0.1447411    1.0873341 
P     0.3659518   -1.8664487   -0.0718421 
P    -0.1110686    1.7705772   -0.6366336 
H     0.7577935    1.2726278    3.2329458 
H     0.2112322   -1.1732678    3.4143130 
C    -1.2850617    5.6581732    3.4974592 
C     0.0398050    5.2142109    3.6258076 
C     0.3428224    3.8578698    3.4640668 
C    -0.6668430    2.9139951    3.1612422 
C    -2.0007259    3.3758334    3.0571349 
C    -2.3040350    4.7305344    3.2216619 
H    -1.5261071    6.7184739    3.6239876 
H     0.8384044    5.9260682    3.8585186 
H     1.3779134    3.5175597    3.5767542 
H    -2.8091448    2.6721941    2.8372630 
H    -3.3423481    5.0674828    3.1370600 
C    -3.6045420   -4.1727652    2.9032121 
C    -3.9141798   -2.9556727    2.2741171 
C    -2.9836731   -1.9128221    2.2582353 
C    -1.7269811   -2.0526897    2.8939655 
C    -1.4272265   -3.2855999    3.5163667 
C    -2.3542939   -4.3364528    3.5174323 
H    -4.3335307   -4.9895347    2.9111563 
H    -4.8810491   -2.8254518    1.7780660 
H    -3.2247576   -0.9841125    1.7292070 
H    -0.4667305   -3.4092614    4.0293825 
H    -2.1051150   -5.2795196    4.0151542 
O    -1.9228966   -0.4516723   -1.3247628 
C     1.2138276   -3.0948329    1.0607051 
C     1.3228510   -1.8034589   -1.6979408 
C     1.4614421    2.7590898   -0.8281067 
C    -1.4657774    3.0484728   -0.3994464 
C     1.7055880   -4.4394293    0.4722008 
C     2.3605278   -2.4328749    1.8660821 
C     2.8496678   -1.6857373   -1.4950915 
C     0.9830671   -2.9403584   -2.6870987 
C     1.7262928    3.5980493    0.4375039 
C     2.6589779    1.8322560   -1.1107302 
C    -1.4338857    4.1812095   -1.4466166 
C    -2.8543352    2.3727009   -0.3478446 
C     2.1448937   -5.3756343    1.6153982 
C     2.8177513   -3.3582982    3.0079616 
C     3.5492129   -1.4454867   -2.8460661 
C     1.7053921   -2.7161473   -4.0290473 
C     3.0356721    4.3971007    0.3136006 
C     3.9694303    2.6266865   -1.2420356 
C    -2.5606632    5.2005425   -1.1885517 
C    -3.9754931    3.4009756   -0.1131866 
C     3.2472762   -4.7357110    2.4752345 
C     3.2238689   -2.5664295   -3.8458478 
C     4.2318522    3.4806916    0.0090787 
C    -3.9386471    4.5215265   -1.1640709 
C    -1.2581664   -2.6235803   -0.5143742 
C    -0.4528823    1.1174425   -2.3302763 
C    -2.2204440   -1.7992639   -1.1429215 
C    -1.3156127    0.0060421   -2.4795818 
C    -1.6400456   -3.9450007   -0.2078494 
C     0.1466243    1.6393201   -3.4959203 
C    -3.4973759   -2.2644963   -1.4731806 
C    -1.5466686   -0.5859947   -3.7288602 
C    -2.9103526   -4.4280328   -0.5495486 
C    -0.0808710    1.0621531   -4.7525210 
C    -3.8375933   -3.5942896   -1.1888909 
C    -0.9217200   -0.0546977   -4.8645798 
H     0.3981562   -3.3189441    1.7750285 
H     0.9834103   -0.8551999   -2.1502758 
H     1.3244623    3.4481927   -1.6833064 
H    -1.2544884    3.4781710    0.5979078 
H     2.5655690   -4.2592519   -0.1974509 
H     0.9313376   -4.9267692   -0.1423213 
H     2.0381572   -1.4519219    2.2605302 
H     3.2165046   -2.2323836    1.1970500 
H     3.2423696   -2.6211120   -1.0585706 
H     3.0890692   -0.8763539   -0.7858734 
H    -0.1067347   -2.9909321   -2.8520814 
H     1.2862301   -3.9140740   -2.2603844 
H     1.7964581    2.9067380    1.2985642 
H     0.8855074    4.2806309    0.6480901 
H     2.4801628    1.2349272   -2.0210196 
H     2.7430739    1.1170232   -0.2688899 
H    -1.5553940    3.7471145   -2.4580476 
H    -0.4584108    4.6989747   -1.4307703 
H    -2.8624307    1.5918895    0.4351755 
H    -3.0405921    1.8530510   -1.3060286 
H     2.4932858   -6.3356840    1.1943940 
H     1.2658658   -5.6072208    2.2495098 
H     1.9846300   -3.4848283    3.7276958 
H     3.6460390   -2.8841283    3.5644855 
H     4.6399877   -1.3656044   -2.6888791 
H     3.2151458   -0.4750177   -3.2633804 
H     1.3004145   -1.7987789   -4.4985715 
H     1.4773746   -3.5528128   -4.7137645 
H     3.2086566    4.9656036    1.2453301 
H     2.9274098    5.1450586   -0.4962566 
H     3.9080846    3.2833280   -2.1321880 
H     4.8079485    1.9297211   -1.4217235 
H    -2.5282592    5.9879420   -1.9628327 
H    -2.3790433    5.7002952   -0.2166557 
H    -3.8610734    3.8470242    0.8923858 
H    -4.9540780    2.8875989   -0.1250483 
H     3.5171490   -5.4034454    3.3126045 
H     4.1607896   -4.6156593    1.8600664 
H     3.7094482   -2.3664408   -4.8176610 
H     3.6453135   -3.5206497   -3.4724398 
H     5.1516786    4.0785415   -0.1183901 
H     4.4065827    2.8109272    0.8747601 
H    -4.7299236    5.2649249   -0.9601972 
H    -4.1537415    4.0948940   -2.1637758 
H    -0.9542916   -4.6067044    0.3240838 
H     0.8140149    2.5028518   -3.4240164 
H    -4.2095875   -1.5760887   -1.9373536 
H    -2.2068047   -1.4543858   -3.8053460 
H    -3.1791314   -5.4577420   -0.2958446 
H     0.4007671    1.4829687   -5.6401700 
H    -4.8324200   -3.9693904   -1.4489810 
H    -1.0992857   -0.5156293   -5.8413836 
