120
Energy =
C    -1.5539808    0.6896925    2.7947054 
C    -0.6952432    1.8359115    2.7089463 
C    -0.8873959    2.7777801    1.6783272 
H     0.1789284    1.9146156    3.3676953 
Pd   -0.4614890    0.6691289    0.8568017 
P     1.0273774    1.2398318   -0.9068159 
P    -1.4016156   -1.3951707    0.1768785 
H    -2.6006413    0.8351576    2.4976508 
H    -1.8442002    2.7295414    1.1354709 
C    -0.9346403   -2.6102243    5.4930433 
C    -2.2243698   -2.2866451    5.0442414 
C    -2.4168566   -1.2006566    4.1808301 
C    -1.3236809   -0.4188478    3.7403635 
C    -0.0282673   -0.7612233    4.1977730 
C     0.1609288   -1.8393356    5.0689860 
H    -0.7826903   -3.4574217    6.1693143 
H    -3.0845925   -2.8784185    5.3738184 
H    -3.4285276   -0.9433390    3.8468466 
H     0.8409386   -0.1956124    3.8440895 
H     1.1702269   -2.0873919    5.4134385 
C     1.2802837    6.3957251    0.8728398 
C     0.2806720    5.9431279   -0.0030298 
C    -0.4255669    4.7712270    0.2869343 
C    -0.1316216    4.0143093    1.4468852 
C     0.8635659    4.4920363    2.3301745 
C     1.5577327    5.6729694    2.0455100 
H     1.8290132    7.3174017    0.6540366 
H     0.0466351    6.5075609   -0.9115515 
H    -1.2041326    4.4195992   -0.3982231 
H     1.0900846    3.9452635    3.2507485 
H     2.3184781    6.0362621    2.7439783 
O    -1.6645125    0.4941603   -1.9993723 
C     1.8184216   -0.1703646   -1.8765214 
C     2.3961252    2.3879159   -0.3178496 
C    -3.2705228   -1.3844944    0.4115899 
C    -0.7573459   -2.8001656    1.2321183 
C     2.2366621    0.1668615   -3.3244767 
C     2.9580999   -0.8724363   -1.1060962 
C     2.9432901    1.8941023    1.0472243 
C     3.5563105    2.6618416   -1.3038019 
C    -3.9350472   -0.0195477    0.1223820 
C    -4.0078157   -2.4787384   -0.3953211 
C    -1.5055462   -4.1506769    1.2726646 
C     0.7642825   -2.9638265    1.0216690 
C     2.7050892   -1.1063253   -4.0552554 
C     3.3868379   -2.1508067   -1.8494169 
C     3.9954265    2.8589909    1.6240927 
C     4.5568188    3.6665301   -0.7029213 
C    -5.4165482   -0.0469021    0.5393716 
C    -5.4951528   -2.5290736    0.0051722 
C    -0.8592083   -5.0903437    2.3097283 
C     1.3753580   -3.9407896    2.0405604 
C     3.8222825   -1.8326373   -3.2889802 
C     5.1266598    3.1452368    0.6250127 
C    -6.1795040   -1.1661189   -0.1890284 
C     0.6402369   -5.2897286    2.0410021 
C     0.0564422    2.1891050   -2.1583281 
C    -1.2060581   -1.7999752   -1.6070099 
C    -1.1999554    1.6786804   -2.5648539 
C    -1.3403158   -0.7400096   -2.5355540 
C     0.4327153    3.4517864   -2.6623541 
C    -0.9028446   -3.0796908   -2.1131300 
C    -2.0467069    2.3862935   -3.4251583 
C    -1.1625710   -0.9352747   -3.9107698 
C    -0.4004348    4.1633739   -3.5373181 
C    -0.7268757   -3.2914919   -3.4878029 
C    -1.6404478    3.6333829   -3.9205484 
C    -0.8556460   -2.2192713   -4.3826822 
H     0.9925873   -0.8993780   -1.9372557 
H     1.8635604    3.3410670   -0.1328472 
H    -3.3722359   -1.6015220    1.4947334 
H    -0.8892461   -2.3451422    2.2331716 
H     3.0523904    0.9109044   -3.3238442 
H     1.3902131    0.6225663   -3.8675901 
H     2.6369516   -1.1134520   -0.0786355 
H     3.8317829   -0.2012383   -1.0218059 
H     3.3974640    0.8941955    0.9269473 
H     2.1033301    1.7731507    1.7565758 
H     3.1805257    3.0303087   -2.2730292 
H     4.0906638    1.7188748   -1.5156770 
H    -3.8553998    0.1960601   -0.9577091 
H    -3.3983052    0.7965997    0.6360980 
H    -3.5440422   -3.4686263   -0.2602606 
H    -3.9216416   -2.2381769   -1.4719357 
H    -1.4932455   -4.6430606    0.2828210 
H    -2.5638700   -3.9882354    1.5376215 
H     1.2425550   -1.9716725    1.1137524 
H     0.9718148   -3.3228039   -0.0037785 
H     3.0411053   -0.8431594   -5.0744563 
H     1.8404667   -1.7875373   -4.1687556 
H     2.5355853   -2.8598123   -1.8705262 
H     4.2033423   -2.6469312   -1.2944093 
H     4.4001164    2.4399784    2.5632179 
H     3.5006455    3.8117370    1.8843396 
H     4.0455652    4.6347321   -0.5331155 
H     5.3683730    3.8552087   -1.4283771 
H    -5.8810611    0.9342773    0.3331345 
H    -5.4835281   -0.2044719    1.6349493 
H    -5.5727439   -2.8356110    1.0672709 
H    -6.0105867   -3.3072373   -0.5858661 
H    -1.3892533   -6.0595927    2.3047019 
H    -0.9952696   -4.6541325    3.3183340 
H     1.3080127   -3.4913360    3.0494768 
H     2.4493419   -4.0788855    1.8198581 
H     4.1073531   -2.7598213   -3.8175432 
H     4.7271570   -1.1936568   -3.2618995 
H     5.8373327    3.8741938    1.0535781 
H     5.7010643    2.2167692    0.4353676 
H    -7.2267561   -1.2085744    0.1595280 
H    -6.2149169   -0.9310901   -1.2710988 
H     1.0785784   -5.9643711    2.7978896 
H     0.7762072   -5.7858266    1.0591317 
H     1.3791947    3.9015829   -2.3552706 
H    -0.7942823   -3.9212612   -1.4255115 
H    -3.0165562    1.9536437   -3.6873752 
H    -1.2608449   -0.0901547   -4.5978811 
H    -0.0794643    5.1400402   -3.9128659 
H    -0.4894051   -4.2933989   -3.8575273 
H    -2.2959092    4.1902266   -4.5975395 
H    -0.7180690   -2.3783729   -5.4568562 
