120
Energy =
C    -1.6866856    0.7566238    2.6903117 
C    -0.8055632    1.8755979    2.5753334 
C    -0.9018234    2.7566595    1.4802770 
H     0.0131797    1.9925897    3.2958204 
Pd   -0.4621937    0.5825910    0.8173642 
P     1.0220059    1.1558183   -0.9697317 
P    -1.3547971   -1.5083334    0.1383868 
H    -2.6924165    0.8718511    2.2642671 
H    -1.8199568    2.7038364    0.8751331 
C    -1.4268072   -2.1165325    5.8893997 
C    -2.6561283   -1.8478292    5.2690484 
C    -2.7323992   -0.9029274    4.2379018 
C    -1.5799510   -0.2148897    3.7960460 
C    -0.3484094   -0.4915747    4.4370722 
C    -0.2745354   -1.4275033    5.4735944 
H    -1.3659315   -2.8544456    6.6957311 
H    -3.5611253   -2.3711861    5.5946265 
H    -3.7002668   -0.6839028    3.7725862 
H     0.5666721    0.0054239    4.0965142 
H     0.6886362   -1.6327211    5.9522808 
C     1.3531126    6.3413839    0.7630781 
C     0.3206717    5.9535368   -0.1042182 
C    -0.4091649    4.7875459    0.1525957 
C    -0.1113245    3.9755859    1.2723104 
C     0.9178427    4.3908951    2.1503430 
C     1.6390337    5.5614109    1.8974001 
H     1.9229481    7.2556313    0.5683285 
H     0.0795076    6.5624177   -0.9815237 
H    -1.2165734    4.4890825   -0.5241008 
H     1.1568437    3.7976649    3.0381422 
H     2.4285546    5.8722089    2.5892387 
O    -1.7803664    0.6077655   -1.8902440 
C     1.7535473   -0.2031387   -2.0562697 
C     2.4249302    2.2526655   -0.3629257 
C    -3.1731901   -1.6359146    0.5789841 
C    -0.5949187   -3.0848878    0.7968731 
C     2.0721124    0.2248719   -3.5058038 
C     2.9549890   -0.9256359   -1.4066055 
C     2.9780917    1.6914928    0.9733490 
C     3.5788046    2.5648340   -1.3454594 
C    -3.9965061   -0.4581494    0.0153092 
C    -3.8182340   -2.9803641    0.1798077 
C     0.9245619   -3.0825641    0.5409208 
C    -0.8954871   -3.2853014    2.2961919 
C     2.5070996   -0.9944151   -4.3405656 
C     3.3597764   -2.1474324   -2.2524794 
C     4.0413107    2.6202112    1.5881789 
C     4.5890771    3.5341654   -0.7035141 
C    -5.4483604   -0.5192602    0.5218222 
C    -5.2782014   -3.0457695    0.6709623 
C     1.5957269   -4.3557906    1.0825110 
C    -0.2247423   -4.5632461    2.8300730 
C     3.6881272   -1.7385292   -3.6973223 
C     5.1658313    2.9476752    0.5939848 
C    -6.1077788   -1.8589746    0.1558282 
C     1.2910173   -4.5538252    2.5760620 
C     0.0271344    2.2012429   -2.1264336 
C    -1.3496591   -1.7286416   -1.6954863 
C    -1.2941974    1.7960348   -2.4298977 
C    -1.5159754   -0.5948972   -2.5255877 
C     0.4538932    3.4416464   -2.6444597 
C    -1.1223015   -2.9697914   -2.3272202 
C    -2.1643840    2.5939160   -3.1807634 
C    -1.4286501   -0.6841610   -3.9220030 
C    -0.3979654    4.2371541   -3.4241812 
C    -1.0404906   -3.0746511   -3.7221243 
C    -1.7104633    3.8207346   -3.6862709 
C    -1.1875169   -1.9289494   -4.5171463 
H     0.9294793   -0.9368212   -2.1043927 
H     1.9060867    3.2029581   -0.1315247 
H    -3.1658858   -1.5614710    1.6833518 
H    -1.0529222   -3.9241798    0.2388625 
H     2.8770554    0.9818329   -3.5103282 
H     1.1868360    0.6975808   -3.9654484 
H     2.7133536   -1.2306316   -0.3753186 
H     3.8192926   -0.2415960   -1.3426147 
H     3.4231620    0.6943867    0.8015370 
H     2.1413119    1.5420231    1.6825936 
H     3.1995306    2.9848718   -2.2917117 
H     4.1063189    1.6323073   -1.6114072 
H    -3.9918795   -0.5109714   -1.0894034 
H    -3.5258447    0.5063407    0.2774573 
H    -3.2517476   -3.8313386    0.5966599 
H    -3.7893784   -3.0814420   -0.9223966 
H     1.3556928   -2.1935432    1.0422325 
H     1.1274132   -2.9735329   -0.5382333 
H    -1.9819190   -3.3292939    2.4813718 
H    -0.5136676   -2.4157830    2.8569258 
H     2.7651668   -0.6672394   -5.3639101 
H     1.6463203   -1.6846199   -4.4326835 
H     2.5271685   -2.8785924   -2.2605526 
H     4.2225047   -2.6533912   -1.7827546 
H     4.4514345    2.1531199    2.5018231 
H     3.5556785    3.5626343    1.8995379 
H     4.0839299    4.4957088   -0.4844449 
H     5.3966995    3.7531595   -1.4248208 
H    -6.0257447    0.3243243    0.1024798 
H    -5.4565074   -0.3916429    1.6231712 
H    -5.2829966   -3.0451253    1.7790543 
H    -5.7316593   -4.0021293    0.3543246 
H     2.6856152   -4.3007676    0.9080274 
H     1.2280995   -5.2311763    0.5115945 
H    -0.6754081   -5.4485606    2.3391269 
H    -0.4368965   -4.6559023    3.9102914 
H     3.9525720   -2.6278872   -4.2967310 
H     4.5805365   -1.0817045   -3.6960211 
H     5.8842821    3.6516775    1.0504090 
H     5.7330215    2.0258671    0.3564065 
H    -7.1350110   -1.9057733    0.5590609 
H    -6.1963797   -1.9282689   -0.9463519 
H     1.7495135   -5.4898497    2.9415836 
H     1.7502202   -3.7272367    3.1541690 
H     1.4569046    3.8100993   -2.4211782 
H    -0.9923024   -3.8715141   -1.7225913 
H    -3.1837333    2.2401388   -3.3604391 
H    -1.5488579    0.2156204   -4.5316607 
H    -0.0356308    5.1939107   -3.8129065 
H    -0.8584931   -4.0492901   -4.1846624 
H    -2.3824291    4.4466122   -4.2819474 
H    -1.1195032   -2.0005271   -5.6072679 
