111
Energy =
C    -3.2523489    2.2166236    0.1152233 
C    -1.9642308    2.2063571    0.5618407 
C    -0.7781656    2.0716567   -0.3021847 
H    -1.7654261    2.3795715    1.6239074 
Pd    0.1765882    0.1905696   -0.2104562 
P     0.4682577   -0.0000027   -2.5488004 
P    -0.2185822   -0.6475335    2.0257950 
H    -3.4313372    2.0445467   -0.9540381 
H    -1.0952631    2.1527841   -1.3513310 
C    -6.8357325    2.7014929    2.4370006 
C    -5.5937538    3.0441293    2.9992737 
C    -4.4197711    2.9083901    2.2536410 
C    -4.4560647    2.4166337    0.9242562 
C    -5.7184037    2.0961749    0.3682609 
C    -6.8934794    2.2310903    1.1162935 
H    -7.7539086    2.8132990    3.0228562 
H    -5.5452963    3.4314650    4.0225114 
H    -3.4642683    3.2067313    2.6984475 
H    -5.7686993    1.7272093   -0.6628680 
H    -7.8580938    1.9723196    0.6672929 
C     2.1245613    5.2359930    0.4453947 
C     0.8831865    5.5036486   -0.1531354 
C    -0.0301499    4.4657949   -0.3796425 
C     0.2763380    3.1344068   -0.0185048 
C     1.5249727    2.8857308    0.5824667 
C     2.4422872    3.9220749    0.8137448 
H     2.8378334    6.0475043    0.6225782 
H     0.6227926    6.5271431   -0.4431565 
H    -1.0013164    4.6855753   -0.8379838 
H     1.7838847    1.8554878    0.8547587 
H     3.4075539    3.6968785    1.2794974 
O     1.6489181   -1.5659738   -0.2305038 
C     3.7719478   -3.4381229   -0.1971459 
C     0.4492711    0.2701715    3.5862969 
C    -2.0151572   -1.3199986    2.2603186 
C    -1.1518431   -0.5132482   -3.4554841 
C     1.4915895    1.3385360   -3.4712694 
C     2.7250503   -3.4120298    0.9162754 
C     3.0516340   -3.0901406   -1.4979503 
C     0.8633733   -2.1626585    1.9721847 
C     1.5407721   -1.5021829   -2.6388733 
C     1.7437246   -2.4014334    0.8967845 
C     2.0871544   -2.0653187   -1.4701631 
C     4.5184819   -4.7809628   -0.2767226 
C     4.8025200   -2.3009466    0.0923526 
C     1.9880752    0.2964920    3.4268001 
C     0.0838166   -0.3693613    4.9419764 
C    -0.0866416    1.7190443    3.5648464 
C    -2.9104633   -0.2297393    2.8804769 
C    -2.1357841   -2.6008917    3.1099408 
C    -2.4995977   -1.6348120    0.8271081 
C    -2.2820835    0.4173936   -2.9687891 
C    -1.4676328   -1.9503733   -2.9804482 
C    -1.0907551   -0.4650944   -4.9948304 
C     2.6855385    1.6268585   -2.5326065 
C     0.6189664    2.6028567   -3.6278509 
C     2.0511446    0.9256462   -4.8489116 
C     2.7501759   -4.2795912    2.0187049 
C     3.3623002   -3.6596427   -2.7425695 
C     0.9501627   -3.0514508    3.0677844 
C     1.8862336   -2.1071321   -3.8674724 
C     1.8602042   -4.1104417    3.0842540 
C     2.7638743   -3.1925862   -3.9190017 
H     3.8310255   -5.6204842   -0.4753839 
H     5.0576749   -4.9805275    0.6633377 
H     5.2802651   -4.7515143   -1.0724842 
H     5.3164144   -2.4926711    1.0498135 
H     4.3036924   -1.3185515    0.1562916 
H     5.5537971   -2.2575972   -0.7147931 
H     2.4344745   -0.6990462    3.5834051 
H     2.2909801    0.6554878    2.4276757 
H     2.4152301    0.9870463    4.1762228 
H    -1.0049282   -0.4355403    5.0960820 
H     0.5256431   -1.3682487    5.0745509 
H     0.4910704    0.2708232    5.7462732 
H     0.3720434    2.2761288    4.4019134 
H     0.1773897    2.2425950    2.6336651 
H    -1.1789473    1.7591724    3.7024452 
H    -2.6708336   -0.0452590    3.9401011 
H    -2.8503902    0.7162471    2.3299274 
H    -3.9620612   -0.5650344    2.8326253 
H    -1.6020558   -3.4542034    2.6622193 
H    -1.7880135   -2.4591328    4.1463868 
H    -3.2070701   -2.8693237    3.1609765 
H    -1.8563900   -2.3925559    0.3448588 
H    -2.5114200   -0.7267663    0.1999633 
H    -3.5271263   -2.0405289    0.8701122 
H    -2.4192715    0.3287463   -1.8793753 
H    -2.0967796    1.4760811   -3.2179380 
H    -3.2275035    0.1209845   -3.4585588 
H    -1.4254466   -2.0246623   -1.8797270 
H    -0.7730504   -2.6924021   -3.4055349 
H    -2.4918839   -2.2154457   -3.2999008 
H    -0.9254900    0.5563440   -5.3741850 
H    -0.3192439   -1.1293741   -5.4147548 
H    -2.0640684   -0.8097524   -5.3901091 
H     2.3542738    2.0072840   -1.5546313 
H     3.3002987    0.7224303   -2.3747452 
H     3.3291422    2.3962561   -2.9966818 
H     0.2396851    2.9679160   -2.6617502 
H    -0.2305176    2.4393099   -4.3122121 
H     1.2398765    3.4093323   -4.0583136 
H     2.5774958    1.8010585   -5.2719431 
H     2.7894308    0.1126148   -4.7665333 
H     1.2717254    0.6339028   -5.5683772 
H     3.4867173   -5.0856533    2.0557932 
H     4.0896983   -4.4730559   -2.7972813 
H     0.2952059   -2.9143966    3.9263334 
H     1.4553389   -1.7281551   -4.7951100 
H     1.8908264   -4.7900258    3.9410925 
H     3.0041405   -3.6564640   -4.8801931 
