111
Energy =
C    -0.3688806    3.1893932   -0.4190501 
C    -0.6016646    2.9166095    0.9845170 
C     0.3970078    2.2772813    1.7328265 
H    -1.5417252    3.2281495    1.4582674 
Pd   -0.5726269    1.0227719   -0.1912127 
P    -1.5768842   -0.9360947    1.0244690 
P     0.7373044    0.3510707   -2.1618841 
H     0.6658911    3.4317152   -0.6867070 
H     1.3272941    2.0272713    1.2061906 
C    -3.3157333    5.1108376   -2.9091917 
C    -3.7171822    4.1763106   -1.9407741 
C    -2.7657320    3.5631114   -1.1200420 
C    -1.3875558    3.8556411   -1.2545459 
C    -1.0037789    4.8154098   -2.2214454 
C    -1.9559612    5.4352011   -3.0383981 
H    -4.0598423    5.5916431   -3.5523525 
H    -4.7768324    3.9257872   -1.8255023 
H    -3.0890753    2.8296504   -0.3756069 
H     0.0509251    5.0933102   -2.3177776 
H    -1.6370793    6.1795631   -3.7752921 
C     0.5520472    1.4775240    5.9325940 
C     1.3841279    0.7809849    5.0408955 
C     1.3379272    1.0707606    3.6751254 
C     0.4315309    2.0351474    3.1691484 
C    -0.3832159    2.7477668    4.0847033 
C    -0.3186367    2.4718495    5.4522653 
H     0.5932581    1.2598148    7.0048857 
H     2.0722876    0.0150237    5.4117228 
H     1.9906194    0.5343345    2.9802741 
H    -1.0547937    3.5320767    3.7212923 
H    -0.9444796    3.0355817    6.1514046 
O     1.3254730   -0.8809391    0.5202642 
C     3.3450381   -2.5737763    1.3713408 
C    -0.2883072    0.1524252   -3.7803218 
C     2.2864335    1.4837928   -2.5092283 
C    -3.1010358   -0.3459786    2.0510066 
C    -2.0513396   -2.6108751    0.1670362 
C     2.9483164   -2.5160203   -0.1173174 
C     2.0454052   -2.4523227    2.1827085 
C     1.6796109   -1.2173611   -1.8235515 
C    -0.2708706   -1.5575852    2.1789608 
C     2.0067454   -1.5383947   -0.4889767 
C     1.0377342   -1.6303665    1.6530135 
C     4.2424472   -1.3367256    1.6783876 
C     4.1178299   -3.8583021    1.7163020 
C     0.4920466    0.1524869   -5.1117259 
C    -1.2908339    1.3326577   -3.7753558 
C    -1.0931843   -1.1578598   -3.6732597 
C     1.8415540    2.8006652   -3.1750692 
C     3.3685369    0.8168637   -3.3887826 
C     2.9351244    1.7758627   -1.1383287 
C    -3.9767677   -1.4262603    2.7176182 
C    -3.9840090    0.4716611    1.0783841 
C    -2.5726243    0.6172866    3.1282017 
C    -3.2705011   -2.3497669   -0.7436180 
C    -2.3404964   -3.7820549    1.1297359 
C    -0.8387130   -3.0217849   -0.6854751 
C     3.4883712   -3.3066350   -1.1436105 
C     1.7745916   -3.0983227    3.4006607 
C     2.2470906   -2.0425571   -2.8178297 
C    -0.4894479   -2.2007949    3.4144761 
C     3.1117366   -3.0912929   -2.4791122 
C     0.5339836   -2.9296019    4.0350916 
H     3.7155576   -0.3968292    1.4421839 
H     5.1664055   -1.3759233    1.0764641 
H     4.5144105   -1.3228328    2.7478629 
H     5.0444539   -3.9226672    1.1223610 
H     3.5122409   -4.7603232    1.5251235 
H     4.4198328   -3.8569545    2.7765586 
H     1.0506260    1.0855126   -5.2788660 
H     1.1908562   -0.6947862   -5.1990420 
H    -0.2371970    0.0561174   -5.9370465 
H    -1.9099767    1.3281222   -2.8612326 
H    -0.7977103    2.3153560   -3.8392263 
H    -1.9626090    1.2363411   -4.6478575 
H    -1.7084852   -1.1700032   -2.7608930 
H    -1.7758443   -1.2276580   -4.5397464 
H    -0.4494786   -2.0529562   -3.6752068 
H     1.5959917    2.6629183   -4.2398592 
H     0.9635007    3.2388510   -2.6847581 
H     2.6674670    3.5333858   -3.1194813 
H     3.8562018   -0.0269895   -2.8765942 
H     2.9854780    0.4657426   -4.3576490 
H     4.1470497    1.5742391   -3.5972157 
H     3.2073060    0.8466149   -0.6092541 
H     2.2804288    2.3692632   -0.4831756 
H     3.8631877    2.3548788   -1.2962452 
H    -4.4823746   -2.0707840    1.9823497 
H    -3.4184642   -2.0665003    3.4183609 
H    -4.7665969   -0.9140911    3.2978729 
H    -4.4688048   -0.1529514    0.3127517 
H    -3.3836383    1.2387241    0.5597434 
H    -4.7795174    0.9833440    1.6506128 
H    -1.8708005    0.1442509    3.8333759 
H    -2.0592273    1.4644251    2.6566680 
H    -3.4227445    1.0201093    3.7086236 
H    -4.2019503   -2.2430885   -0.1643084 
H    -3.1407413   -1.4420394   -1.3582810 
H    -3.4047763   -3.2064683   -1.4288417 
H    -1.4846694   -3.9823677    1.7951762 
H    -2.5014821   -4.6901240    0.5191881 
H    -3.2387454   -3.6386561    1.7441473 
H    -0.4969535   -2.2079355   -1.3353739 
H     0.0103762   -3.3401325   -0.0567122 
H    -1.1157460   -3.8788853   -1.3259251 
H     4.2096144   -4.0944867   -0.9102796 
H     2.5316092   -3.7386141    3.8618641 
H     2.0224080   -1.8595577   -3.8705594 
H    -1.4762774   -2.1659938    3.8818899 
H     3.5260914   -3.7251074   -3.2690372 
H     0.3452374   -3.4161109    4.9970644 
