111
Energy =
C     0.8962869    3.2538367    0.5385295 
C    -0.3622564    2.8996508    0.1145938 
C    -1.3494968    2.1816998    0.9133137 
H    -0.6534568    3.1684040   -0.9050968 
Pd   -0.4160011    0.3332650    0.3702853 
P    -0.0620996   -0.6754241    2.5198951 
P    -0.9693506   -0.3037668   -1.9216328 
H     1.1958079    2.9772366    1.5550021 
H    -1.1288496    2.1621944    1.9877733 
C     3.9870188    5.2188790   -1.6919501 
C     4.2517805    4.6661971   -0.4291701 
C     3.2278522    4.0401108    0.2884690 
C     1.9161224    3.9412952   -0.2418409 
C     1.6663775    4.5156744   -1.5154869 
C     2.6890688    5.1436350   -2.2286563 
H     4.7848268    5.7155361   -2.2536397 
H     5.2580479    4.7290303   -0.0023629 
H     3.4364224    3.6112494    1.2754543 
H     0.6594060    4.4801920   -1.9433399 
H     2.4762666    5.5872411   -3.2069280 
C    -5.5916417    2.6887568    0.2460286 
C    -4.6728920    3.3783008   -0.5585537 
C    -3.2957758    3.2207675   -0.3563346 
C    -2.8014629    2.3618291    0.6520594 
C    -3.7450030    1.7019986    1.4743782 
C    -5.1191157    1.8556190    1.2737712 
H    -6.6674991    2.8116539    0.0851616 
H    -5.0298390    4.0534251   -1.3433267 
H    -2.6038506    3.7995446   -0.9741676 
H    -3.3870156    1.0405261    2.2666984 
H    -5.8259947    1.3250333    1.9201057 
O     1.3612826   -1.1066004   -0.1110712 
C     3.7199600   -2.4434543   -0.7881501 
C    -2.7266777   -0.9977655   -2.2924351 
C    -0.3385642    0.8634774   -3.3217652 
C     0.0435308    0.3123305    4.1736580 
C    -1.2460017   -2.1966277    2.6628362 
C     2.4532045   -2.6383682   -1.6256128 
C     3.2572640   -2.3840650    0.6681762 
C     0.2136111   -1.7180070   -2.1475076 
C     1.5774068   -1.5074294    2.2671126 
C     1.3392098   -1.8390986   -1.3099977 
C     2.0855099   -1.6627064    0.9595895 
C     4.3428870   -1.0635065   -1.1677398 
C     4.7619049   -3.5472960   -1.0327252 
C    -2.8443614   -2.3507890   -1.5593167 
C    -3.0953513   -1.1725349   -3.7798820 
C    -3.7233313   -0.0079261   -1.6537868 
C     1.0541545    1.3280207   -2.8350299 
C    -1.3182376    2.0524058   -3.4139524 
C    -0.1597833    0.2373213   -4.7195457 
C     0.9507633    1.5251255    3.8691767 
C     0.6128700   -0.3869031    5.4316380 
C    -1.3874026    0.7983479    4.4994050 
C    -2.6860595   -1.7075449    2.4010433 
C    -1.1738282   -2.9381228    4.0093869 
C    -0.8268326   -3.1660924    1.5326774 
C     2.3498401   -3.4869540   -2.7385866 
C     3.9384068   -2.9887125    1.7367730 
C     0.1590817   -2.5881117   -3.2587408 
C     2.2910238   -2.1474870    3.3032467 
C     1.1927220   -3.4902838   -3.5288249 
C     3.4588428   -2.8727471    3.0454842 
H     3.6299046   -0.2393696   -0.9965994 
H     4.6296879   -1.0601623   -2.2332602 
H     5.2419845   -0.8767345   -0.5559676 
H     5.0721623   -3.5537740   -2.0904767 
H     4.3706739   -4.5458991   -0.7740854 
H     5.6707794   -3.3600955   -0.4378367 
H    -2.1957303   -3.1284218   -1.9941493 
H    -2.5912511   -2.2465951   -0.4924499 
H    -3.8908236   -2.7008977   -1.6244462 
H    -3.0885838   -0.2153834   -4.3252998 
H    -2.4457268   -1.8847975   -4.3125817 
H    -4.1252756   -1.5711772   -3.8330495 
H    -3.6704821    0.9948428   -2.1059618 
H    -4.7517818   -0.3867415   -1.7964564 
H    -3.5444672    0.0991226   -0.5730315 
H     1.0306829    1.7358056   -1.8124179 
H     1.7769834    0.4936297   -2.8519662 
H     1.4365908    2.1151213   -3.5098105 
H    -2.2549844    1.7702871   -3.9227478 
H    -1.5857008    2.4466301   -2.4215187 
H    -0.8548020    2.8691329   -3.9974395 
H    -1.0964466   -0.1492396   -5.1461594 
H     0.5900247   -0.5698263   -4.7151453 
H     0.2122862    1.0255102   -5.4006103 
H     1.9358111    1.2107397    3.4810572 
H     0.4880826    2.2076406    3.1411272 
H     1.1165525    2.0973915    4.7998999 
H     1.7066419   -0.4977131    5.3808064 
H     0.1586159   -1.3661763    5.6388474 
H     0.3998182    0.2641990    6.2994958 
H    -1.8840383    1.2617285    3.6319344 
H    -2.0258874   -0.0221357    4.8664058 
H    -1.3347507    1.5604545    5.2977885 
H    -3.0625805   -1.0678266    3.2153988 
H    -2.7449535   -1.1390140    1.4569959 
H    -3.3602183   -2.5802466    2.3263537 
H    -0.1499202   -3.2757533    4.2426078 
H    -1.8105944   -3.8404165    3.9496090 
H    -1.5513576   -2.3269029    4.8452249 
H    -0.7427733   -2.6502814    0.5600706 
H     0.1352082   -3.6584439    1.7492444 
H    -1.5974992   -3.9513879    1.4311579 
H     3.1828801   -4.1437105   -3.0011924 
H     4.8503238   -3.5593648    1.5453811 
H    -0.7011898   -2.5496860   -3.9292824 
H     1.9194880   -2.1015674    4.3250135 
H     1.1153758   -4.1669024   -4.3851894 
H     3.9905316   -3.3570779    3.8701462 
