111
Energy =
C    -1.0724801    2.1945684    1.6738058 
C    -0.8811593    2.9907544    0.4775537 
C    -1.9157437    3.0794573   -0.4594986 
H     0.0452526    3.5626401    0.3423016 
Pd   -0.8056197    0.7945160    0.0464284 
P     0.5267265    0.1648790   -1.9961149 
P    -1.5285811   -1.1597952    1.3415771 
H    -2.1079495    2.1698752    2.0375550 
H    -2.8305440    2.5122297   -0.2364976 
C     1.7951720    2.3355521    4.9004648 
C     2.1443460    1.7199261    3.6894543 
C     1.2255417    1.6684607    2.6334543 
C    -0.0634935    2.2237215    2.7715928 
C    -0.4075420    2.8302120    4.0021670 
C     0.5153856    2.8923166    5.0526898 
H     2.5139493    2.3765853    5.7253746 
H     3.1344857    1.2689618    3.5680483 
H     1.4883612    1.1565326    1.7040777 
H    -1.4080236    3.2586875    4.1303471 
H     0.2340098    3.3736323    5.9950861 
C    -2.3354957    5.7021288   -3.8156804 
C    -3.2280031    4.6341089   -3.6270578 
C    -3.0771613    3.7866379   -2.5267035 
C    -2.0191434    3.9764210   -1.6016165 
C    -1.1393300    5.0727512   -1.7969192 
C    -1.2978790    5.9230521   -2.8927957 
H    -2.4564762    6.3724185   -4.6728842 
H    -4.0453865    4.4695867   -4.3362263 
H    -3.7745948    2.9552965   -2.3764736 
H    -0.3407213    5.2680429   -1.0746513 
H    -0.6175685    6.7700808   -3.0266945 
O     1.3382544   -0.9978349    0.6234617 
C     3.5585886   -2.4711370    1.4194196 
C    -2.9993983   -0.7745529    2.5399891 
C    -1.9814544   -2.7406920    0.3120033 
C    -0.4301215   -0.1446180   -3.6424839 
C     1.8486633    1.5686033   -2.2615566 
C     2.2576456   -2.5233250    2.2342580 
C     3.1533390   -2.4062753   -0.0636313 
C    -0.1193711   -1.8135284    2.3421547 
C     1.7199595   -1.2307325   -1.7230467 
C     1.1677455   -1.7735766    1.7604008 
C     2.0897514   -1.5491224   -0.3991747 
C     4.4767117   -3.6684478    1.7190276 
C     4.3102703   -1.1502109    1.7671344 
C    -3.9744481    0.1456466    1.7632007 
C    -2.4292594   -0.0445121    3.7807654 
C    -3.8284410   -1.9785144    3.0411187 
C    -0.7488058   -3.0662895   -0.5467493 
C    -3.1778017   -2.3744942   -0.5908433 
C    -2.2856294   -4.0071145    1.1418916 
C     0.3457489    0.1106005   -4.9523344 
C    -1.6399134    0.8179436   -3.5821557 
C    -0.9653314   -1.5925694   -3.6579403 
C     1.1325716    2.8290158   -2.7720413 
C     3.0178900    1.1985610   -3.1964236 
C     2.4384765    1.8540565   -0.8641635 
C     2.0706492   -3.2635962    3.4129581 
C     3.8037534   -3.0655155   -1.1187751 
C    -0.2542517   -2.5578856    3.5326394 
C     2.4099902   -1.9105532   -2.7484785 
C     0.8344280   -3.2524058    4.0744147 
C     3.4164288   -2.8374126   -2.4484008 
H     3.9809142   -4.6278086    1.4936019 
H     4.7795231   -3.6698861    2.7789739 
H     5.4033450   -3.6022304    1.1253132 
H     4.5827973   -1.1409027    2.8365089 
H     3.6775609   -0.2707946    1.5627842 
H     5.2297250   -1.0654081    1.1630892 
H    -4.8006812    0.4409823    2.4352559 
H    -3.4872539    1.0610523    1.3972319 
H    -4.4167419   -0.3667727    0.8938351 
H    -2.1037476   -0.7581924    4.5535320 
H    -1.5655613    0.5916703    3.5522526 
H    -3.2168414    0.5897680    4.2269195 
H    -3.2197416   -2.7474727    3.5411775 
H    -4.5538543   -1.5969566    3.7831851 
H    -4.4086318   -2.4561467    2.2364504 
H    -0.3937880   -2.1880503   -1.0982080 
H     0.0840585   -3.4512485    0.0659157 
H    -1.0121545   -3.8483539   -1.2813256 
H    -4.1141441   -2.2811340   -0.0161646 
H    -3.0034550   -1.4237614   -1.1259314 
H    -3.3310902   -3.1704368   -1.3423606 
H    -3.2620306   -3.9838175    1.6410619 
H    -1.5018892   -4.2019967    1.8932880 
H    -2.2945459   -4.8685547    0.4486688 
H     0.7081635    1.1463545   -5.0356468 
H     1.2015480   -0.5708339   -5.0822609 
H    -0.3411132   -0.0655529   -5.8006453 
H    -1.3363234    1.8764861   -3.5957839 
H    -2.2367001    0.6480881   -2.6678701 
H    -2.2904283    0.6435987   -4.4590423 
H    -0.1603767   -2.3450438   -3.6351110 
H    -1.6430943   -1.7825094   -2.8139111 
H    -1.5436529   -1.7416121   -4.5881962 
H     0.8221219    2.7452352   -3.8257849 
H     0.2394681    3.0436619   -2.1704837 
H     1.8120093    3.6978775   -2.6966239 
H     2.6965214    0.9239850   -4.2109509 
H     3.6285535    0.3783018   -2.7869662 
H     3.6722838    2.0857363   -3.2868943 
H     1.6616163    2.1683124   -0.1498864 
H     2.9555313    0.9729420   -0.4481321 
H     3.1802731    2.6700453   -0.9435929 
H     2.8926991   -3.8566473    3.8224169 
H     4.6259283   -3.7554515   -0.9108454 
H    -1.2253461   -2.6268409    4.0269289 
H     2.1675844   -1.7092316   -3.7941916 
H     0.7070637   -3.8210137    5.0006476 
H     3.9269249   -3.3631848   -3.2610322 
