111
Energy =
C     0.9070875    2.7392708    0.1703879 
C    -0.4261965    3.0753511    0.4427733 
C    -1.0541776    2.5787340    1.6502962 
H    -0.9867273    3.7275003   -0.2395898 
Pd   -0.7463571    0.8694268    0.3215981 
P    -0.6382060   -0.8829887    2.0411869 
P    -0.5811407   -0.0510437   -2.0135823 
H     1.4232412    2.1144303    0.9109661 
H    -0.3961381    2.4865675    2.5217206 
C     3.4529958    4.0961736   -2.9884017 
C     3.7694353    2.9356268   -2.2633585 
C     2.9403205    2.5200131   -1.2187328 
C     1.7582215    3.2347869   -0.9030778 
C     1.4670926    4.4189867   -1.6263848 
C     2.3095047    4.8442314   -2.6559054 
H     4.1059662    4.4297448   -3.8015845 
H     4.6650762    2.3572914   -2.5104460 
H     3.1889624    1.6203096   -0.6483594 
H     0.5863220    5.0145062   -1.3663408 
H     2.0805046    5.7652714   -3.2013168 
C    -5.1546200    3.4746376    2.6323061 
C    -4.7881181    3.2378073    1.2974942 
C    -3.4561439    2.9625676    0.9735619 
C    -2.4575815    2.9025337    1.9749329 
C    -2.8417211    3.1662465    3.3114273 
C    -4.1733449    3.4479942    3.6359760 
H    -6.1972955    3.6899001    2.8872723 
H    -5.5444986    3.2689238    0.5064047 
H    -3.1845366    2.7725249   -0.0689593 
H    -2.0829796    3.1712182    4.1007216 
H    -4.4465383    3.6545405    4.6759297 
O     1.5172636   -0.6994620   -0.0508448 
C     3.9195643   -2.0434821   -0.3495496 
C    -1.1491376   -1.8348374   -2.5251199 
C    -1.3778138    1.1981347   -3.2500662 
C     0.2573043   -0.3356374    3.6844918 
C    -2.3338020   -1.6883525    2.4708961 
C     3.2785544   -1.3300883   -1.5507238 
C     2.7687206   -2.6695720    0.4637391 
C     1.2264453   -0.2049443   -2.3807315 
C     0.5778099   -2.2053857    1.5560813 
C     2.0251630   -0.7326455   -1.3425141 
C     1.6311073   -1.8696683    0.6790978 
C     4.6193493   -0.9787202    0.5483189 
C     4.9543599   -3.0922552   -0.7920284 
C    -0.5544443   -2.7986938   -1.4843576 
C    -0.6530076   -2.3068343   -3.9082377 
C    -2.6912502   -1.8808473   -2.4623464 
C    -0.5240795    2.4773740   -3.2072871 
C    -2.7733546    1.5397350   -2.6751209 
C    -1.5475387    0.7478979   -4.7151518 
C    -0.6877228    0.5317007    4.5386367 
C     1.4935964    0.4869495    3.2598281 
C     0.7707503   -1.5138504    4.5431566 
C    -3.3459861   -0.5167774    2.5022355 
C    -2.4238812   -2.4747327    3.7956428 
C    -2.7207133   -2.6219255    1.3070665 
C     3.8310622   -1.2327199   -2.8388855 
C     2.7793864   -3.9396291    1.0611982 
C     1.8308073   -0.1044451   -3.6505875 
C     0.6340653   -3.4935952    2.1295258 
C     3.1324013   -0.5775028   -3.8650020 
C     1.7023607   -4.3583832    1.8590859 
H     3.9023785   -0.2100749    0.8827630 
H     5.4259205   -0.4794756   -0.0157261 
H     5.0539657   -1.4582541    1.4419817 
H     5.7827050   -2.6133030   -1.3394210 
H     4.5018730   -3.8602178   -1.4420520 
H     5.3995562   -3.5899314    0.0853637 
H     0.5408041   -2.8832617   -1.5882472 
H    -0.7774981   -2.4862966   -0.4576187 
H    -0.9798023   -3.8075380   -1.6358880 
H    -1.0638926   -1.7301249   -4.7470464 
H     0.4473050   -2.2894861   -3.9722496 
H    -0.9737786   -3.3567850   -4.0429252 
H    -3.1544965   -1.3578002   -3.3146944 
H    -3.0264381   -2.9332552   -2.4999554 
H    -3.0810109   -1.4350202   -1.5309128 
H    -0.5018057    2.8817373   -2.1875572 
H     0.5161658    2.3199946   -3.5337395 
H    -0.9772799    3.2428863   -3.8634528 
H    -3.4824903    0.7013106   -2.7481798 
H    -2.6969471    1.8261775   -1.6120589 
H    -3.1995898    2.3926498   -3.2344903 
H    -2.2463406   -0.0962506   -4.8177952 
H    -0.5962160    0.4754863   -5.1984521 
H    -1.9746493    1.5943912   -5.2842405 
H    -0.1000344    1.0519304    5.3171510 
H    -1.2092209    1.2899102    3.9415872 
H    -1.4514270   -0.0729476    5.0524918 
H     1.2197839    1.4226479    2.7504118 
H     2.1584443   -0.0901135    2.5947972 
H     2.0736356    0.7549137    4.1616141 
H    -0.0179038   -2.2303983    4.8140856 
H     1.5883981   -2.0611410    4.0489575 
H     1.1725052   -1.0944758    5.4843056 
H    -3.1371822    0.2102160    3.3028104 
H    -3.3519111    0.0329764    1.5447354 
H    -4.3595166   -0.9231857    2.6735570 
H    -1.7584226   -3.3525223    3.8195581 
H    -3.4581094   -2.8504477    3.9022717 
H    -2.2119753   -1.8509598    4.6768067 
H    -2.7181805   -2.0795134    0.3493942 
H    -2.0496822   -3.4923520    1.2202113 
H    -3.7459675   -2.9979576    1.4777172 
H     4.8113968   -1.6690673   -3.0494523 
H     3.6289010   -4.6115120    0.9118270 
H     1.2707471    0.3116810   -4.4912532 
H    -0.1578652   -3.8238410    2.8047798 
H     3.5855951   -0.4839692   -4.8567503 
H     1.7138040   -5.3573188    2.3056176 
