111
Energy =
C    -1.8120428    2.4982979    0.2704686 
C    -0.4650242    2.9412136    0.5135713 
C     0.4449528    2.8381871   -0.5630947 
H    -0.1358849    3.2426657    1.5118759 
Pd   -0.5150982    0.8022404    0.0825188 
P    -0.8756140   -0.1845126   -2.3021578 
P    -0.5750689   -0.6416280    2.0406563 
H    -2.1343109    2.5157583   -0.7794511 
H     0.0380577    2.8558427   -1.5758702 
C    -5.1632513    2.5994809    2.9642268 
C    -5.2456525    1.9197619    1.7377395 
C    -4.1456269    1.8989236    0.8755097 
C    -2.9353086    2.5458718    1.2238501 
C    -2.8748921    3.2436948    2.4508713 
C    -3.9779741    3.2661950    3.3128456 
H    -6.0237532    2.6200592    3.6406673 
H    -6.1706491    1.4072404    1.4546962 
H    -4.2101051    1.3642717   -0.0780760 
H    -1.9708230    3.7950412    2.7239835 
H    -3.9166961    3.8174402    4.2567619 
C     4.7124746    3.2798234   -0.4428932 
C     3.9691367    3.4348710    0.7396876 
C     2.5802609    3.2755758    0.7258158 
C     1.9002176    2.9712167   -0.4793323 
C     2.6667052    2.8061021   -1.6597477 
C     4.0562616    2.9565901   -1.6412622 
H     5.7996255    3.4082337   -0.4276014 
H     4.4772000    3.6863159    1.6763148 
H     2.0179390    3.4109463    1.6545310 
H     2.1576735    2.5539463   -2.5958334 
H     4.6291029    2.8246896   -2.5647277 
O     1.3031202   -0.5014879   -0.3089635 
C     3.9117058   -1.4489272   -0.5566873 
C     0.3040391    0.1383920    3.5894395 
C    -2.2024756   -1.5341197    2.5472586 
C    -1.2768299   -2.0646416   -2.5888905 
C    -1.7630262    0.8553459   -3.6704354 
C     2.9084441   -2.1416172    0.3802735 
C     3.1377316   -0.9758207   -1.7921156 
C     0.7491746   -1.8796888    1.5943222 
C     0.9423602   -0.2297530   -2.6836582 
C     1.6545955   -1.5356472    0.5669926 
C     1.8098435   -0.5601825   -1.6198323 
C     5.0853531   -2.3705082   -0.9335517 
C     4.4598800   -0.1984836    0.1942772 
C    -0.3867806    1.4672523    3.9522728 
C     1.7466252    0.4653509    3.1348180 
C     0.3511799   -0.7789957    4.8251889 
C    -2.9875939   -1.7603055    1.2372337 
C    -3.0049744   -0.5537877    3.4313373 
C    -2.0562108   -2.8874646    3.2699381 
C    -0.7348346   -2.6695525   -3.9003724 
C    -2.8064323   -2.2533771   -2.4986213 
C    -0.5952367   -2.8131650   -1.4259187 
C    -1.0446854    2.2170465   -3.8169670 
C    -3.1925007    1.1277324   -3.1372761 
C    -1.8907460    0.2054305   -5.0652446 
C     3.1973547   -3.2656767    1.1710795 
C     3.6646540   -0.9127478   -3.0935596 
C     1.0974974   -3.0066566    2.3712143 
C     1.5225630   -0.1663128   -3.9674078 
C     2.2832302   -3.7132258    2.1344439 
C     2.8760142   -0.4703249   -4.1639711 
H     4.7418294   -3.2717702   -1.4690217 
H     5.6359809   -2.6828661   -0.0311953 
H     5.8077176   -1.8360219   -1.5716140 
H     4.9581628   -0.5062691    1.1295932 
H     3.6490640    0.5053730    0.4422848 
H     5.1872646    0.3327241   -0.4413762 
H    -0.4011227    2.1412165    3.0844709 
H    -1.4205059    1.3427416    4.3032021 
H     0.1866458    1.9603928    4.7587423 
H     2.3719384   -0.4370280    3.0417523 
H     1.7551217    0.9956814    2.1648147 
H     2.2167467    1.1266972    3.8852994 
H    -0.6522493   -0.9903970    5.2286967 
H     0.8625508   -1.7324208    4.6177092 
H     0.9245053   -0.2686080    5.6215375 
H    -3.0874939   -0.8252177    0.6610698 
H    -2.4997056   -2.5134456    0.5994308 
H    -3.9990500   -2.1335937    1.4819811 
H    -2.5782814   -0.4598348    4.4426838 
H    -3.0758694    0.4483535    2.9786154 
H    -4.0342414   -0.9405469    3.5406190 
H    -1.4753408   -2.8146570    4.2031482 
H    -1.5998737   -3.6505564    2.6186264 
H    -3.0663084   -3.2481784    3.5392978 
H    -1.2072249   -2.2564263   -4.8017672 
H     0.3572131   -2.5432744   -3.9857289 
H    -0.9410787   -3.7563357   -3.8899463 
H    -3.3239749   -1.8678727   -3.3925614 
H    -3.2313584   -1.7595608   -1.6087843 
H    -3.0353144   -3.3326305   -2.4289696 
H     0.5020748   -2.8307372   -1.5404181 
H    -0.8303282   -2.3628623   -0.4504322 
H    -0.9404577   -3.8631213   -1.4151757 
H    -1.1608139    2.8375247   -2.9137112 
H     0.0304194    2.1192976   -4.0391160 
H    -1.5105244    2.7784985   -4.6469753 
H    -3.1716108    1.5958840   -2.1398953 
H    -3.7983267    0.2113696   -3.0682520 
H    -3.7104941    1.8210831   -3.8249332 
H    -0.9193560   -0.0324872   -5.5261739 
H    -2.4958564   -0.7136206   -5.0398410 
H    -2.4080189    0.9175505   -5.7347457 
H     4.1494230   -3.7885782    1.0501349 
H     4.7018546   -1.2058662   -3.2751014 
H     0.4443942   -3.3353018    3.1791286 
H     0.9045017    0.0901478   -4.8305312 
H     2.5162318   -4.5953779    2.7385447 
H     3.3062690   -0.4075078   -5.1682774 
