111
Energy =
C    -3.0718513    2.4534775   -0.3262108 
C    -1.9094521    2.3461356    0.3769841 
C    -0.5644890    2.3181204   -0.2001023 
H    -1.9673440    2.2591563    1.4668270 
Pd    0.2556311    0.3493801   -0.1329686 
P     0.2868241    0.0047081   -2.4741493 
P    -0.0256788   -0.4787532    2.1436778 
H    -3.0124649    2.5312047   -1.4179606 
H    -0.5835237    2.5233018   -1.2798454 
C    -7.0951227    2.3344817    1.1747347 
C    -6.0252712    2.4894421    2.0737017 
C    -4.7106197    2.5430497    1.6039431 
C    -4.4288049    2.4381171    0.2184273 
C    -5.5212232    2.3003828   -0.6728843 
C    -6.8375372    2.2437525   -0.2015375 
H    -8.1241879    2.2956300    1.5465126 
H    -6.2224827    2.5788764    3.1472365 
H    -3.8926335    2.6896626    2.3170856 
H    -5.3247591    2.2301650   -1.7493006 
H    -7.6658594    2.1325369   -0.9089954 
C     2.4814326    4.7428281    1.7380237 
C     2.8457674    3.7938942    0.7696960 
C     1.8661559    3.0075238    0.1535870 
C     0.4949130    3.1417240    0.4832323 
C     0.1477001    4.1178450    1.4453555 
C     1.1282439    4.9025088    2.0684921 
H     3.2455205    5.3571981    2.2250353 
H     3.8981572    3.6587014    0.4992960 
H     2.1681124    2.2478155   -0.5741712 
H    -0.9061097    4.2864715    1.6873765 
H     0.8288738    5.6527261    2.8079894 
O     1.6363961   -1.4974928   -0.2019154 
C     3.6743303   -3.4418552   -0.3418621 
C     0.4655441    0.5634637    3.6839562 
C    -1.7076574   -1.4075309    2.3248708 
C    -1.4710116   -0.1524755   -3.2426424 
C     1.4862417    1.0465886   -3.5707533 
C     2.8421096   -3.2725395    0.9273255 
C     2.7302371   -3.2088479   -1.5212082 
C     1.1817923   -1.8895788    2.1362589 
C     1.0904715   -1.6653022   -2.5494639 
C     1.8974060   -2.2301442    0.9721425 
C     1.8113457   -2.1458256   -1.4351108 
C     4.3795621   -4.8071103   -0.4093552 
C     4.7522681   -2.3125491   -0.3703045 
C    -0.6240713    1.6376749    3.8752106 
C     1.8042487    1.2207919    3.2801394 
C     0.6773821   -0.1682883    5.0270331 
C    -1.6458515   -2.5662618    1.3018282 
C    -2.8469290   -0.4513054    1.9229925 
C    -1.9946150   -1.9663767    3.7308658 
C    -2.3627067   -0.6851066   -2.0986313 
C    -1.6099910   -1.1090796   -4.4448772 
C    -1.9451349    1.2520063   -3.6754485 
C     2.8999394    0.7466494   -3.0151593 
C     1.1853331    2.5531261   -3.3942643 
C     1.4403029    0.7023830   -5.0725673 
C     3.0074342   -4.0573680    2.0789601 
C     2.8050396   -3.9133980   -2.7327867 
C     1.3787231   -2.7162524    3.2646705 
C     1.2236747   -2.3921559   -3.7539809 
C     2.2688925   -3.7929012    3.2369023 
C     2.0372081   -3.5254869   -3.8360218 
H     3.6586690   -5.6419898   -0.3948463 
H     5.0735252   -4.9250663    0.4386111 
H     4.9887152   -4.8821109   -1.3247747 
H     5.4319113   -2.4182075    0.4924942 
H     4.2847079   -1.3142017   -0.3239399 
H     5.3425337   -2.3775111   -1.3005272 
H    -0.8101497    2.1941657    2.9456072 
H    -1.5730516    1.2037935    4.2335376 
H    -0.2813619    2.3679876    4.6300755 
H     2.5885032    0.4593473    3.1194682 
H     1.7082344    1.8226207    2.3650618 
H     2.1405661    1.8889236    4.0935787 
H     1.5771673   -0.8019364    5.0152823 
H     0.8391522    0.6031197    5.8025785 
H    -0.1880899   -0.7708779    5.3414526 
H    -1.3274354   -2.2052374    0.3070249 
H    -0.9551847   -3.3641763    1.6200054 
H    -2.6543605   -3.0055922    1.1958449 
H    -2.9311353    0.4087550    2.6052589 
H    -2.7135874   -0.0694111    0.8997411 
H    -3.8073363   -0.9963983    1.9626481 
H    -2.1114074   -1.1647973    4.4785501 
H    -1.2220289   -2.6711812    4.0763982 
H    -2.9494066   -2.5232717    3.6952952 
H    -2.0340957   -1.6873767   -1.7736863 
H    -2.3531565   -0.0132811   -1.2246324 
H    -3.4046260   -0.7716790   -2.4585119 
H    -1.4196784   -2.1564218   -4.1625516 
H    -0.9593355   -0.8354714   -5.2911501 
H    -2.6543630   -1.0508061   -4.8032227 
H    -1.7754849    2.0125823   -2.8979239 
H    -1.4499919    1.5859846   -4.6016157 
H    -3.0316501    1.2145531   -3.8744826 
H     2.9403346    0.8529672   -1.9153416 
H     3.2345091   -0.2721988   -3.2710407 
H     3.6182764    1.4634742   -3.4518632 
H     1.2468427    2.8741531   -2.3440891 
H     0.2009526    2.8394131   -3.7930505 
H     1.9453456    3.1261872   -3.9561069 
H     1.7032184   -0.3478849   -5.2719868 
H     0.4571058    0.9189312   -5.5211477 
H     2.1851068    1.3291639   -5.5969867 
H     3.7232445   -4.8826863    2.0734656 
H     3.4878631   -4.7615081   -2.8241208 
H     0.8150740   -2.5271905    4.1767219 
H     0.6928533   -2.0651580   -4.6462605 
H     2.3939160   -4.4198096    4.1248380 
H     2.1027579   -4.0821995   -4.7755716 
