111
Energy =
C    -3.0689216    2.3862344    0.5474672 
C    -1.7299292    2.4763226    0.7906461 
C    -0.6856710    2.2413172   -0.2168257 
H    -1.3802783    2.7949423    1.7795310 
Pd    0.1562083    0.2994535   -0.1774723 
P     0.4069402    0.0615763   -2.5162407 
P    -0.3443473   -0.7316643    1.9666436 
H    -3.3874210    2.0480946   -0.4479565 
H    -1.1160902    2.3213780   -1.2236003 
C    -6.2995157    3.0074753    3.3078992 
C    -6.5070339    2.3193402    2.1025030 
C    -5.4480955    2.1436536    1.2049565 
C    -4.1525521    2.6385312    1.4959829 
C    -3.9664342    3.3457900    2.7108733 
C    -5.0261490    3.5241912    3.6041060 
H    -7.1280728    3.1528413    4.0086837 
H    -7.4987471    1.9234617    1.8600356 
H    -5.6141245    1.6053750    0.2645151 
H    -2.9879758    3.7786539    2.9439506 
H    -4.8648554    4.0809250    4.5332487 
C     2.6106023    5.0631399    0.1331860 
C     1.4339113    5.3949125   -0.5561251 
C     0.3917814    4.4644924   -0.6606003 
C     0.4993069    3.1807212   -0.0798692 
C     1.6846911    2.8677965    0.6171931 
C     2.7317321    3.7959564    0.7196976 
H     3.4264656    5.7889529    0.2124097 
H     1.3252549    6.3838354   -1.0139573 
H    -0.5269779    4.7366468   -1.1928582 
H     1.8011188    1.8713705    1.0583569 
H     3.6460592    3.5223271    1.2566678 
O     1.6920033   -1.4186247   -0.1791790 
C     3.8680365   -3.2051709   -0.2167778 
C    -0.4370922    0.1725067    3.6689721 
C    -1.8655119   -1.8817104    1.6739683 
C    -1.2391992   -0.2586504   -3.4665599 
C     1.5879039    1.2542674   -3.4538882 
C     2.9204093   -3.1530657    0.9816374 
C     3.0032036   -3.0023738   -1.4612842 
C     1.0307967   -1.9789440    2.0776024 
C     1.3524589   -1.5297098   -2.5666611 
C     1.8945250   -2.1895361    0.9818531 
C     2.0171676   -1.9993234   -1.4166868 
C     4.6829909   -4.5081806   -0.2709774 
C     4.8504573   -1.9960851   -0.1170818 
C    -0.1470522   -0.6511586    4.9418791 
C    -1.8465885    0.7880342    3.8081147 
C     0.6242624    1.2908909    3.5768599 
C    -1.4134003   -2.9289789    0.6283653 
C    -3.0001941   -1.0249323    1.0712957 
C    -2.3542854   -2.6186464    2.9346004 
C    -1.7658279   -1.6329898   -3.0001801 
C    -1.1321533   -0.2305178   -5.0053680 
C    -2.2541639    0.8181444   -3.0224639 
C     2.7753740    1.4657511   -2.4869473 
C     0.8422291    2.5854928   -3.6836007 
C     2.1443914    0.7267237   -4.7920767 
C     3.0390421   -3.9844019    2.1064131 
C     3.1915422   -3.6765082   -2.6779455 
C     1.1812313   -2.8564292    3.1742463 
C     1.5811373   -2.2342198   -3.7690787 
C     2.1669234   -3.8472619    3.1907261 
C     2.4589733   -3.3206429   -3.8176115 
H     4.0325457   -5.3966109   -0.3395198 
H     5.3183755   -4.6041234    0.6244130 
H     5.3623787   -4.5004192   -1.1388810 
H     5.4651343   -2.0847140    0.7949392 
H     4.3029715   -1.0389191   -0.0752119 
H     5.5167918   -1.9777170   -0.9965018 
H    -0.8044793   -1.5289688    5.0474981 
H     0.9049060   -0.9702157    5.0034372 
H    -0.3401389    0.0056755    5.8101403 
H    -2.1946587    1.2639843    2.8826983 
H    -2.5960122    0.0383758    4.1077212 
H    -1.8218824    1.5622668    4.5958352 
H     0.6648150    1.8345467    4.5384861 
H     1.6307545    0.8781957    3.3815603 
H     0.3892568    2.0183621    2.7857717 
H    -0.9160848   -2.4554909   -0.2368763 
H    -0.7206994   -3.6700576    1.0593849 
H    -2.3022064   -3.4678004    0.2535128 
H    -3.3869014   -0.2724075    1.7754171 
H    -2.6516031   -0.4959047    0.1670984 
H    -3.8408684   -1.6850598    0.7889173 
H    -2.7387121   -1.9313167    3.7040293 
H    -1.5649973   -3.2479899    3.3777749 
H    -3.1847097   -3.2909208    2.6489783 
H    -1.1257335   -2.4658302   -3.3327735 
H    -1.8465929   -1.6741138   -1.9015556 
H    -2.7767714   -1.7883513   -3.4192370 
H    -0.4513495   -0.9980234   -5.4053052 
H    -0.8155688    0.7537666   -5.3848503 
H    -2.1342147   -0.4379848   -5.4237386 
H    -2.4469038    0.7502976   -1.9398486 
H    -1.9208557    1.8423369   -3.2596057 
H    -3.2096574    0.6482261   -3.5510817 
H     2.4540129    1.9014046   -1.5287537 
H     3.3042050    0.5163905   -2.2866604 
H     3.4973363    2.1608874   -2.9527638 
H     0.4139876    2.9825674   -2.7511870 
H     0.0415521    2.4876918   -4.4355521 
H     1.5599252    3.3374988   -4.0583727 
H     2.7841297    1.5176120   -5.2256155 
H     2.7770708   -0.1641576   -4.6514631 
H     1.3623904    0.4971423   -5.5308026 
H     3.8184360   -4.7494246    2.1348406 
H     3.9281375   -4.4811025   -2.7425943 
H     0.5049040   -2.7817008    4.0230305 
H     1.0687922   -1.9228761   -4.6808700 
H     2.2545111   -4.5126424    4.0548521 
H     2.6038112   -3.8641781   -4.7559277 
