111
Energy =
C    -2.2157361    2.9877249   -1.1357407 
C    -1.6611076    2.5214333    0.0183060 
C    -0.2287219    2.3018298    0.2466298 
H    -2.3104911    2.2991848    0.8734685 
Pd    0.3227218    0.2694096    0.0647721 
P    -1.3840418   -0.9760427    1.2417347 
P     1.8811192    0.5321758   -1.7138240 
H    -1.5459488    3.1994678   -1.9788349 
H     0.3716418    2.7621713   -0.5512630 
C    -6.3820783    3.5776220   -2.0033303 
C    -5.9606700    3.4733367   -0.6663116 
C    -4.6077112    3.2960575   -0.3644562 
C    -3.6385033    3.2107250   -1.3954452 
C    -4.0790861    3.3421964   -2.7352189 
C    -5.4345354    3.5161754   -3.0365881 
H    -7.4423871    3.7205585   -2.2357897 
H    -6.6930698    3.5449072    0.1447812 
H    -4.2932518    3.2500584    0.6835755 
H    -3.3423679    3.2947225   -3.5457691 
H    -5.7533932    3.6090911   -4.0800388 
C     1.0982298    3.6188942    4.1806587 
C     1.7104575    2.5084377    3.5815340 
C     1.3004827    2.0781638    2.3126666 
C     0.2621783    2.7347953    1.6148576 
C    -0.3350765    3.8593349    2.2300431 
C     0.0790521    4.2967786    3.4953699 
H     1.4152648    3.9558996    5.1729346 
H     2.5074067    1.9694427    4.1046285 
H     1.7742609    1.1977104    1.8585345 
H    -1.1304045    4.3981738    1.7040140 
H    -0.3991901    5.1718082    3.9480764 
O     1.4415182   -1.7107656    0.2784338 
C     3.0430508   -3.9386174    0.9615417 
C     0.9959715    0.2180370   -3.3933285 
C     3.1038512    2.0185209   -1.7932771 
C    -1.6639547   -0.6999285    3.1279255 
C    -3.0438979   -1.1758469    0.2640516 
C     3.3488068   -3.1008296   -0.2783636 
C     1.5225582   -3.9814910    1.1180275 
C     2.9061881   -0.9958409   -1.5036850 
C    -0.5694636   -2.6544197    1.2260541 
C     2.5834333   -1.9422854   -0.5081389 
C     0.7880280   -2.8062512    0.8688876 
C     3.6207012   -3.1835288    2.2007356 
C     3.6703988   -5.3419244    0.8941627 
C     1.8808486    0.4131336   -4.6387133 
C    -0.2252118    1.1577843   -3.4619845 
C     0.5047880   -1.2473770   -3.3367513 
C     3.5067887    2.2876824   -0.3266589 
C     2.3613560    3.2480728   -2.3663229 
C     4.3954803    1.8015881   -2.6117061 
C    -0.2844291   -0.9508043    3.7807270 
C    -2.7227606   -1.6099700    3.7807710 
C    -2.0570491    0.7771076    3.3476934 
C    -2.6661101   -0.9435384   -1.2140213 
C    -4.0538065   -0.0968866    0.7034609 
C    -3.7226066   -2.5556018    0.3809863 
C     4.4090066   -3.3694864   -1.1582128 
C     0.8286202   -5.0930473    1.6202035 
C     3.9772063   -1.3178101   -2.3667748 
C    -1.2098209   -3.7974415    1.7563581 
C     4.7102188   -2.4966639   -2.2092996 
C    -0.5347429   -5.0094474    1.9198403 
H     3.1900025   -2.1709005    2.2851479 
H     4.7164293   -3.0897737    2.1096305 
H     3.3841814   -3.7388847    3.1244590 
H     4.7673752   -5.2712505    0.8165139 
H     3.2907686   -5.9192575    0.0342239 
H     3.4595090   -5.9043964    1.8179010 
H     2.2224460    1.4542452   -4.7541110 
H     2.7578591   -0.2540866   -4.6393620 
H     1.2820694    0.1625481   -5.5339161 
H    -0.8772382    1.0214141   -2.5846372 
H     0.0664326    2.2185881   -3.5178180 
H    -0.8133940    0.9249731   -4.3684539 
H    -0.0257635   -1.4581044   -2.3917348 
H    -0.2013270   -1.4228583   -4.1683923 
H     1.3367575   -1.9635590   -3.4347580 
H     2.6598116    2.6473187    0.2758451 
H     3.9199795    1.3822265    0.1533165 
H     4.2900858    3.0671195   -0.3047737 
H     2.1611420    3.1474359   -3.4453267 
H     1.4071864    3.4513817   -1.8527075 
H     3.0014069    4.1382612   -2.2291392 
H     4.2057533    1.5101171   -3.6564789 
H     5.0599900    1.0599670   -2.1419080 
H     4.9429741    2.7618793   -2.6341560 
H     0.0001989   -2.0158875    3.7468717 
H     0.5057823   -0.3556757    3.2912754 
H    -0.3287406   -0.6409283    4.8404261 
H    -2.4383424   -2.6730172    3.7589170 
H    -3.7182398   -1.4947868    3.3220673 
H    -2.8165140   -1.3229837    4.8444868 
H    -1.3171658    1.4632942    2.9120086 
H    -3.0507944    1.0150414    2.9381094 
H    -2.0916330    0.9735501    4.4346246 
H    -2.2404001    0.0624448   -1.3639813 
H    -1.9386358   -1.6948531   -1.5654933 
H    -3.5726878   -1.0310332   -1.8407712 
H    -3.6330323    0.9147895    0.6395844 
H    -4.4309576   -0.2665903    1.7248181 
H    -4.9201771   -0.1283925    0.0186031 
H    -3.0939076   -3.3663573   -0.0196922 
H    -4.0173903   -2.8007633    1.4145379 
H    -4.6484399   -2.5259627   -0.2225953 
H     5.0121493   -4.2696058   -1.0182542 
H     1.3635159   -6.0280148    1.8026294 
H     4.2338358   -0.6458742   -3.1845509 
H    -2.2548950   -3.7407261    2.0539284 
H     5.5285840   -2.7261927   -2.8981415 
H    -1.0665591   -5.8802458    2.3146298 
