111
Energy =
C    -1.7798812    2.5106862    0.2269314 
C    -0.4296525    2.9456616    0.4725509 
C     0.4879905    2.8285016   -0.5941088 
H    -0.1047170    3.2518292    1.4707761 
Pd   -0.5087216    0.7959974    0.0690821 
P    -0.8737573   -0.1981333   -2.3054545 
P    -0.5886134   -0.6109904    2.0492371 
H    -2.0966765    2.5219607   -0.8246808 
H     0.0891544    2.8277091   -1.6102729 
C    -5.1432537    2.6868123    2.9024101 
C    -5.2276216    1.9922213    1.6843917 
C    -4.1236049    1.9468669    0.8282097 
C    -2.9077086    2.5848073    1.1736841 
C    -2.8452552    3.2980670    2.3916434 
C    -3.9521388    3.3446266    3.2478645 
H    -6.0066705    2.7260880    3.5742860 
H    -6.1573459    1.4872939    1.4031584 
H    -4.1891568    1.3990430   -0.1177864 
H    -1.9363761    3.8428454    2.6618935 
H    -3.8888996    3.9074837    4.1847767 
C     4.7588124    3.2219716   -0.4463051 
C     4.0085951    3.3994003    0.7288426 
C     2.6179980    3.2577838    0.7060792 
C     1.9432411    2.9484305   -0.5008629 
C     2.7163529    2.7620174   -1.6738826 
C     4.1075058    2.8952814   -1.6464100 
H     5.8474457    3.3359372   -0.4238620 
H     4.5128642    3.6540866    1.6666419 
H     2.0503993    3.4104770    1.6288923 
H     2.2111238    2.5058188   -2.6109933 
H     4.6855724    2.7468593   -2.5640985 
O     1.2924310   -0.5255554   -0.3006050 
C     3.8927213   -1.5040158   -0.5285889 
C     0.2961543    0.1777071    3.5899981 
C    -2.2271445   -1.4788840    2.5630313 
C    -1.2992551   -2.0759258   -2.5705662 
C    -1.7411137    0.8377763   -3.6891294 
C     2.8792104   -2.1735695    0.4140027 
C     3.1279193   -1.0356954   -1.7714789 
C     0.7211348   -1.8707838    1.6206125 
C     0.9452629   -0.2714084   -2.6789677 
C     1.6317877   -1.5514493    0.5899564 
C     1.8043408   -0.6029668   -1.6086588 
C     5.0561740   -2.4439809   -0.8916229 
C     4.4540315   -0.2513953    0.2090573 
C    -0.3785802    1.5201851    3.9327953 
C     1.7440916    0.4798191    3.1353019 
C     0.3277954   -0.7232047    4.8383408 
C    -3.0219153   -0.4774936    3.4303857 
C    -2.0976639   -2.8231809    3.3055607 
C    -3.0105320   -1.7158420    1.2538606 
C    -0.6299141   -2.8191002   -1.3969331 
C    -0.7629106   -2.7036904   -3.8735931 
C    -2.8313628   -2.2431430   -2.4810644 
C    -1.8715178    0.1722097   -5.0763320 
C    -1.0036524    2.1878843   -3.8481176 
C    -3.1693342    1.1360134   -3.1664719 
C     3.1541075   -3.2898013    1.2208021 
C     3.6604257   -0.9919840   -3.0714976 
C     1.0552152   -2.9911222    2.4132099 
C     1.5310880   -0.2280998   -3.9609704 
C     2.2332499   -3.7142019    2.1881967 
C     2.8815645   -0.5501865   -4.1491995 
H     4.7030328   -3.3472626   -1.4173341 
H     5.6007496   -2.7522757    0.0157760 
H     5.7865126   -1.9257968   -1.5340172 
H     4.9460872   -0.5539631    1.1493540 
H     3.6511699    0.4651305    0.4464992 
H     5.1895208    0.2633454   -0.4308368 
H    -0.3751620    2.1854654    3.0581789 
H    -1.4172586    1.4141788    4.2751209 
H     0.1944135    2.0132769    4.7395893 
H     2.3581204   -0.4316711    3.0566437 
H     1.7619305    0.9965376    2.1580876 
H     2.2205418    1.1455844    3.8778568 
H     0.9069180   -0.2102428    5.6288167 
H    -0.6793118   -0.9147028    5.2426074 
H     0.8257960   -1.6866230    4.6449640 
H    -2.5967022   -0.3726705    4.4413085 
H    -3.0816718    0.5183834    2.9625372 
H    -4.0552495   -0.8522753    3.5429277 
H    -1.6482559   -3.6006389    2.6665544 
H    -1.5184888   -2.7434204    4.2392272 
H    -3.1124320   -3.1687047    3.5772587 
H    -2.5292946   -2.4842200    0.6292579 
H    -3.0977074   -0.7885034    0.6633525 
H    -4.0270598   -2.0735676    1.5008035 
H     0.4671420   -2.8544831   -1.5098931 
H    -0.8595954   -2.3524168   -0.4278387 
H    -0.9907761   -3.8635533   -1.3729310 
H     0.3293808   -2.5831710   -3.9641315 
H    -1.2366423   -2.3029638   -4.7798905 
H    -0.9733497   -3.7893193   -3.8454605 
H    -3.2506856   -1.7350147   -1.5966382 
H    -3.3422605   -1.8595240   -3.3796165 
H    -3.0748216   -3.3185015   -2.4012649 
H    -0.9019349   -0.0904982   -5.5274048 
H    -2.4941085   -0.7348656   -5.0426715 
H    -2.3708821    0.8848836   -5.7586897 
H    -1.4608255    2.7475697   -4.6841063 
H     0.0702175    2.0731663   -4.0679658 
H    -1.1120270    2.8187147   -2.9510451 
H    -3.7848957    0.2276920   -3.0799585 
H    -3.1472602    1.6255887   -2.1795493 
H    -3.6778026    1.8197970   -3.8706220 
H     4.1011921   -3.8239031    1.1100273 
H     4.6944252   -1.3001836   -3.2461200 
H     0.3970158   -3.3014603    3.2242117 
H     0.9194380    0.0262632   -4.8292516 
H     2.4552095   -4.5908009    2.8044058 
H     3.3168347   -0.5007356   -5.1520785 
