111
Energy =
C    -0.4055504    3.1514103   -0.6190277 
C    -0.3741271    3.0037590    0.8217176 
C     0.7398329    2.4014516    1.4240141 
H    -1.2050172    3.3792001    1.4331139 
Pd   -0.5863437    1.0175278   -0.1674406 
P    -1.3663293   -0.8024669    1.3807678 
P     0.3218084    0.1479384   -2.2822780 
H     0.5634592    3.3417592   -1.0941694 
H     1.5516241    2.0820023    0.7574966 
C    -3.7422438    4.9409298   -2.6783625 
C    -3.9672880    4.0990141   -1.5770965 
C    -2.8868959    3.5293190   -0.8966589 
C    -1.5545161    3.7734549   -1.3065428 
C    -1.3462471    4.6407463   -2.4054936 
C    -2.4265869    5.2172184   -3.0827687 
H    -4.5873707    5.3876113   -3.2119948 
H    -4.9897833    3.8867031   -1.2480329 
H    -3.0745674    2.8670816   -0.0463987 
H    -0.3247171    4.8817732   -2.7173577 
H    -2.2418290    5.8904050   -3.9262684 
C     1.6685492    1.9543653    5.5759251 
C     2.3065248    1.1577618    4.6109422 
C     2.0098412    1.3330037    3.2571378 
C     1.0408020    2.2807331    2.8445346 
C     0.4247326    3.0948795    3.8281292 
C     0.7404044    2.9334129    5.1789853 
H     1.9063095    1.8262317    6.6370431 
H     3.0386531    0.4030202    4.9144099 
H     2.5111418    0.7183583    2.5037670 
H    -0.2898909    3.8675111    3.5270823 
H     0.2667887    3.5746831    5.9291173 
O     1.3897761   -0.8745131    0.3394077 
C     3.5139587   -2.5458823    0.9412106 
C    -0.9893370   -0.1557057   -3.6609731 
C     1.7916742    1.2056475   -3.0063811 
C    -2.6594628   -0.0872714    2.6221645 
C    -2.0192697   -2.5238928    0.7698349 
C     2.8453977   -2.5998972   -0.4467591 
C     2.3906629   -2.3242636    1.9664412 
C     1.2929057   -1.4125302   -1.9915732 
C     0.1257774   -1.3689749    2.3183038 
C     1.8615750   -1.6312356   -0.7188309 
C     1.3111311   -1.5206531    1.5657061 
C     4.4660086   -1.3118099    0.9693699 
C     4.3245569   -3.8175799    1.2445267 
C    -0.4697808   -0.2846704   -5.1085004 
C    -1.9609360    1.0466082   -3.5717324 
C    -1.7741066   -1.4317375   -3.2972826 
C     2.6834158    0.4389255   -4.0095677 
C     2.6880377    1.5924801   -1.8095253 
C     1.2450035    2.4742389   -3.6898506 
C    -1.9223623    0.9402555    3.4987272 
C    -3.4102999   -1.0852891    3.5266938 
C    -3.6971694    0.6801518    1.7685701 
C    -0.9940596   -3.0379861   -0.2553145 
C    -3.3826707   -2.2963787    0.0818853 
C    -2.1418039   -3.6061686    1.8630870 
C     3.1741177   -3.4866515   -1.4838532 
C     2.3454601   -2.8629226    3.2632697 
C     1.6537864   -2.3321045   -2.9993198 
C     0.1350482   -1.9054152    3.6223465 
C     2.5551946   -3.3721643   -2.7390708 
C     1.2476791   -2.6104429    4.1006679 
H     3.9141514   -0.3806448    0.7565507 
H     5.2597531   -1.4242264    0.2112539 
H     4.9343614   -1.2179165    1.9642465 
H     5.1226617   -3.9543697    0.4962068 
H     3.6846854   -4.7162165    1.2469669 
H     4.8200519   -3.7373350    2.2259609 
H     0.0578388    0.6166269   -5.4546990 
H     0.1918151   -1.1541726   -5.2507457 
H    -1.3405869   -0.4291217   -5.7740661 
H    -2.3997038    1.1322358   -2.5622971 
H    -1.4780514    2.0078647   -3.8080094 
H    -2.7837350    0.8971158   -4.2944879 
H    -2.2115384   -1.3533207   -2.2906052 
H    -2.6048511   -1.5549043   -4.0158931 
H    -1.1508824   -2.3402049   -3.3398697 
H     3.2488529   -0.3721106   -3.5250569 
H     2.1228234    0.0184526   -4.8567943 
H     3.4175617    1.1551913   -4.4233418 
H     2.1754255    2.2592121   -1.1005298 
H     3.0404306    0.7035165   -1.2590063 
H     3.5788741    2.1272844   -2.1861883 
H     0.4762018    2.9734323   -3.0871014 
H     0.8062373    2.2553622   -4.6759053 
H     2.0740631    3.1880954   -3.8488227 
H    -1.1072554    0.5027955    4.0967099 
H    -1.4945365    1.7319903    2.8715628 
H    -2.6413773    1.4125725    4.1929846 
H    -2.7399685   -1.6875714    4.1596263 
H    -4.0562085   -1.7677088    2.9537217 
H    -4.0670074   -0.5056262    4.2015916 
H    -3.1930768    1.3888411    1.0892895 
H    -4.3255128    0.0146334    1.1572924 
H    -4.3640716    1.2560746    2.4360641 
H    -0.7663512   -2.2877590   -1.0214125 
H    -0.0478263   -3.3327961    0.2297267 
H    -1.3997712   -3.9329930   -0.7612108 
H    -3.3543954   -1.4440542   -0.6190916 
H    -4.1876766   -2.1149590    0.8125455 
H    -3.6569598   -3.1992779   -0.4933738 
H    -1.1804656   -3.7775515    2.3745028 
H    -2.9087899   -3.3884414    2.6175544 
H    -2.4259139   -4.5547302    1.3702470 
H     3.9177352   -4.2716597   -1.3222211 
H     3.1679862   -3.4845531    3.6275705 
H     1.2368544   -2.2309032   -4.0034719 
H    -0.7459354   -1.8059519    4.2607663 
H     2.8064345   -4.0799493   -3.5349023 
H     1.2365731   -3.0132340    5.1181913 
