111
Energy =
C    -0.3650330    2.0692563    2.0173960 
C    -0.5804463    2.8115935    0.8368277 
C    -1.7971102    2.5449372    0.1173139 
H     0.1698815    3.5056533    0.4455963 
Pd   -0.5577123    0.7667322    0.0253532 
P     0.6913751    0.5274731   -2.0628511 
P    -1.8877307   -1.1944192    1.0280577 
H    -1.2413563    1.6223194    2.4906317 
H    -2.5957921    2.0725625    0.7043259 
C     3.1423981    1.8564451    4.4795890 
C     2.0406174    1.0200152    4.7205665 
C     0.9103948    1.0994174    3.9028657 
C     0.8565399    2.0118017    2.8186894 
C     1.9795079    2.8441954    2.5861815 
C     3.1061790    2.7677130    3.4104661 
H     4.0260756    1.8023562    5.1236782 
H     2.0616192    0.3055310    5.5496684 
H     0.0543200    0.4439589    4.0920097 
H     1.9606451    3.5774082    1.7747577 
H     3.9589734    3.4289830    3.2259417 
C    -3.3649957    4.6714121   -3.2728352 
C    -3.9983218    3.5118945   -2.7956673 
C    -3.4754789    2.8349732   -1.6908317 
C    -2.3007672    3.2911276   -1.0460646 
C    -1.6947135    4.4784161   -1.5176009 
C    -2.2196289    5.1578570   -2.6227704 
H    -3.7735890    5.2049510   -4.1371113 
H    -4.9025687    3.1385891   -3.2869616 
H    -3.9657271    1.9258048   -1.3266461 
H    -0.8265032    4.8941721   -0.9979918 
H    -1.7411624    6.0790673   -2.9706440 
O     1.0396981   -0.7738226    0.6303902 
C     3.2581168   -2.0843578    1.6914318 
C    -3.4986302   -0.8765865    2.0513180 
C    -2.0865772   -2.8486690    0.0323006 
C    -0.1738078    0.2092258   -3.7491900 
C     2.0621856    1.8900902   -2.2252525 
C     1.8860049   -2.2133023    2.3638870 
C     3.0169097   -2.0589808    0.1740077 
C    -0.5433863   -1.7219838    2.1975540 
C     1.7929256   -0.9100443   -1.6572921 
C     0.7920182   -1.5750694    1.7600182 
C     1.9658465   -1.2584900   -0.3028551 
C     4.2139104   -3.2156569    2.1082066 
C     3.8808524   -0.7122667    2.0904742 
C    -4.2356080   -2.1213809    2.5909138 
C    -4.4669440   -0.1295948    1.1001232 
C    -3.1716088    0.0648336    3.2338081 
C    -3.2181172   -2.6387061   -0.9962782 
C    -2.3335701   -4.1222296    0.8666868 
C    -0.7460034   -3.0414560   -0.7039813 
C     0.6687026    0.4753260   -5.0119417 
C    -1.4010037    1.1489205   -3.7414026 
C    -0.6831127   -1.2460743   -3.7711658 
C     2.6859538    1.9996110   -0.8157246 
C     1.3548127    3.2067125   -2.5930038 
C     3.2093857    1.6067647   -3.2154816 
C     1.6410645   -2.9226918    3.5520310 
C     3.8311788   -2.6795993   -0.7878999 
C    -0.7340073   -2.4317608    3.4014687 
C     2.6389297   -1.5547061   -2.5847263 
C     0.3488746   -2.9957963    4.0884074 
C     3.6178226   -2.4604224   -2.1571411 
H     3.8098540   -4.2089102    1.8488920 
H     4.4015458   -3.1845737    3.1938235 
H     5.1927377   -3.0927294    1.6161998 
H     4.0749547   -0.6896424    3.1754750 
H     3.2009037    0.1216213    1.8510488 
H     4.8325482   -0.5582931    1.5534313 
H    -5.1011889   -1.7811003    3.1890399 
H    -4.6305314   -2.7483812    1.7772326 
H    -3.6119049   -2.7530810    3.2421475 
H    -4.0095530    0.7847702    0.6901579 
H    -4.7896602   -0.7550779    0.2533985 
H    -5.3715923    0.1671026    1.6618700 
H    -2.8794302    1.0691214    2.8870697 
H    -4.0815244    0.1959310    3.8467441 
H    -2.3766642   -0.3229715    3.8911972 
H    -4.2134825   -2.6468630   -0.5214401 
H    -3.1011607   -1.6852056   -1.5417746 
H    -3.2002923   -3.4598765   -1.7359340 
H    -1.5847674   -4.2357106    1.6688128 
H    -3.3367486   -4.1671956    1.3107358 
H    -2.2326936   -4.9973713    0.1978945 
H     0.0577128   -3.3476456   -0.0129248 
H    -0.4265757   -2.1258448   -1.2205411 
H    -0.8557698   -3.8398409   -1.4600638 
H     0.9782069    1.5291899   -5.0928591 
H     1.5667324   -0.1608404   -5.0708352 
H     0.0467188    0.2484011   -5.8974628 
H    -1.1252868    2.2143514   -3.6717587 
H    -2.0600120    0.9173204   -2.8892407 
H    -1.9767841    1.0091611   -4.6747446 
H     0.1346885   -1.9848775   -3.7484909 
H    -1.3559602   -1.4447434   -2.9233471 
H    -1.2610318   -1.4041461   -4.7001439 
H     1.9169505    2.0614130   -0.0294719 
H     3.3296009    1.1328713   -0.5897867 
H     3.3143475    2.9075911   -0.7629582 
H     0.4993120    3.3966393   -1.9282951 
H     0.9805345    3.2027691   -3.6302625 
H     2.0638069    4.0499860   -2.4984433 
H     3.7417103    0.6729572   -2.9729465 
H     2.8825560    1.5697257   -4.2635050 
H     3.9422621    2.4308875   -3.1295785 
H     2.4660883   -3.4211203    4.0673234 
H     4.6483495   -3.3326839   -0.4709694 
H    -1.7434521   -2.5727401    3.7939488 
H     2.5351558   -1.3401167   -3.6513965 
H     0.1767790   -3.5345632    5.0252951 
H     4.2493039   -2.9656983   -2.8941944 
