111
Energy =
C    -1.7779618    2.5143311    0.2309283 
C    -0.4280231    2.9458114    0.4829676 
C     0.4932005    2.8299914   -0.5810551 
H    -0.1062221    3.2485599    1.4832688 
Pd   -0.5071019    0.7986029    0.0711732 
P    -0.8618925   -0.1882139   -2.3098167 
P    -0.5999727   -0.6182203    2.0428746 
H    -2.0906342    2.5285641   -0.8219041 
H     0.0980830    2.8353454   -1.5986380 
C    -5.1513270    2.6863352    2.8939383 
C    -5.2323937    1.9970395    1.6727003 
C    -4.1252297    1.9532160    0.8205064 
C    -2.9093163    2.5870088    1.1734605 
C    -2.8501884    3.2951744    2.3945640 
C    -3.9603164    3.3405204    3.2466151 
H    -6.0171909    2.7244108    3.5627280 
H    -6.1619521    1.4949648    1.3858731 
H    -4.1884621    1.4099655   -0.1282816 
H    -1.9412437    3.8368980    2.6706719 
H    -3.8996872    3.8996070    4.1859551 
C     4.7642637    3.2150160   -0.4152201 
C     4.0099329    3.3875235    0.7580144 
C     2.6191546    3.2486679    0.7292319 
C     1.9483952    2.9467849   -0.4818152 
C     2.7256055    2.7651301   -1.6528454 
C     4.1168791    2.8959007   -1.6194765 
H     5.8530100    3.3268792   -0.3880974 
H     4.5111294    3.6360757    1.6991021 
H     2.0483991    3.3976515    1.6507102 
H     2.2235413    2.5148182   -2.5932269 
H     4.6980786    2.7515602   -2.5358386 
O     1.2938074   -0.5253733   -0.2960284 
C     3.8934722   -1.5074515   -0.5151627 
C     0.2779976    0.1620031    3.5919651 
C    -2.2430579   -1.4850807    2.5439962 
C    -1.2868391   -2.0646868   -2.5853959 
C    -1.7223989    0.8537997   -3.6932534 
C     2.8740595   -2.1792011    0.4195178 
C     3.1357161   -1.0325564   -1.7598948 
C     0.7100193   -1.8783274    1.6159332 
C     0.9587668   -0.2611844   -2.6749633 
C     1.6267425   -1.5557904    0.5916832 
C     1.8120869   -0.5982399   -1.6017996 
C     5.0570667   -2.4479374   -0.8763544 
C     4.4532130   -0.2589114    0.2305083 
C     1.7290866    0.4632350    3.1467799 
C     0.3009455   -0.7446872    4.8363241 
C    -0.3958212    1.5043624    3.9369697 
C    -3.0211057   -1.7122779    1.2298735 
C    -3.0396262   -0.4872794    3.4138222 
C    -2.1197679   -2.8341768    3.2788006 
C    -0.6260161   -2.8134659   -1.4105323 
C    -0.7419483   -2.6872173   -3.8874025 
C    -2.8196161   -2.2314152   -2.5069439 
C    -1.8466509    0.1946153   -5.0840585 
C    -0.9837575    2.2042959   -3.8431133 
C    -3.1528076    1.1502862   -3.1755645 
C     3.1429273   -3.2993681    1.2228893 
C     3.6746425   -0.9843603   -3.0571046 
C     1.0381224   -3.0026430    2.4053863 
C     1.5509137   -0.2133275   -3.9538853 
C     2.2163065   -3.7264715    2.1835701 
C     2.9018192   -0.5366989   -4.1367664 
H     4.7049564   -3.3484262   -1.4075308 
H     5.5966854   -2.7609208    0.0324028 
H     5.7914204   -1.9283566   -1.5130244 
H     4.9402021   -0.5662560    1.1719008 
H     3.6503182    0.4578618    0.4670933 
H     5.1926036    0.2573736   -0.4036203 
H     2.3418397   -0.4490658    3.0675916 
H     1.7535075    0.9842605    2.1720073 
H     2.2025194    1.1247698    3.8950301 
H    -0.7087302   -0.9364386    5.2339924 
H     0.7985078   -1.7080102    4.6413678 
H     0.8763789   -0.2363070    5.6324368 
H    -0.3852407    2.1737370    3.0655250 
H    -1.4368821    1.3992086    4.2722079 
H     0.1732295    1.9922489    4.7496988 
H    -3.1031327   -0.7813489    0.6442919 
H    -2.5390481   -2.4782680    0.6029947 
H    -4.0396804   -2.0687357    1.4701009 
H    -2.6184027   -0.3888559    4.4270455 
H    -3.0958910    0.5113140    2.9513653 
H    -4.0740221   -0.8609878    3.5200082 
H    -1.5454989   -2.7611303    4.2160646 
H    -1.6681180   -3.6083532    2.6373817 
H    -3.1365210   -3.1797396    3.5429023 
H     0.4717858   -2.8486583   -1.5158796 
H    -0.8623586   -2.3512447   -0.4409064 
H    -0.9872731   -3.8579277   -1.3939177 
H     0.3516867   -2.5714390   -3.9672376 
H    -1.2052936   -2.2787318   -4.7955963 
H    -0.9578632   -3.7719711   -3.8677384 
H    -3.2446804   -1.7267506   -1.6232552 
H    -3.3243026   -1.8437936   -3.4072704 
H    -3.0641362   -3.3069733   -2.4332546 
H    -0.8748449   -0.0640342   -5.5327356 
H    -2.4677385   -0.7137067   -5.0573032 
H    -2.3446480    0.9097811   -5.7648116 
H     0.0912396    2.0900724   -4.0577242 
H    -1.0967592    2.8317361   -2.9442398 
H    -1.4362565    2.7673076   -4.6794167 
H    -3.7696279    0.2420597   -3.0974328 
H    -3.1347293    1.6337056   -2.1855013 
H    -3.6573677    1.8388603   -3.8778547 
H     4.0896612   -3.8346141    1.1146596 
H     4.7089404   -1.2936777   -3.2279571 
H     0.3751130   -3.3155742    3.2114584 
H     0.9438046    0.0453976   -4.8240761 
H     2.4336330   -4.6060775    2.7971431 
H     3.3421591   -0.4837075   -5.1372493 
