111
Energy =
C    -1.0380410    2.2301687    1.6514033 
C    -0.8422169    3.0082066    0.4439906 
C    -1.8805823    3.0992133   -0.4886227 
H     0.0911996    3.5655049    0.2966559 
Pd   -0.7965974    0.8054432    0.0412510 
P     0.5179431    0.1348077   -1.9996874 
P    -1.5355520   -1.1237293    1.3651736 
H    -2.0720971    2.2238392    2.0200159 
H    -2.8016891    2.5470851   -0.2539078 
C     1.8447404    2.3700941    4.8645986 
C     2.1810246    1.7370557    3.6589178 
C     1.2574094    1.6861793    2.6071219 
C    -0.0238147    2.2595190    2.7442781 
C    -0.3547873    2.8840783    3.9694111 
C     0.5730499    2.9453889    5.0156509 
H     2.5672464    2.4104570    5.6862751 
H     3.1647330    1.2719641    3.5385605 
H     1.5098643    1.1607816    1.6824051 
H    -1.3489762    3.3271968    4.0968334 
H     0.3017703    3.4405715    5.9538112 
C    -2.2782310    5.6807768   -3.8791901 
C    -3.1837938    4.6270773   -3.6729998 
C    -3.0406943    3.7934330   -2.5611004 
C    -1.9773913    3.9824574   -1.6419300 
C    -1.0845615    5.0649097   -1.8548209 
C    -1.2354890    5.9017150   -2.9620998 
H    -2.3928848    6.3401137   -4.7457051 
H    -4.0051665    4.4629506   -4.3776369 
H    -3.7481925    2.9732438   -2.3972977 
H    -0.2815279    5.2601231   -1.1374549 
H    -0.5449526    6.7381231   -3.1096995 
O     1.3300428   -1.0054048    0.6298351 
C     3.5364102   -2.4959463    1.4313684 
C    -2.9954888   -0.7077169    2.5671737 
C    -2.0137255   -2.7106541    0.3558707 
C    -0.4512226   -0.1830448   -3.6373252 
C     1.8560540    1.5182158   -2.2892202 
C     2.2389439   -2.5241129    2.2528649 
C     3.1240969   -2.4440136   -0.0501901 
C    -0.1287296   -1.7842431    2.3649399 
C     1.6952677   -1.2720629   -1.7158935 
C     1.1558025   -1.7661691    1.7763425 
C     2.0688835   -1.5783456   -0.3902601 
C     4.4426960   -3.6998595    1.7404005 
C     4.3044925   -1.1795687    1.7598995 
C    -3.8356005   -1.8965573    3.0857128 
C    -3.9635579    0.2155438    1.7853546 
C    -2.4121074    0.0293266    3.7969468 
C    -3.2101394   -2.3395796   -0.5448882 
C    -2.3290536   -3.9641033    1.2011750 
C    -0.7896747   -3.0610264   -0.5053486 
C    -1.0045567   -1.6242500   -3.6320705 
C     0.3206489    0.0462382   -4.9543473 
C    -1.6486326    0.7951843   -3.5828818 
C     3.0155572    1.1219545   -3.2254500 
C     2.4569570    1.8133113   -0.8985773 
C     1.1533384    2.7812733   -2.8115688 
C     2.0487612   -3.2505170    3.4396390 
C     3.7605293   -3.1240579   -1.1006412 
C    -0.2667932   -2.5156181    3.5631333 
C     2.3710323   -1.9729338   -2.7366285 
C     0.8158553   -3.2182302    4.1065182 
C     3.3681250   -2.9079715   -2.4307669 
H     3.9351826   -4.6561785    1.5286028 
H     4.7508381   -3.6923458    2.7987958 
H     5.3669740   -3.6508262    1.1413642 
H     4.5826082   -1.1609546    2.8277054 
H     3.6805287   -0.2955904    1.5485335 
H     5.2217452   -1.1120384    1.1503322 
H    -3.2332822   -2.6668172    3.5913998 
H    -4.5530270   -1.4986275    3.8269396 
H    -4.4252001   -2.3764370    2.2892702 
H    -3.4669424    1.1203582    1.4059328 
H    -4.4174794   -0.3012819    0.9246339 
H    -4.7820249    0.5291416    2.4586620 
H    -1.5570861    0.6713581    3.5534832 
H    -3.1982977    0.6588674    4.2522835 
H    -2.0697611   -0.6791969    4.5670697 
H    -4.1422531   -2.2281808    0.0334545 
H    -3.0267677   -1.3970820   -1.0914233 
H    -3.3772736   -3.1418554   -1.2866619 
H    -1.5443183   -4.1599045    1.9512728 
H    -3.3029176   -3.9239236    1.7041957 
H    -2.3510664   -4.8330085    0.5176158 
H     0.0414869   -3.4496125    0.1073559 
H    -0.4266750   -2.1933866   -1.0682428 
H    -1.0665117   -3.8477447   -1.2298850 
H    -0.2090505   -2.3864708   -3.6033849 
H    -1.6806729   -1.7949467   -2.7826328 
H    -1.5890862   -1.7776600   -4.5577287 
H     1.1671253   -0.6474668   -5.0804848 
H     0.6956069    1.0762184   -5.0524326 
H    -0.3730632   -0.1316633   -5.7966901 
H    -2.2421063    0.6449446   -2.6630311 
H    -1.3319535    1.8495332   -3.6123714 
H    -2.3064058    0.6173770   -4.4536365 
H     3.6180302    0.2991190   -2.8090853 
H     2.6853634    0.8390318   -4.2348232 
H     3.6806014    1.9995969   -3.3302534 
H     1.6880914    2.1464672   -0.1842519 
H     3.2088068    2.6185451   -0.9920460 
H     2.9647319    0.9308005   -0.4742230 
H     0.8364562    2.6885902   -3.8626441 
H     0.2660473    3.0145577   -2.2083719 
H     1.8440065    3.6423156   -2.7501778 
H     2.8655429   -3.8495234    3.8509596 
H     4.5755288   -3.8212563   -0.8887338 
H    -1.2363152   -2.5683388    4.0624985 
H     2.1249629   -1.7817029   -3.7833693 
H     0.6858565   -3.7766380    5.0385686 
H     3.8674616   -3.4499723   -3.2396618 
