111
Energy =
C     0.8549519    2.7576309    0.1535703 
C    -0.4894395    3.0725138    0.3974804 
C    -1.1251820    2.5780545    1.6015845 
H    -1.0511907    3.7044290   -0.3027736 
Pd   -0.7599304    0.8619177    0.2941439 
P    -0.6625023   -0.8729719    2.0347792 
P    -0.5382006   -0.0745396   -2.0293320 
H     1.3682261    2.1526547    0.9125558 
H    -0.4767906    2.5099842    2.4825614 
C     3.4406376    4.1324815   -2.9648698 
C     3.7565282    2.9768382   -2.2317292 
C     2.9141903    2.5551718   -1.2001344 
C     1.7194582    3.2582612   -0.9070435 
C     1.4281699    4.4374720   -1.6382291 
C     2.2839888    4.8694283   -2.6538876 
H     4.1040184    4.4709565   -3.7675299 
H     4.6621486    2.4071898   -2.4621408 
H     3.1622515    1.6594046   -0.6233409 
H     0.5365725    5.0239188   -1.3947447 
H     2.0549833    5.7868983   -3.2052794 
C    -5.2538293    3.3998088    2.5264665 
C    -4.8717596    3.1296054    1.2023616 
C    -3.5308067    2.8789329    0.8961099 
C    -2.5388453    2.8766227    1.9055054 
C    -2.9391064    3.1716159    3.2306173 
C    -4.2798370    3.4300246    3.5370523 
H    -6.3035248    3.5961195    2.7675656 
H    -5.6230986    3.1148598    0.4060089 
H    -3.2460181    2.6598149   -0.1371551 
H    -2.1864102    3.2194161    4.0243957 
H    -4.5660196    3.6622071    4.5680647 
O     1.5289655   -0.6829122   -0.0199031 
C     3.9566760   -1.9934473   -0.2551117 
C    -1.0853522   -1.8688905   -2.5250584 
C    -1.3179046    1.1522582   -3.2989828 
C     0.1920810   -0.2910541    3.6882328 
C    -2.3528603   -1.7012337    2.4431071 
C     3.3271378   -1.3079083   -1.4781609 
C     2.8006444   -2.6264956    0.5449214 
C     1.2769186   -0.2199649   -2.3608399 
C     0.5830992   -2.1818427    1.5900191 
C     2.0620829   -0.7248774   -1.3011536 
C     1.6470607   -1.8415273    0.7277925 
C     4.6215411   -0.9042525    0.6400868 
C     5.0169254   -3.0310263   -0.6620770 
C    -2.6276911   -1.9249656   -2.4797326 
C    -0.4952693   -2.8121201   -1.4629448 
C    -0.5689944   -2.3575974   -3.8948929 
C    -0.4717024    2.4367184   -3.2633364 
C    -2.7243195    1.4986333   -2.7546929 
C    -1.4608753    0.6754749   -4.7585540 
C     1.4243466    0.5444235    3.2771137 
C     0.7067273   -1.4499062    4.5722477 
C    -0.7828901    0.5724395    4.5124139 
C    -3.3847841   -0.5467561    2.4365611 
C    -2.4555306   -2.4684218    3.7782192 
C    -2.7020310   -2.6602140    1.2878948 
C     3.9016247   -1.2223513   -2.7574673 
C     2.8199296   -3.8878853    1.1602489 
C     1.9029462   -0.1307745   -3.6210980 
C     0.6486105   -3.4609806    2.1824608 
C     3.2134038   -0.5917087   -3.8057091 
C     1.7349622   -4.3125532    1.9440315 
H     3.8860499   -0.1423888    0.9487933 
H     5.4310424   -0.4004612    0.0843486 
H     5.0460065   -1.3635213    1.5491247 
H     5.8477924   -2.5462533   -1.2004543 
H     4.5899124   -3.8158256   -1.3092046 
H     5.4530726   -3.5084317    0.2309961 
H    -3.0309263   -1.4687166   -1.5590255 
H    -3.0842680   -1.4165476   -3.3444979 
H    -2.9557035   -2.9799701   -2.5067532 
H     0.6013384   -2.8923257   -1.5553470 
H    -0.7293149   -2.4830828   -0.4438379 
H    -0.9141515   -3.8256178   -1.6006581 
H     0.5313889   -2.3213143   -3.9505270 
H    -0.8692551   -3.4156709   -4.0120956 
H    -0.9837435   -1.8047586   -4.7477084 
H    -0.4728133    2.8605162   -2.2514704 
H     0.5761164    2.2803945   -3.5651902 
H    -0.9159252    3.1870450   -3.9427573 
H    -3.4248043    0.6514752   -2.8085474 
H    -2.6641756    1.8226536   -1.7015867 
H    -3.1506954    2.3282994   -3.3479148 
H    -2.1585087   -0.1700059   -4.8582291 
H    -0.5013005    0.3933553   -5.2193578 
H    -1.8767841    1.5115946   -5.3507919 
H     2.1108555   -0.0313071    2.6332483 
H     1.1471906    1.4691703    2.7499010 
H     1.9821416    0.8327875    4.1866205 
H     1.5422414   -1.9906635    4.1012329 
H    -0.0757958   -2.1751549    4.8376665 
H     1.0836373   -1.0119698    5.5151984 
H    -1.3078259    1.3121211    3.8954238 
H    -1.5444768   -0.0380906    5.0224042 
H    -0.2180595    1.1146405    5.2928482 
H    -3.2035411    0.1964938    3.2290253 
H    -3.3814110   -0.0126525    1.4704018 
H    -4.3945842   -0.9673603    2.5952110 
H    -1.7765790   -3.3346750    3.8285948 
H    -3.4854081   -2.8594887    3.8708676 
H    -2.2709696   -1.8277792    4.6533526 
H    -2.6955220   -2.1333978    0.3217433 
H    -2.0125844   -3.5182471    1.2251777 
H    -3.7221495   -3.0541392    1.4487079 
H     4.8912363   -1.6486925   -2.9436513 
H     3.6825162   -4.5481363    1.0360455 
H     1.3536494    0.2674922   -4.4773651 
H    -0.1505876   -3.7942276    2.8476060 
H     3.6830207   -0.5072597   -4.7906022 
H     1.7535435   -5.3049072    2.4047644 
