120
Energy =
C     2.4810412   -0.1404794    1.9872986 
C     1.7117747   -1.2384793    2.4861680 
C     1.5506325   -2.4288081    1.7516898 
H     1.1627431   -1.1126134    3.4275452 
Pd    0.7272100   -0.5135871    0.6558466 
P    -1.3934372   -1.2626312   -0.0903260 
P     0.9755452    1.5679437   -0.4693898 
H     3.3355988   -0.3802606    1.3401613 
H     2.2424726   -2.5980849    0.9126307 
C     2.8785919    3.4801141    4.2906291 
C     1.6822291    2.7457080    4.3384156 
C     1.5349448    1.5864445    3.5715850 
C     2.5918058    1.1183166    2.7548693 
C     3.7862099    1.8724803    2.7109132 
C     3.9270788    3.0434261    3.4677012 
H     2.9905634    4.3896995    4.8895572 
H     0.8530010    3.0888664    4.9649213 
H     0.5817506    1.0463473    3.5894235 
H     4.6227494    1.5188768    2.0976092 
H     4.8655372    3.6063333    3.4271725 
C    -0.4140512   -6.0163096    3.0858373 
C     0.4266487   -6.0318445    1.9624827 
C     1.0559374   -4.8549495    1.5423079 
C     0.8556982   -3.6337936    2.2282896 
C     0.0219020   -3.6408648    3.3719244 
C    -0.6060903   -4.8169241    3.7925141 
H    -0.9081373   -6.9350806    3.4176191 
H     0.5966444   -6.9648072    1.4154138 
H     1.7184569   -4.8769834    0.6701004 
H    -0.1452851   -2.7172602    3.9341270 
H    -1.2486871   -4.8010226    4.6788575 
O    -1.5740993    1.4515142    1.0450258 
C     0.0334026    1.8966359   -2.0712730 
C     2.7839476    1.9624600   -0.7607531 
C    -2.3400567   -2.1031761    1.2957192 
C    -1.4114895   -2.4858140   -1.5007775 
C    -0.3337261    3.3782205   -2.3089374 
C     0.7267039    1.2930196   -3.3127526 
C     3.5460730    0.7492798   -1.3520186 
C     3.1516434    3.2396727   -1.5541397 
C    -2.5131385   -1.1517029    2.5007660 
C    -3.6952324   -2.6906763    0.8492763 
C    -0.7282379   -1.8932175   -2.7480154 
C    -0.7132120   -3.7957388   -1.0852222 
C    -1.2206373    3.5153612   -3.5609082 
C    -0.1831523    1.4264562   -4.5482266 
C     5.0658530    0.9822443   -1.2773095 
C     4.6707474    3.4863680   -1.4655884 
C    -3.2475409   -1.8416522    3.6646555 
C    -4.4088539   -3.3812359    2.0279992 
C    -0.7086199   -2.8985436   -3.9119554 
C    -0.6902159   -4.8079122   -2.2441870 
C    -0.5615701    2.8941842   -4.8026151 
C     5.4691657    2.2826786   -1.9927415 
C    -4.5971653   -2.4207765    3.2123334 
C    -0.0308155   -4.2157076   -3.5003647 
C     0.3611254    2.8499913    0.7075847 
C    -2.5488592    0.0754436   -0.6252282 
C    -0.9010584    2.6405813    1.3104976 
C    -2.4690599    1.3438724   -0.0034227 
C     1.0881651    3.9887550    1.1080766 
C    -3.4860153   -0.0824075   -1.6679480 
C    -1.4319723    3.5272804    2.2527987 
C    -3.2609351    2.4219280   -0.4219966 
C     0.5593204    4.8937556    2.0380865 
C    -4.2894096    0.9846404   -2.0922164 
C    -0.7023302    4.6709387    2.6056995 
C    -4.1690916    2.2370993   -1.4726238 
H    -0.9082576    1.3390672   -1.9252897 
H     3.1393223    2.0980889    0.2790520 
H    -1.6765368   -2.9329097    1.6048774 
H    -2.4687918   -2.7115354   -1.7374973 
H     0.5856794    3.9780671   -2.4377388 
H    -0.8601589    3.7877548   -1.4298988 
H     0.9903724    0.2367492   -3.1387459 
H     1.6704567    1.8307147   -3.5127273 
H     3.2532759    0.6047874   -2.4074561 
H     3.2642127   -0.1785208   -0.8213408 
H     2.6012922    4.1223078   -1.1897768 
H     2.8674260    3.1122849   -2.6140318 
H    -3.0964904   -0.2673634    2.1837178 
H    -1.5260036   -0.7723412    2.8243392 
H    -3.5544429   -3.4162150    0.0285036 
H    -4.3352507   -1.8762719    0.4574699 
H     0.3109516   -1.6256224   -2.4731233 
H    -1.2277997   -0.9590733   -3.0568052 
H    -1.1974949   -4.2444302   -0.2013281 
H     0.3243401   -3.5520399   -0.7880919 
H    -1.4486027    4.5823708   -3.7350757 
H    -2.1861082    3.0094034   -3.3663288 
H    -1.1051257    0.8334660   -4.3883420 
H     0.3241093    0.9944571   -5.4296956 
H     5.5982691    0.1192647   -1.7158715 
H     5.3726182    1.0360578   -0.2137243 
H     4.9432796    3.6794962   -0.4087873 
H     4.9311731    4.3987653   -2.0313433 
H    -3.3898327   -1.1199967    4.4894460 
H    -2.6197937   -2.6609000    4.0625271 
H    -3.8070286   -4.2529771    2.3527256 
H    -5.3831551   -3.7756803    1.6879002 
H    -0.1930539   -2.4492984   -4.7799516 
H    -1.7491473   -3.1022256   -4.2330912 
H    -1.7291764   -5.1109591   -2.4801295 
H    -0.1613108   -5.7231506   -1.9219141 
H    -1.2368004    2.9707010   -5.6734732 
H     0.3518522    3.4661829   -5.0595505 
H     6.5531514    2.4618321   -1.8797762 
H     5.2790144    2.1710133   -3.0784058 
H    -5.0931241   -2.9390002    4.0523712 
H    -5.2686250   -1.5933676    2.9087000 
H    -0.0643689   -4.9424361   -4.3313416 
H     1.0404438   -4.0221923   -3.2917843 
H     2.0894730    4.1692419    0.7132916 
H    -3.5842077   -1.0496396   -2.1690326 
H    -2.4028393    3.3035450    2.7044554 
H    -3.1614710    3.3930591    0.0706216 
H     1.1487167    5.7674013    2.3318357 
H    -5.0049013    0.8372421   -2.9067017 
H    -1.1121345    5.3738782    3.3378130 
H    -4.7881273    3.0773540   -1.8026672 
