120
Energy =
C     2.4675851   -0.1131468    2.0075249 
C     1.7048896   -1.2175147    2.5020135 
C     1.5610155   -2.4106290    1.7683992 
H     1.1468573   -1.0952234    3.4385531 
Pd    0.7276666   -0.5061455    0.6623341 
P    -1.3792509   -1.2777235   -0.0994952 
P     0.9633571    1.5766270   -0.4636797 
H     3.3291918   -0.3457117    1.3671544 
H     2.2610803   -2.5749018    0.9351778 
C     2.8132281    3.5154420    4.3065531 
C     1.6241321    2.7689547    4.3480933 
C     1.4935222    1.6068645    3.5825126 
C     2.5603019    1.1480626    2.7734375 
C     3.7472179    1.9142949    2.7357020 
C     3.8712919    3.0880576    3.4910447 
H     2.9121290    4.4271639    4.9045401 
H     0.7874568    3.1048165    4.9686219 
H     0.5456668    1.0573040    3.5951396 
H     4.5911348    1.5682063    2.1282651 
H     4.8041294    3.6605561    3.4552512 
C    -0.3826097   -6.0138284    3.0914994 
C     0.4643814   -6.0225418    1.9728037 
C     1.0875510   -4.8408741    1.5569281 
C     0.8739803   -3.6214076    2.2418993 
C     0.0345272   -3.6354302    3.3813598 
C    -0.5869246   -4.8163716    3.7980027 
H    -0.8715552   -6.9364417    3.4202265 
H     0.6439703   -6.9538353    1.4259520 
H     1.7549220   -4.8575624    0.6883267 
H    -0.1426476   -2.7134479    3.9432085 
H    -1.2342280   -4.8057609    4.6809902 
O    -1.5958346    1.4358319    1.0316211 
C     0.0295725    1.8939775   -2.0728408 
C     2.7696159    1.9899253   -0.7421396 
C    -2.3269120   -2.1275015    1.2801265 
C    -1.3741162   -2.5013432   -1.5097027 
C    -0.3518737    3.3713765   -2.3139690 
C     0.7387972    1.2974091   -3.3087143 
C     3.5491630    0.7841823   -1.3258923 
C     3.1295565    3.2701451   -1.5342580 
C    -2.5216518   -1.1758598    2.4817305 
C    -3.6709857   -2.7325328    0.8237279 
C    -0.6884314   -1.9016977   -2.7521847 
C    -0.6648195   -3.8035673   -1.0887948 
C    -1.2301921    3.4987124   -3.5729824 
C    -0.1624582    1.4209857   -4.5515052 
C     5.0657798    1.0337150   -1.2404636 
C     4.6452287    3.5331858   -1.4349225 
C    -3.2571097   -1.8724583    3.6409694 
C    -4.3853297   -3.4298766    1.9980173 
C    -0.6493418   -2.9069719   -3.9156546 
C    -0.6223620   -4.8156575   -2.2472893 
C    -0.5545974    2.8845161   -4.8092222 
C     5.4602090    2.3374822   -1.9548308 
C    -4.5955134   -2.4695505    3.1787729 
C     0.0397819   -4.2165578   -3.4987469 
C     0.3272018    2.8536934    0.7071967 
C    -2.5448572    0.0478131   -0.6435605 
C    -0.9373735    2.6321938    1.3006874 
C    -2.4824952    1.3176843   -0.0226817 
C     1.0395810    4.0002054    1.1118492 
C    -3.4733288   -0.1209578   -1.6923281 
C    -1.4844347    3.5144573    2.2378942 
C    -3.2826539    2.3869865   -0.4479482 
C     0.4946337    4.9006401    2.0369661 
C    -4.2849759    0.9371561   -2.1232156 
C    -0.7689318    4.6656239    2.5952910 
C    -4.1817765    2.1915312   -1.5044063 
H    -0.9069517    1.3261928   -1.9334357 
H     3.1157522    2.1306414    0.3000753 
H    -1.6558504   -2.9484098    1.5963929 
H    -2.4271984   -2.7385205   -1.7538996 
H     0.5619573    3.9811906   -2.4355526 
H    -0.8897723    3.7753461   -1.4393059 
H     1.0122712    0.2440449   -3.1323602 
H     1.6783676    1.8449618   -3.5014167 
H     3.2656740    0.6348665   -2.3832027 
H     3.2735242   -0.1457945   -0.7957587 
H     2.5670962    4.1471855   -1.1749367 
H     2.8545820    3.1386706   -2.5960622 
H    -3.1131910   -0.2994028    2.1579577 
H    -1.5419705   -0.7838391    2.8127381 
H    -3.5145178   -3.4576983    0.0054695 
H    -4.3178920   -1.9268460    0.4252857 
H     0.3457501   -1.6226941   -2.4698850 
H    -1.1960159   -0.9731711   -3.0648734 
H    -1.1506899   -4.2572628   -0.2083359 
H     0.3678324   -3.5485782   -0.7841769 
H    -1.4682425    4.5631802   -3.7491833 
H    -2.1916767    2.9823833   -3.3859845 
H    -1.0792719    0.8181050   -4.3990256 
H     0.3565699    0.9943876   -5.4287513 
H     5.6107133    0.1759392   -1.6738417 
H     5.3641855    1.0923254   -0.1747550 
H     4.9080498    3.7304326   -0.3764247 
H     4.8999782    4.4476491   -1.9999301 
H    -3.4153797   -1.1508242    4.4628680 
H    -2.6224170   -2.6828162    4.0458865 
H    -3.7749925   -4.2931521    2.3294147 
H    -5.3516940   -3.8374636    1.6508352 
H    -0.1323687   -2.4522732   -4.7799656 
H    -1.6851946   -3.1220719   -4.2443436 
H    -1.6562193   -5.1299663   -2.4907716 
H    -0.0859517   -5.7250743   -1.9209243 
H    -1.2235904    2.9536842   -5.6854926 
H     0.3546664    3.4662781   -5.0589015 
H     6.5413899    2.5283648   -1.8344606 
H     5.2789542    2.2224076   -3.0416664 
H    -5.0917535   -2.9923754    4.0157971 
H    -5.2749018   -1.6513607    2.8679134 
H     0.0202798   -4.9437855   -4.3297319 
H     1.1072884   -4.0112912   -3.2823288 
H     2.0419456    4.1904800    0.7244401 
H    -3.5579802   -1.0897284   -2.1928696 
H    -2.4564302    3.2814562    2.6823831 
H    -3.1966403    3.3596831    0.0441223 
H     1.0729807    5.7804351    2.3343194 
H    -4.9933851    0.7813959   -2.9423219 
H    -1.1912228    5.3649906    3.3237220 
H    -4.8071806    3.0249733   -1.8396806 
