120
Energy =
C     2.4390333   -0.0555698    2.0459374 
C     1.6814527   -1.1621341    2.5428123 
C     1.5642034   -2.3668142    1.8234169 
H     1.1069486   -1.0342775    3.4685335 
Pd    0.7243348   -0.4888751    0.6784444 
P    -1.3597345   -1.2984373   -0.1041598 
P     0.9482235    1.5829163   -0.4697112 
H     3.3123242   -0.2863895    1.4209399 
H     2.2791238   -2.5329352    1.0032549 
C     2.7112625    3.6064968    4.3011310 
C     1.5311993    2.8456003    4.3383736 
C     1.4242396    1.6721567    3.5865704 
C     2.5061582    1.2165805    2.7960066 
C     3.6837137    1.9973586    2.7621865 
C     3.7842264    3.1820687    3.5037614 
H     2.7916678    4.5269127    4.8884639 
H     0.6831288    3.1786910    4.9447529 
H     0.4833430    1.1107300    3.5956527 
H     4.5390857    1.6541772    2.1693292 
H     4.7103008    3.7656503    3.4716682 
C    -0.3515964   -5.9776515    3.1662897 
C    -0.5763740   -4.7750897    3.8577257 
C     0.0355296   -3.5916322    3.4341977 
C     0.8856255   -3.5801000    2.3025695 
C     1.1196318   -4.8043560    1.6329747 
C     0.5062707   -5.9886308    2.0559380 
H    -0.8331291   -6.9022387    3.5003468 
H    -1.2317824   -4.7625135    4.7346769 
H    -0.1570158   -2.6660083    3.9849238 
H     1.7957653   -4.8228067    0.7712550 
H     0.7023394   -6.9237415    1.5214160 
O    -1.6289070    1.4249428    0.9944166 
C     0.0330345    1.8702156   -2.0951484 
C     2.7529222    2.0163057   -0.7275942 
C    -2.3149431   -2.1468072    1.2713835 
C    -1.3185251   -2.5364134   -1.5012162 
C    -0.3641479    3.3397877   -2.3577505 
C     0.7670037    1.2696478   -3.3144817 
C     3.5557249    0.8136037   -1.2854157 
C     3.1081106    3.2914793   -1.5298998 
C    -2.5421097   -1.1836436    2.4580065 
C    -3.6425353   -2.7778747    0.8023526 
C    -0.6246707   -1.9404389   -2.7408849 
C    -0.5966599   -3.8238415   -1.0567416 
C    -1.2267130    3.4417665   -3.6298936 
C    -0.1184987    1.3678868   -4.5707833 
C     5.0676890    1.0833662   -1.1821792 
C     4.6188476    3.5747299   -1.4124082 
C    -3.2851552   -1.8766376    3.6145534 
C    -4.3647781   -3.4708066    1.9744287 
C    -0.5554790   -2.9574003   -3.8927454 
C    -0.5243475   -4.8475803   -2.2034368 
C    -0.5260937    2.8232361   -4.8499214 
C     5.4557483    2.3833509   -1.9067323 
C    -4.6073498   -2.4990363    3.1394330 
C     0.1459876   -4.2527106   -3.4525166 
C     0.2793956    2.8647245    0.6776231 
C    -2.5354521    0.0053788   -0.6782787 
C    -0.9895087    2.6329293    1.2577717 
C    -2.4983030    1.2829729   -0.0713820 
C     0.9708348    4.0257320    1.0772658 
C    -3.4466102   -0.1875327   -1.7380234 
C    -1.5603780    3.5187370    2.1772839 
C    -3.3061126    2.3367414   -0.5204284 
C     0.4019059    4.9296182    1.9843444 
C    -4.2657260    0.8547995   -2.1925582 
C    -0.8654236    4.6839898    2.5294332 
C    -4.1875294    2.1174652   -1.5870690 
H    -0.8979138    1.2918334   -1.9623733 
H     3.0820861    2.1738251    0.3176847 
H    -1.6363027   -2.9533940    1.6075896 
H    -2.3648657   -2.7910373   -1.7565609 
H     0.5433210    3.9601504   -2.4736756 
H    -0.9191216    3.7461990   -1.4949687 
H     1.0517258    0.2219973   -3.1227343 
H     1.7019440    1.8273446   -3.5003742 
H     3.2888850    0.6476156   -2.3445836 
H     3.2844357   -0.1131905   -0.7474685 
H     2.5296723    4.1655318   -1.1891669 
H     2.8499122    3.1440881   -2.5938093 
H    -3.1414185   -0.3201223    2.1143404 
H    -1.5735675   -0.7730258    2.7989797 
H    -3.4624471   -3.5110591   -0.0038162 
H    -4.2951065   -1.9873125    0.3833982 
H     0.4015537   -1.6436800   -2.4478367 
H    -1.1410041   -1.0226448   -3.0704897 
H    -1.0880511   -4.2749019   -0.1779887 
H     0.4280758   -3.5508632   -0.7410143 
H    -1.4764424    4.5009599   -3.8210527 
H    -2.1837355    2.9146663   -3.4502679 
H    -1.0293760    0.7546060   -4.4242993 
H     0.4181274    0.9387356   -5.4361188 
H     5.6293048    0.2274131   -1.5974872 
H     5.3504105    1.1584486   -0.1132452 
H     4.8641922    3.7874744   -0.3527239 
H     4.8701711    4.4857373   -1.9844823 
H    -3.4664964   -1.1472598    4.4247810 
H    -2.6450854   -2.6725099    4.0391866 
H    -3.7470658   -4.3206392    2.3262259 
H    -5.3194978   -3.8971054    1.6176313 
H    -0.0330394   -2.5045771   -4.7547483 
H    -1.5835612   -3.1904843   -4.2332935 
H    -1.5503310   -5.1791140   -2.4570902 
H     0.0202941   -5.7457880   -1.8600868 
H    -1.1837265    2.8740867   -5.7359943 
H     0.3788252    3.4142570   -5.0935605 
H     6.5327032    2.5892393   -1.7739384 
H     5.2910150    2.2531074   -2.9945001 
H    -5.1089899   -3.0185540    3.9752922 
H    -5.2936164   -1.6949261    2.8077054 
H     0.1475595   -4.9889679   -4.2757348 
H     1.2075921   -4.0303287   -3.2243506 
H     1.9752788    4.2252455    0.7000444 
H    -3.5112020   -1.1629273   -2.2284925 
H    -2.5347538    3.2776990    2.6121533 
H    -3.2396641    3.3160765   -0.0385985 
H     0.9643801    5.8208000    2.2782034 
H    -4.9603649    0.6803195   -3.0196282 
H    -1.3066524    5.3863619    3.2435928 
H    -4.8188135    2.9387724   -1.9407396 
