120
Energy =
C     2.6001050   -0.1021665    1.9968399 
C     1.8961872   -1.2784356    2.4129585 
C     1.7548949   -2.3861788    1.5508338 
H     1.3493364   -1.2588842    3.3641506 
Pd    0.8542875   -0.4700636    0.6548231 
P    -1.2654834   -1.2990647   -0.0175010 
P     1.0040853    1.6259061   -0.4420610 
H     3.4778474   -0.2421686    1.3524036 
H     2.4422126   -2.4406961    0.6921423 
C     2.6037016    3.4787407    4.3950771 
C     1.4661065    2.6555477    4.3630370 
C     1.4535198    1.5003393    3.5760683 
C     2.5884059    1.1292306    2.8150325 
C     3.7223553    1.9716896    2.8511501 
C     3.7291866    3.1358013    3.6312773 
H     2.6100738    4.3853207    5.0088303 
H     0.5769304    2.9262327    4.9410356 
H     0.5441928    0.8906472    3.5261908 
H     4.6151497    1.6961118    2.2785172 
H     4.6221167    3.7694017    3.6530279 
C    -0.3452900   -6.0713716    2.2593273 
C     0.3887112   -5.8757139    1.0797133 
C     1.0809358   -4.6759215    0.8773958 
C     1.0477746   -3.6411016    1.8435401 
C     0.3310783   -3.8685498    3.0417872 
C    -0.3600109   -5.0673198    3.2428718 
H    -0.8876290   -7.0082120    2.4221180 
H     0.4279280   -6.6621131    0.3190170 
H     1.6615389   -4.5311999   -0.0410277 
H     0.3145224   -3.1066538    3.8262492 
H    -0.9087703   -5.2252478    4.1770325 
O    -1.6417413    1.3918246    0.9491846 
C     0.1195919    1.8459929   -2.0871610 
C     2.7932974    2.1350102   -0.6707503 
C    -2.2439749   -1.9494523    1.4587427 
C    -1.0883412   -2.7649091   -1.1625877 
C    -0.2538402    3.2985987   -2.4536268 
C     0.8532132    1.1428377   -3.2491747 
C     3.6569973    0.9779407   -1.2354241 
C     3.0955998    3.4265036   -1.4677345 
C    -1.9231512   -1.2064243    2.7739970 
C    -3.7716741   -1.9629424    1.2254673 
C    -2.2903832   -3.7016946   -1.4161239 
C    -0.3648917   -2.3578777   -2.4651672 
C    -1.1027747    3.3203400   -3.7397047 
C    -0.0301745    1.1542646   -4.5098366 
C     5.1532178    1.3156289   -1.1061031 
C     4.5889518    3.7844687   -1.3322372 
C    -2.6465739   -1.8612792    3.9644818 
C    -4.4953955   -2.6296209    2.4105886 
C    -1.8507971   -4.9214174   -2.2497414 
C     0.0340919   -3.5920700   -3.2928163 
C    -0.4089743    2.5918271   -4.9023863 
C     5.4906574    2.6372137   -1.8170305 
C    -4.1655597   -1.9226439    3.7351308 
C    -1.1746299   -4.5015614   -3.5642032 
C     0.2561679    2.8728623    0.6937759 
C    -2.4015645   -0.0575609   -0.7636965 
C    -1.0230210    2.6056392    1.2385617 
C    -2.4380084    1.2265213   -0.1697465 
C     0.9169234    4.0350387    1.1409710 
C    -3.2114977   -0.2776889   -1.8951740 
C    -1.6302715    3.4614276    2.1630359 
C    -3.2345544    2.2575740   -0.6822768 
C     0.3135746    4.9053913    2.0585626 
C    -4.0167535    0.7438787   -2.4190936 
C    -0.9627685    4.6267018    2.5646909 
C    -4.0266322    2.0081041   -1.8119707 
H    -0.8215253    1.2929463   -1.9327001 
H     3.1079088    2.2976049    0.3788749 
H    -1.8798885   -2.9923696    1.5565770 
H    -0.3653730   -3.3561657   -0.5656807 
H     0.6596105    3.8997400   -2.6062523 
H    -0.8114866    3.7689594   -1.6246763 
H     1.1181995    0.1083431   -2.9699443 
H     1.7984711    1.6703749   -3.4731279 
H     3.4142166    0.8199151   -2.3011232 
H     3.4208376    0.0298119   -0.7201799 
H     2.4699009    4.2711104   -1.1356307 
H     2.8579938    3.2617534   -2.5346305 
H    -2.2377966   -0.1522458    2.6796909 
H    -0.8322753   -1.1903704    2.9396558 
H    -4.0312856   -2.4716614    0.2821329 
H    -4.1237851   -0.9189101    1.1228336 
H    -3.0998970   -3.1718607   -1.9503401 
H    -2.7115760   -4.0461248   -0.4565216 
H     0.5311977   -1.7629616   -2.2083497 
H    -1.0155803   -1.7013539   -3.0728846 
H    -1.3255794    4.3666590   -4.0161620 
H    -2.0726521    2.8304546   -3.5310508 
H    -0.9507863    0.5705460   -4.3107132 
H     0.4971208    0.6493703   -5.3392473 
H     5.7599584    0.4897921   -1.5189899 
H     5.4161231    1.3959095   -0.0325725 
H     4.8101318    4.0078470   -0.2694488 
H     4.8016762    4.7075583   -1.9005769 
H    -2.4160409   -1.3052500    4.8915220 
H    -2.2595260   -2.8891231    4.1039506 
H    -4.1899911   -3.6929339    2.4718846 
H    -5.5851180   -2.6227217    2.2287020 
H    -2.7264235   -5.5644454   -2.4496929 
H    -1.1430169   -5.5273584   -1.6505886 
H     0.8041900   -4.1650066   -2.7385090 
H     0.5013375   -3.2689498   -4.2404400 
H    -1.0624258    2.5868450   -5.7930552 
H     0.5090042    3.1429112   -5.1877838 
H     6.5540187    2.8940560   -1.6648813 
H     5.3508357    2.5049520   -2.9080436 
H    -4.6608299   -2.4350706    4.5791378 
H    -4.5719201   -0.8923238    3.7068371 
H    -0.8630838   -5.3929512   -4.1371971 
H    -1.9060415   -3.9596145   -4.1963480 
H     1.9266090    4.2605232    0.7929623 
H    -3.2096002   -1.2557270   -2.3810893 
H    -2.6122160    3.1950910    2.5649111 
H    -3.2267718    3.2407252   -0.2032907 
H     0.8548427    5.7969539    2.3889625 
H    -4.6353534    0.5503503   -3.3004780 
H    -1.4332588    5.3031481    3.2851672 
H    -4.6534156    2.8088942   -2.2168832 
