80
Energy =
C     0.5568533    0.1752089   -2.6948727 
C     1.2749070    1.1076185   -1.9174211 
C     2.2967293    0.6890165   -1.0150041 
H     0.9726886    2.1621746   -1.9328702 
Pd    0.3312999   -0.1986431   -0.4013071 
P     1.0743775   -0.7454354    1.7582692 
P    -1.8903031   -0.9069336   -0.0634539 
H     1.0157133   -0.8168645   -2.8270181 
H     2.8291449   -0.2402328   -1.2664880 
C    -2.3802514    1.0957280   -5.6977878 
C    -2.1110026    2.0307231   -4.6828672 
C    -1.1598806    1.7494964   -3.6978516 
C    -0.4605801    0.5195301   -3.7004339 
C    -0.7349168   -0.4065447   -4.7338314 
C    -1.6833601   -0.1211560   -5.7233938 
H    -3.1263237    1.3197223   -6.4668664 
H    -2.6479221    2.9846883   -4.6617313 
H    -0.9727244    2.4858388   -2.9102405 
H    -0.1918431   -1.3579644   -4.7606199 
H    -1.8784626   -0.8501175   -6.5165008 
C     4.5036870    3.3409784    1.5723133 
C     3.2274015    3.7122306    1.1161696 
C     2.5077316    2.8671141    0.2654370 
C     3.0450008    1.6264360   -0.1508916 
C     4.3436493    1.2825212    0.2919158 
C     5.0628089    2.1261678    1.1485464 
H     5.0629197    4.0017073    2.2423363 
H     2.7898177    4.6657957    1.4295518 
H     1.5074170    3.1675852   -0.0627982 
H     4.8006879    0.3487573   -0.0560381 
H     6.0668225    1.8386631    1.4772244 
C     0.0567601   -1.9629752    2.7213179 
C    -2.1130364   -2.1202837    1.3349231 
C    -1.4674888   -1.7634124    2.6844824 
C     1.2900643    0.7701596    2.8531002 
C     2.7382913   -1.6048628    1.6205304 
C    -2.9104260    0.5629268    0.5218030 
C    -2.8224005   -1.8365885   -1.4099154 
C     1.3642741    0.4935421    4.3656226 
C     0.1979155    1.8149189    2.5516921 
C     3.4027196   -2.0153698    2.9454702 
C     2.6223068   -2.7931255    0.6451610 
C    -2.7079407    1.7952764   -0.3785391 
C    -4.3941685    0.2569203    0.7922224 
C    -3.4752842   -0.9447458   -2.4779055 
C    -1.8685173   -2.8732389   -2.0340675 
H     0.4195677   -1.9463581    3.7634101 
H     0.3059496   -2.9608515    2.3169747 
H    -3.2023537   -2.2508472    1.4636611 
H    -1.7228586   -3.0906260    0.9770090 
H    -1.9108157   -2.4227298    3.4526465 
H    -1.7347907   -0.7342102    2.9884919 
H     2.2598975    1.1746179    2.5045166 
H     3.3635253   -0.8268596    1.1498396 
H    -2.4246334    0.7866611    1.4912272 
H    -3.6231442   -2.3742260   -0.8653589 
H     1.6228503    1.4302370    4.8904948 
H     0.3884316    0.1580728    4.7592277 
H     2.1215234   -0.2584555    4.6347770 
H     0.0781765    1.9817455    1.4679619 
H     0.4619634    2.7779183    3.0223532 
H    -0.7781590    1.4996479    2.9617671 
H     4.3509297   -2.5385540    2.7265556 
H     3.6473278   -1.1435300    3.5727306 
H     2.7738943   -2.7082485    3.5314694 
H     2.0509052   -3.6298880    1.0852542 
H     2.1268838   -2.5029178   -0.2994600 
H     3.6291081   -3.1763400    0.4030554 
H    -3.1391867    1.6516480   -1.3823113 
H    -3.1951954    2.6746831    0.0782968 
H    -1.6335417    2.0214839   -0.4992411 
H    -4.5304972   -0.5756094    1.5028315 
H    -4.9408952    0.0119836   -0.1332943 
H    -4.8751603    1.1472209    1.2350015 
H    -3.9282731   -1.5854752   -3.2547112 
H    -4.2763642   -0.3152676   -2.0602715 
H    -2.7427208   -0.2919404   -2.9730561 
H    -1.4108607   -3.5355486   -1.2782492 
H    -1.0556521   -2.3700212   -2.5840860 
H    -2.4209876   -3.5103673   -2.7468880 
