80
Energy =
C     0.6245468    0.2774486   -2.7047961 
C     1.3797320    1.1898597   -1.9336490 
C     2.3979460    0.7347703   -1.0445367 
H     1.0969517    2.2498561   -1.9255307 
Pd    0.4129446   -0.1105516   -0.4344890 
P     1.0693027   -0.7125144    1.7322579 
P    -1.8166060   -0.7873915   -0.1917985 
H     1.0619747   -0.7222586   -2.8515821 
H     2.9047674   -0.2048396   -1.3103687 
C    -2.4618562    1.1759400   -5.5666126 
C    -2.0190927    2.1803248   -4.6890529 
C    -1.0133834    1.9110127   -3.7557700 
C    -0.4286583    0.6254063   -3.6724212 
C    -0.8699307   -0.3679442   -4.5791085 
C    -1.8768926   -0.0981953   -5.5131905 
H    -3.2490360    1.3912970   -6.2962063 
H    -2.4586686    3.1819218   -4.7374621 
H    -0.6798975    2.7121621   -3.0884898 
H    -0.4111048   -1.3621159   -4.5475721 
H    -2.2006423   -0.8817299   -6.2060147 
C     4.6556439    3.2471411    1.6366063 
C     3.4011345    3.6748601    1.1694736 
C     2.6660748    2.8772186    0.2865124 
C     3.1660306    1.6288935   -0.1528188 
C     4.4434398    1.2272822    0.3030975 
C     5.1776548    2.0233271    1.1920536 
H     5.2267224    3.8708817    2.3316324 
H     2.9923880    4.6355378    1.4997236 
H     1.6827724    3.2217159   -0.0498712 
H     4.8712344    0.2851431   -0.0592448 
H     6.1647340    1.6913997    1.5301079 
C    -0.0221207   -1.9152146    2.6363218 
C    -2.1197568   -2.0551894    1.1284456 
C    -1.5427373   -1.7052355    2.5152656 
C     1.2984194    0.7816220    2.8530821 
C     2.7132077   -1.6139477    1.6344611 
C    -2.8292125    0.7045525    0.3513624 
C    -2.5602027   -1.5272694   -1.7403292 
C     1.3183264    0.4855020    4.3634895 
C     0.2492943    1.8637213    2.5318709 
C     3.3191428   -2.0700812    2.9725410 
C     2.6012425   -2.7781801    0.6302227 
C    -2.9275259    1.7121679   -0.8068722 
C    -4.1902674    0.4168475    1.0096728 
C    -1.7297706   -2.7578610   -2.1550670 
C    -4.0643002   -1.8447184   -1.6926600 
H     0.2783686   -1.9021365    3.6981369 
H     0.2404560   -2.9163242    2.2486365 
H    -3.2107253   -2.2078472    1.1992919 
H    -1.6885270   -3.0076766    0.7711244 
H    -2.0296436   -2.3622142    3.2584577 
H    -1.8167550   -0.6736585    2.8049627 
H     2.2903946    1.1587991    2.5365208 
H     3.3730633   -0.8418610    1.2009387 
H    -2.1707843    1.1508267    1.1199856 
H    -2.3892647   -0.7354546   -2.4931734 
H     1.5931402    1.4062254    4.9080047 
H     0.3200579    0.1796206    4.7236652 
H     2.0405207   -0.2957842    4.6453137 
H     0.1788305    2.0562012    1.4476228 
H     0.5215331    2.8088485    3.0332145 
H    -0.7506074    1.5682307    2.8976384 
H     4.2588819   -2.6167649    2.7758719 
H     3.5667069   -1.2187575    3.6261959 
H     2.6498422   -2.7552709    3.5217739 
H     1.9878188   -3.6059401    1.0290785 
H     2.1531845   -2.4532655   -0.3265352 
H     3.6050973   -3.1869522    0.4197887 
H    -3.5493252    1.3321142   -1.6357898 
H    -3.3818156    2.6528344   -0.4494119 
H    -1.9295491    1.9444258   -1.2136566 
H    -4.1004563   -0.2258125    1.9014303 
H    -4.9023356   -0.0561939    0.3152778 
H    -4.6346293    1.3727516    1.3403093 
H    -2.0119212   -3.0688929   -3.1758896 
H    -0.6465091   -2.5415429   -2.1493262 
H    -1.9122269   -3.6170591   -1.4853412 
H    -4.6754923   -0.9395124   -1.5514936 
H    -4.3136669   -2.5641603   -0.8930496 
H    -4.3676270   -2.3003712   -2.6522596 
