80
Energy =
C     0.5360557    0.1322618   -2.7010734 
C     1.2568736    1.0802156   -1.9450916 
C     2.2871054    0.6806474   -1.0437155 
H     0.9504228    2.1332145   -1.9757114 
Pd    0.3291318   -0.2041138   -0.4012163 
P     1.0904824   -0.7129895    1.7614178 
P    -1.8873408   -0.9146593   -0.0347006 
H     0.9975168   -0.8601399   -2.8210839 
H     2.8214517   -0.2505372   -1.2836573 
C    -2.4257762    0.9953990   -5.6969286 
C    -2.1525204    1.9471258   -4.6987885 
C    -1.1935407    1.6845194   -3.7162601 
C    -0.4900800    0.4569995   -3.7044546 
C    -0.7687293   -0.4862042   -4.7210509 
C    -1.7250536   -0.2194971   -5.7082517 
H    -3.1779901    1.2048227   -6.4641277 
H    -2.6924078    2.8995950   -4.6888714 
H    -1.0032381    2.4338679   -2.9417710 
H    -0.2228696   -1.4362800   -4.7366465 
H    -1.9233401   -0.9615670   -6.4883049 
C     4.5016313    3.3819361    1.4854499 
C     3.2207456    3.7410217    1.0324815 
C     2.4985407    2.8798374    0.2002125 
C     3.0378165    1.6348376   -0.2002973 
C     4.3409881    1.3031047    0.2385107 
C     5.0627246    2.1628937    1.0767252 
H     5.0627763    4.0551758    2.1412668 
H     2.7814239    4.6975727    1.3341115 
H     1.4947286    3.1712658   -0.1255286 
H     4.7994431    0.3658782   -0.0980753 
H     6.0702035    1.8845539    1.4026730 
C     0.0853497   -1.9197472    2.7506489 
C    -2.0950603   -2.1060599    1.3847493 
C    -1.4398187   -1.7259130    2.7232231 
C     1.3073645    0.8204752    2.8310773 
C     2.7572854   -1.5669434    1.6252779 
C    -2.9084282    0.5607441    0.5346204 
C    -2.8268556   -1.8690470   -1.3585286 
C     1.3917058    0.5678573    4.3472288 
C     0.2096814    1.8565186    2.5199291 
C     3.4335122   -1.9519806    2.9518264 
C     2.6396518   -2.7719498    0.6709315 
C    -2.7167494    1.7791183   -0.3868307 
C    -4.3890954    0.2539123    0.8204394 
C    -3.4900813   -0.9968898   -2.4363225 
C    -1.8747929   -2.9132437   -1.9727435 
H     0.4566743   -1.8865634    3.7893381 
H     0.3348821   -2.9225878    2.3589932 
H    -3.1829505   -2.2375719    1.5242264 
H    -1.7050215   -3.0809530    1.0393256 
H    -1.8747183   -2.3744120    3.5052838 
H    -1.7082039   -0.6929304    3.0131669 
H     2.2735953    1.2228122    2.4702019 
H     3.3752805   -0.7940559    1.1369572 
H    -2.4167085    0.8016759    1.4968818 
H    -3.6219366   -2.3996639   -0.7989628 
H     1.6494124    1.5137442    4.8558065 
H     0.4196037    0.2346448    4.7518562 
H     2.1536412   -0.1767152    4.6236759 
H     0.0826872    2.0057334    1.4344627 
H     0.4732416    2.8277405    2.9736571 
H    -0.7627909    1.5444188    2.9408396 
H     4.3827862   -2.4739388    2.7345552 
H     3.6781822   -1.0686614    3.5627740 
H     2.8126215   -2.6382190    3.5538907 
H     2.0764831   -3.6042441    1.1296619 
H     2.1348701   -2.5003193   -0.2742610 
H     3.6465165   -3.1537643    0.4268447 
H    -3.1541845    1.6176765   -1.3851880 
H    -3.2043166    2.6639196    0.0591239 
H    -1.6441022    2.0073148   -0.5186486 
H    -4.5173848   -0.5676152    1.5452224 
H    -4.9416721   -0.0076645   -0.0970153 
H    -4.8700107    1.1495099    1.2524871 
H    -2.7629657   -0.3502088   -2.9473272 
H    -3.9464707   -1.6516508   -3.1993300 
H    -4.2900842   -0.3628528   -2.0236114 
H    -1.4090864   -3.5614917   -1.2096973 
H    -1.0677979   -2.4169154   -2.5375414 
H    -2.4309166   -3.5638002   -2.6704184 
