80
Energy =
C     0.4269237    0.4191834   -2.6444124 
C     1.2255056    1.2996926   -1.8811451 
C     2.2492057    0.8022173   -1.0244251 
H     0.9801289    2.3684231   -1.8619574 
Pd    0.2544633    0.0196795   -0.3533417 
P     0.9436898   -0.5646727    1.8047939 
P    -1.9352840   -0.8080474   -0.1716800 
H     0.8181268   -0.5993892   -2.7912186 
H     2.6963537   -0.1616891   -1.3069643 
C    -2.6057663    1.4656887   -5.5130634 
C    -2.1440262    0.1455925   -5.4027468 
C    -1.1523504   -0.1732751   -4.4670923 
C    -0.6095507    0.8149205   -3.6112346 
C    -1.0708310    2.1448311   -3.7525777 
C    -2.0561465    2.4644184   -4.6911268 
H    -3.3782485    1.7201315   -6.2457303 
H    -2.5487424   -0.6351844   -6.0548886 
H    -0.7781533   -1.2017608   -4.4021477 
H    -0.6594843    2.9403049   -3.1228033 
H    -2.3987167    3.4999974   -4.7852742 
C     4.7638077    3.1406158    1.5746014 
C     5.1424155    1.8479361    1.1803224 
C     4.3238275    1.1097608    0.3163833 
C     3.1054204    1.6426851   -0.1659477 
C     2.7479467    2.9539842    0.2249076 
C     3.5680449    3.6925212    1.0847126 
H     5.4006880    3.7195232    2.2509504 
H     6.0812158    1.4160881    1.5421432 
H     4.6290612    0.1043704    0.0038143 
H     1.8094095    3.3950678   -0.1263987 
H     3.2715067    4.7044973    1.3794507 
C    -0.3715444   -1.3427392    2.8532238 
C    -2.3483557   -1.9029513    1.2907716 
C    -1.1772723   -2.4405848    2.1275821 
C     1.5640101    0.8910673    2.8098165 
C     2.3517823   -1.8244348    1.7387265 
C    -3.2447577    0.5275763   -0.0394550 
C    -2.3979730   -1.8549152   -1.6521113 
C     1.9835691    0.5734467    4.2552861 
C     0.5324960    2.0318560    2.7451248 
C     2.4840443   -2.7197130    2.9851617 
C     2.2888291   -2.6914715    0.4647965 
C    -2.9710725    1.4256592    1.1799448 
C    -3.3255562    1.3616807   -1.3257471 
C    -1.4188536   -3.0383308   -1.7660231 
C    -3.8679001   -2.3023745   -1.6983339 
H    -1.0413779   -0.5333713    3.1967070 
H     0.1144172   -1.7522008    3.7546585 
H    -3.0301124   -1.3285906    1.9429683 
H    -2.9396768   -2.7471761    0.8950419 
H    -0.5106444   -3.0571376    1.4972460 
H    -1.5953816   -3.1266521    2.8861368 
H     2.4601469    1.2116660    2.2497107 
H     3.2401192   -1.1673594    1.6690791 
H    -4.1981279   -0.0143742    0.1165634 
H    -2.2141535   -1.1718439   -2.5011836 
H     2.3184039    1.5058298    4.7437094 
H     1.1485298    0.1694815    4.8543234 
H     2.8247341   -0.1368067    4.2984325 
H     0.2674969    2.2715715    1.7008416 
H     0.9577708    2.9403645    3.2056758 
H    -0.3951016    1.7814787    3.2905694 
H     3.4166117   -3.3069351    2.9117351 
H     2.5223126   -2.1507276    3.9269044 
H     1.6494637   -3.4396981    3.0495385 
H     1.4233196   -3.3765383    0.4843900 
H     2.2113171   -2.0808936   -0.4498875 
H     3.2003531   -3.3105553    0.3899176 
H    -2.0244389    1.9781372    1.0501399 
H    -3.7854984    2.1628936    1.2908372 
H    -2.9087802    0.8578117    2.1245044 
H    -3.5154449    0.7544581   -2.2263466 
H    -2.3832152    1.9113690   -1.4852529 
H    -4.1401776    2.1021654   -1.2405151 
H    -1.5540400   -3.7608718   -0.9405619 
H    -1.5923167   -3.5824743   -2.7111879 
H    -0.3676610   -2.6983114   -1.7518793 
H    -4.5658119   -1.4486252   -1.6912987 
H    -4.1277949   -2.9690391   -0.8566411 
H    -4.0471271   -2.8689282   -2.6295433 
