80
Energy =
C     1.8056239    1.9430543   -0.4923466 
C     1.1916973    1.5490899   -1.7090374 
C    -0.1856328    1.7715742   -1.9491667 
H     1.7721133    0.9644591   -2.4330500 
Pd    0.1330113    0.4283578   -0.1150857 
P    -1.8399759   -0.8479890   -0.1863398 
P     0.8451717   -0.4070117    1.9629761 
H     1.3251598    2.7636167    0.0605829 
H    -0.6688359    2.5622516   -1.3552696 
C     5.9775385    1.4112301    0.4457431 
C     5.2211715    2.4080598    1.0805252 
C     3.8686470    2.5758831    0.7591620 
C     3.2378596    1.7462869   -0.1971238 
C     4.0206229    0.7603728   -0.8430499 
C     5.3723430    0.5954495   -0.5247736 
H     7.0347066    1.2773086    0.6962385 
H     5.6883183    3.0631766    1.8230763 
H     3.2909444    3.3673257    1.2475833 
H     3.5655294    0.1003277   -1.5886167 
H     5.9583155   -0.1767457   -1.0340258 
C    -2.3201089    0.7871860   -5.5575037 
C    -2.8503442    1.7031477   -4.6361692 
C    -2.1380851    2.0215420   -3.4738886 
C    -0.8843815    1.4255622   -3.1997128 
C    -0.3535366    0.5223833   -4.1509305 
C    -1.0638927    0.2072222   -5.3134392 
H    -2.8751014    0.5357472   -6.4669168 
H    -3.8185723    2.1771383   -4.8273663 
H    -2.5534060    2.7468163   -2.7665864 
H     0.6166162    0.0468346   -3.9765774 
H    -0.6361235   -0.4963565   -6.0351898 
C    -1.7398583   -2.4253014    0.7847211 
C     0.0583727   -1.9810915    2.5885895 
C    -1.4243723   -2.2486600    2.2807927 
C    -2.2510670   -1.4227947   -1.9211280 
C    -3.3026008    0.0699546    0.5634504 
C     2.6653114   -0.8555325    1.9862798 
C     0.5825121    0.7898118    3.3878191 
C    -3.5927266   -2.1522742   -2.1030008 
C    -1.0678867   -2.2572657   -2.4514821 
C    -3.6944200    1.2613172   -0.3271217 
C    -4.5171954   -0.7844722    0.9708735 
C     3.1990059   -1.2922703    3.3612635 
C     2.9510163   -1.9006747    0.8916133 
C     1.4934427    2.0212895    3.2821992 
C    -0.8947509    1.2068358    3.4974736 
H    -0.9675715   -3.0529811    0.3050035 
H    -2.7018213   -2.9517675    0.6578425 
H     0.6615528   -2.8044443    2.1656815 
H     0.2221251   -2.0003832    3.6812335 
H    -2.0648021   -1.4647183    2.7226372 
H    -1.7016006   -3.1838776    2.8004574 
H    -2.2852030   -0.4807731   -2.4962742 
H    -2.8556473    0.4812840    1.4877869 
H     3.1633496    0.0851622    1.6910407 
H     0.8584346    0.2133154    4.2918180 
H    -3.6819448   -2.4794043   -3.1542487 
H    -3.6714778   -3.0531921   -1.4695839 
H    -4.4527546   -1.4980649   -1.8895447 
H    -0.0999744   -1.7615238   -2.2544950 
H    -1.1674678   -2.3852960   -3.5425732 
H    -1.0418525   -3.2626771   -1.9950337 
H    -4.4691019    1.8661840    0.1758239 
H    -2.8271462    1.9134786   -0.5217769 
H    -4.1017105    0.9322396   -1.2986778 
H    -5.0222832   -1.2364209    0.1032997 
H    -4.2508402   -1.5918440    1.6729095 
H    -5.2514127   -0.1365573    1.4823635 
H     2.7233451   -2.2251507    3.7113728 
H     4.2839772   -1.4842592    3.2844637 
H     3.0564204   -0.5179643    4.1337818 
H     2.5019601   -1.6076001   -0.0738019 
H     2.5623317   -2.8983049    1.1646200 
H     4.0403871   -1.9955512    0.7458572 
H     1.2330472    2.6239057    2.3954482 
H     1.3553134    2.6597795    4.1726456 
H     2.5614368    1.7574438    3.2184998 
H    -1.5662643    0.3457913    3.6501603 
H    -1.2171218    1.7456308    2.5876277 
H    -1.0278592    1.8863679    4.3575706 
