80
Energy =
C     0.5813159    0.2024986   -2.6105400 
C     1.3252164    1.1611705   -1.8864375 
C     2.3621858    0.7695621   -0.9948821 
H     1.0285718    2.2161507   -1.9348648 
Pd    0.3728295   -0.0924168   -0.3313001 
P     0.9858717   -0.7419187    1.8484607 
P    -1.8505652   -0.8356664   -0.1578433 
H     1.0438988   -0.7889296   -2.7328361 
H     2.8579330   -0.1892664   -1.2033394 
C    -2.5050153    0.9748550   -5.5071922 
C    -2.1904058    1.9576058   -4.5527813 
C    -1.1847965    1.7287213   -3.6089535 
C    -0.4742617    0.5056330   -3.5911375 
C    -0.7881240   -0.4645634   -4.5719597 
C    -1.7929789   -0.2338370   -5.5189446 
H    -3.2941260    1.1569359   -6.2437503 
H    -2.7329110    2.9086389   -4.5471126 
H    -0.9572882    2.5062020   -2.8730416 
H    -0.2324851   -1.4082151   -4.5882356 
H    -2.0178583   -0.9973372   -6.2707436 
C     4.8175844    3.5399625    1.2095537 
C     3.5487857    3.9412425    0.7579847 
C     2.7347676    3.0481221    0.0535076 
C     3.1763778    1.7336068   -0.2292559 
C     4.4602917    1.3498491    0.2205922 
C     5.2697287    2.2401943    0.9377046 
H     5.4504433    4.2390160    1.7653912 
H     3.1894126    4.9544885    0.9651918 
H     1.7376534    3.3718066   -0.2634647 
H     4.8324773    0.3452892   -0.0122226 
H     6.2617085    1.9221708    1.2748145 
C    -0.0606590   -2.1012245    2.5843608 
C    -2.1259010   -2.2328373    1.0303880 
C    -1.5910567   -2.0040935    2.4550545 
C     1.0291103    0.5444528    3.2258706 
C     2.6875254   -1.5368514    1.8375672 
C    -2.8832025    0.5832992    0.5223261 
C    -2.6033052   -1.4549993   -1.7565823 
C    -0.2191092    1.4435301    3.1672481 
C     2.3107743    1.3933614    3.2291066 
C     3.1287912   -2.0993298    3.2014166 
C     2.7816232   -2.6053032    0.7319349 
C    -2.9711576    1.7104599   -0.5218460 
C    -4.2504532    0.2218076    1.1300324 
C    -1.8142838   -2.6888701   -2.2359611 
C    -4.1179087   -1.7232499   -1.7415473 
H     0.2170676   -2.1656130    3.6514883 
H     0.2817996   -3.0396325    2.1105271 
H    -3.2111415   -2.4344293    1.0603942 
H    -1.6485296   -3.1265660    0.5900617 
H    -2.0253437   -2.7851600    3.1053072 
H    -1.9590269   -1.0444754    2.8605866 
H     0.9932266   -0.0539958    4.1569735 
H     3.3466709   -0.6925597    1.5633659 
H    -2.2389080    0.9487438    1.3423414 
H    -2.4024878   -0.6276051   -2.4607484 
H    -0.1913090    2.1747737    3.9939993 
H    -0.2511459    2.0047016    2.2157879 
H    -1.1560262    0.8701123    3.2665938 
H     3.2267525    0.7904605    3.3301690 
H     2.2756400    2.0887530    4.0863704 
H     2.3965468    1.9957010    2.3125022 
H     4.1814350   -2.4281867    3.1381894 
H     3.0625448   -1.3547634    4.0120558 
H     2.5277841   -2.9790790    3.4898109 
H     2.1717230   -3.4945075    0.9719652 
H     2.4440836   -2.2190527   -0.2457336 
H     3.8272914   -2.9440810    0.6269012 
H    -3.5527854    1.4104556   -1.4107908 
H    -3.4633201    2.5941044   -0.0792023 
H    -1.9649116    2.0114827   -0.8591582 
H    -4.1704124   -0.5328377    1.9303058 
H    -4.9621636   -0.1506592    0.3773182 
H    -4.6892856    1.1299052    1.5809991 
H    -2.0751588   -2.9089978   -3.2852394 
H    -0.7231078   -2.5262949   -2.1823433 
H    -2.0589093   -3.5842572   -1.6376441 
H    -4.7005340   -0.8040553   -1.5734022 
H    -4.4057491   -2.4662514   -0.9771863 
H    -4.4193350   -2.1278564   -2.7242965 
