80
Energy =
C     0.4520588    0.4492035   -2.6329973 
C     1.2151717    1.3465466   -1.8531852 
C     2.2397803    0.8717924   -0.9846815 
H     0.9406488    2.4081224   -1.8314768 
Pd    0.2573523    0.0308554   -0.3480409 
P     0.9342045   -0.5543067    1.8139109 
P    -1.9113995   -0.8563872   -0.2027012 
H     0.8732977   -0.5573156   -2.7798955 
H     2.7173936   -0.0775860   -1.2665605 
C    -2.5648288    1.4289341   -5.5415191 
C    -2.0560293    2.4373758   -4.7052979 
C    -1.0765354    2.1394661   -3.7536083 
C    -0.5805473    0.8220442   -3.6129904 
C    -1.0826141   -0.1755703   -4.4826671 
C    -2.0682655    0.1214969   -5.4317490 
H    -3.3327027    1.6664214   -6.2846562 
H    -2.4258449    3.4635990   -4.7987446 
H    -0.6970305    2.9421639   -3.1130709 
H    -0.6811388   -1.1937215   -4.4176691 
H    -2.4411007   -0.6661336   -6.0945712 
C     4.6536851    3.2639094    1.6605955 
C     5.0754007    1.9863253    1.2609117 
C     4.2887764    1.2304904    0.3826492 
C     3.0602551    1.7303052   -0.1093312 
C     2.6589400    3.0270235    0.2876155 
C     3.4469350    3.7831710    1.1620014 
H     5.2654913    3.8564863    2.3481634 
H     6.0228605    1.5801637    1.6298183 
H     4.6276876    0.2372481    0.0659429 
H     1.7112293    3.4420953   -0.0706348 
H     3.1166354    4.7832864    1.4612745 
C    -0.3710510   -1.3789720    2.8389680 
C    -2.3148796   -1.9710676    1.2473706 
C    -1.1408089   -2.4886329    2.0926501 
C     1.5013345    0.9085347    2.8399383 
C     2.3773596   -1.7738181    1.7514892 
C    -3.2573273    0.4434931   -0.0798023 
C    -2.3269204   -1.9051062   -1.6957622 
C     1.9108918    0.5899661    4.2881229 
C     0.4392853    2.0208325    2.7719149 
C     2.5252710   -2.6731501    2.9931723 
C     2.3483059   -2.6341558    0.4717901 
C    -3.0225881    1.3414866    1.1477337 
C    -3.3442701    1.2826768   -1.3623932 
C    -1.3163314   -3.0623283   -1.8040273 
C    -3.7840868   -2.3898321   -1.7646788 
H    -1.0652247   -0.5914597    3.1849058 
H     0.1163153   -1.7863619    3.7405898 
H    -3.0160714   -1.4170317    1.8965997 
H    -2.8830046   -2.8252080    0.8391755 
H    -0.4517594   -3.0822451    1.4644154 
H    -1.5509085   -3.1922966    2.8393504 
H     2.3952057    1.2590113    2.2942848 
H     3.2472933   -1.0914995    1.6927456 
H    -4.1978628   -0.1243727    0.0612849 
H    -2.1493431   -1.2119513   -2.5380001 
H     2.2118121    1.5272009    4.7891712 
H     1.0801911    0.1564130    4.8722532 
H     2.7718193   -0.0958381    4.3364560 
H     0.1806645    2.2624527    1.7265327 
H     0.8333051    2.9366272    3.2456763 
H    -0.4877075    1.7400042    3.3034158 
H     3.4743730   -3.2337009    2.9232013 
H     2.5405692   -2.1096765    3.9388561 
H     1.7106780   -3.4165920    3.0465399 
H     1.5040098   -3.3453271    0.4821571 
H     2.2572410   -2.0204312   -0.4395963 
H     3.2787000   -3.2247020    0.3984431 
H    -2.0899154    1.9203089    1.0320836 
H    -3.8580404    2.0556084    1.2531066 
H    -2.9556497    0.7700709    2.0898355 
H    -3.5069773    0.6759328   -2.2686163 
H    -2.4149011    1.8579217   -1.5071715 
H    -4.1791716    2.0009189   -1.2832067 
H    -1.4437295   -3.7933976   -0.9848894 
H    -1.4634818   -3.6045527   -2.7547407 
H    -0.2744576   -2.6956947   -1.7739956 
H    -4.5037269   -1.5543638   -1.7616884 
H    -4.0379707   -3.0685117   -0.9307698 
H    -3.9362247   -2.9546883   -2.7017262 
