80
Energy =
C     0.5368253    0.4807998   -2.4974734 
C     1.2800416    1.3576286   -1.6794921 
C     2.2945205    0.8735031   -0.8025402 
H     0.9941059    2.4154401   -1.6277251 
Pd    0.2970587   -0.0299971   -0.2637375 
P     0.8870503   -0.8720830    1.8479250 
P    -1.9752596   -0.6360837   -0.2067500 
H     0.9566502   -0.5247982   -2.6576925 
H     2.8283107   -0.0336045   -1.1183974 
C    -2.3907390    1.5625850   -5.4583821 
C    -2.0060822    0.2241733   -5.2830890 
C    -1.0512259   -0.1093047   -4.3155637 
C    -0.4731799    0.8836420   -3.4899451 
C    -0.8619322    2.2298117   -3.6877753 
C    -1.8074876    2.5633825   -4.6632033 
H    -3.1320088    1.8273849   -6.2189891 
H    -2.4430354   -0.5595470   -5.9103554 
H    -0.7388335   -1.1530353   -4.1961690 
H    -0.4202820    3.0266838   -3.0814927 
H    -2.0918741    3.6108456   -4.8058252 
C     4.4856803    3.4238424    1.8944839 
C     3.1666353    3.7503214    1.5380427 
C     2.4509318    2.9312370    0.6588881 
C     3.0368238    1.7646729    0.1130913 
C     4.3714833    1.4608309    0.4656475 
C     5.0869140    2.2793861    1.3489320 
H     5.0433012    4.0626889    2.5867752 
H     2.6916216    4.6447813    1.9543423 
H     1.4137335    3.1847363    0.4138594 
H     4.8552847    0.5792890    0.0326444 
H     6.1207532    2.0267694    1.6062311 
C    -0.4635189   -1.6384073    2.8869430 
C    -2.5588625   -1.2589128    1.4453468 
C    -1.6561014   -2.2788230    2.1572639 
C     1.6083143    0.4197704    2.9967838 
C     2.1385186   -2.2754670    1.7747734 
C    -3.1822281    0.8070525   -0.4126173 
C    -2.4730444   -1.9338019   -1.4681640 
C     2.1054423   -0.1351196    4.3425080 
C     0.5968518    1.5671182    3.1764027 
C     1.6238525   -3.4182710    0.8815856 
C     3.5374141   -1.8185113    1.3408055 
C    -2.5164377    2.0850832    0.1329552 
C    -3.7275526    1.0052828   -1.8347366 
C    -1.3816938   -3.0048197   -1.6452390 
C    -3.8562175   -2.5597530   -1.2193339 
H    -0.8395904   -0.8406506    3.5526560 
H     0.0272909   -2.3844447    3.5375430 
H    -2.6850030   -0.3615822    2.0802471 
H    -3.5699736   -1.6749368    1.2919803 
H    -1.3165484   -3.0565273    1.4508897 
H    -2.2633566   -2.8058348    2.9154812 
H     2.4694968    0.8159152    2.4288541 
H     2.1923499   -2.6375296    2.8198929 
H    -4.0306780    0.5440523    0.2485114 
H    -2.5114753   -1.3365802   -2.3987333 
H     2.5466350    0.6868008    4.9338718 
H     1.2826506   -0.5661453    4.9396708 
H     2.8843322   -0.9058875    4.2178454 
H     0.2197827    1.9266587    2.2036954 
H     1.0846559    2.4149490    3.6869402 
H    -0.2683517    1.2599258    3.7917015 
H     2.3580470   -4.2430140    0.8711335 
H     0.6660602   -3.8322048    1.2374684 
H     1.4849124   -3.0716607   -0.1581940 
H     3.5390949   -1.5050133    0.2840729 
H     3.9222888   -0.9842524    1.9491840 
H     4.2435076   -2.6620962    1.4375909 
H    -1.6702911    2.3869107   -0.5107491 
H    -3.2459339    2.9138495    0.1539140 
H    -2.1303537    1.9480641    1.1587662 
H    -4.3178187    0.1424927   -2.1825116 
H    -2.9239005    1.1923906   -2.5617456 
H    -4.3954637    1.8850069   -1.8425093 
H    -1.2867925   -3.6457951   -0.7518059 
H    -1.6351395   -3.6601665   -2.4973768 
H    -0.3957150   -2.5493662   -1.8423649 
H    -4.6398286   -1.8035795   -1.0400113 
H    -3.8366187   -3.2473505   -0.3555932 
H    -4.1587938   -3.1508013   -2.1018574 
