80
Energy =
C     0.6139095    0.2121440   -2.6894913 
C     1.3600153    1.1567490   -1.9501492 
C     2.3698384    0.7329139   -1.0341440 
H     1.0756535    2.2158277   -1.9859760 
Pd    0.3906334   -0.0861406   -0.4051458 
P     1.0498075   -0.6370068    1.7690646 
P    -1.8592621   -0.7146466   -0.1495539 
H     1.0602097   -0.7886876   -2.7974214 
H     2.8830606   -0.2123402   -1.2667172 
C    -2.4912085    0.9655898   -5.5705657 
C    -2.1070822    1.9871946   -4.6848727 
C    -1.0941778    1.7659859   -3.7466519 
C    -0.4439216    0.5122097   -3.6671882 
C    -0.8294304   -0.4997752   -4.5785664 
C    -1.8423577   -0.2771764   -5.5187754 
H    -3.2847137    1.1432201   -6.3034721 
H    -2.5999235    2.9639185   -4.7296733 
H    -0.8125239    2.5753506   -3.0662589 
H    -0.3236521   -1.4709945   -4.5447684 
H    -2.1223420   -1.0734379   -6.2161086 
C     4.5594303    3.3238091    1.6279097 
C     3.3145038    3.7340582    1.1209270 
C     2.6032685    2.9108270    0.2421493 
C     3.1193016    1.6547211   -0.1549975 
C     4.3871254    1.2704070    0.3403462 
C     5.0964726    2.0914432    1.2269501 
H     5.1113493    3.9671918    2.3204796 
H     2.8939074    4.7004034    1.4180256 
H     1.6246502    3.2399610   -0.1227944 
H     4.8275023    0.3214698    0.0124546 
H     6.0762625    1.7722327    1.5969745 
C    -0.1298898   -1.7350625    2.6983411 
C    -2.2234561   -1.9503369    1.2052743 
C    -1.0019062   -2.6562952    1.8190548 
C     1.3356513    0.8521856    2.8753569 
C     2.6537848   -1.6091943    1.6572431 
C    -2.8275411    0.8072815    0.3834358 
C    -2.5804242   -1.4807433   -1.6973331 
C     1.4231567    0.5528069    4.3842009 
C     0.2487819    1.9087575    2.5991151 
C     3.3513777   -1.9482842    2.9843192 
C     2.4445312   -2.8638526    0.7862982 
C    -2.5896422    1.9760826   -0.5859984 
C    -4.3233129    0.6114378    0.6924099 
C    -1.7474410   -2.7344675   -2.0331294 
C    -4.0865784   -1.7904128   -1.6857150 
H    -0.7780636   -1.0832240    3.3124322 
H     0.4708216   -2.3321734    3.4073872 
H    -2.7807584   -1.4216718    1.9996642 
H    -2.9167285   -2.7003630    0.7861546 
H    -0.3973415   -3.1262426    1.0225315 
H    -1.3730112   -3.4816483    2.4534020 
H     2.3062184    1.2459834    2.5172396 
H     3.3005211   -0.9052177    1.1046080 
H    -2.3092234    1.0416017    1.3342236 
H    -2.3807585   -0.7183649   -2.4723816 
H     1.6824460    1.4833500    4.9197181 
H     0.4532020    0.2071556    4.7821751 
H     2.1839505   -0.1999800    4.6360044 
H     0.1580190    2.1310062    1.5224280 
H     0.4960028    2.8466370    3.1263870 
H    -0.7366616    1.5697311    2.9686172 
H     4.2428177   -2.5662774    2.7742911 
H     3.6951368   -1.0445893    3.5118621 
H     2.7043048   -2.5313678    3.6637473 
H     1.8652325   -3.6364089    1.3220714 
H     1.9170724   -2.6274862   -0.1563622 
H     3.4234338   -3.3060998    0.5306173 
H    -3.0203735    1.7696674   -1.5809010 
H    -3.0643038    2.8932803   -0.1950261 
H    -1.5107841    2.1737125   -0.7141092 
H    -4.5267782   -0.2913984    1.2923536 
H    -4.9224446    0.5513976   -0.2297328 
H    -4.6882690    1.4816248    1.2664442 
H    -1.9308795   -3.5495189   -1.3094240 
H    -2.0263086   -3.1099441   -3.0330435 
H    -0.6644688   -2.5179408   -2.0369289 
H    -4.6980671   -0.8770398   -1.6469871 
H    -4.3770418   -2.4385962   -0.8396772 
H    -4.3503116   -2.3269189   -2.6146483 
