80
Energy =
C     0.3697893    0.5607351   -2.7309613 
C     1.3576323    1.3259744   -2.0431959 
C     2.4151095    0.6820699   -1.3541530 
H     1.2003581    2.4032257   -1.9068051 
Pd    0.4062331    0.0096872   -0.5618651 
P     0.8660030   -0.2871730    1.7142985 
P    -1.6866473   -1.0195473   -0.4479958 
H     0.6905216   -0.4049970   -3.1496382 
H     2.6704614   -0.3377239   -1.6819335 
C    -3.2552797    2.1110320   -4.4747159 
C    -2.6100911    2.8284057   -3.4526328 
C    -1.4236826    2.3456288   -2.8912707 
C    -0.8502043    1.1323415   -3.3383353 
C    -1.4988098    0.4345402   -4.3836063 
C    -2.6903588    0.9154922   -4.9427077 
H    -4.1861046    2.4887922   -4.9095541 
H    -3.0384058    3.7682141   -3.0887801 
H    -0.9474162    2.9095819   -2.0821522 
H    -1.0526327   -0.4891966   -4.7703896 
H    -3.1737218    0.3591894   -5.7524773 
C     5.3986225    2.4609886    1.1836919 
C     5.4199367    1.0860223    0.8996813 
C     4.4582676    0.5319385    0.0471313 
C     3.4474252    1.3358584   -0.5319438 
C     3.4538747    2.7224011   -0.2557665 
C     4.4181628    3.2760715    0.5939504 
H     6.1498047    2.8980324    1.8492387 
H     6.1916626    0.4460476    1.3398305 
H     4.4770169   -0.5423735   -0.1698513 
H     2.6976373    3.3769127   -0.7000719 
H     4.4074834    4.3521495    0.7959223 
C    -0.7089304   -0.3986386    2.6971801 
C    -1.8204998   -2.1454187    1.0214082 
C    -1.7247897   -1.5364282    2.4368190 
C     1.6840958    1.2438097    2.4287521 
C     2.0085091   -1.7133860    2.1721073 
C    -3.1614037    0.1410891   -0.4737335 
C    -1.8613720   -2.1759590   -1.9166705 
C     2.0042779    1.1825971    3.9316517 
C     0.8810160    2.5019650    2.0520301 
C     1.6717140   -2.3799674    3.5181504 
C     2.1001885   -2.7460399    1.0338683 
C    -4.4680321   -0.4642220    0.0730473 
C    -2.8322367    1.4674920    0.2381268 
C    -0.6710450   -3.1543843   -1.9573879 
C    -3.2070090   -2.9050505   -2.0647903 
H    -1.1793001    0.5746697    2.4706817 
H    -0.4607747   -0.3783802    3.7718553 
H    -2.7529189   -2.7317990    0.9438422 
H    -0.9890886   -2.8572763    0.8677705 
H    -1.5133754   -2.3718276    3.1265168 
H    -2.7171633   -1.1530909    2.7326525 
H     2.6394260    1.2741960    1.8747363 
H     2.9920377   -1.2106468    2.2541951 
H    -3.2708683    0.3534379   -1.5560081 
H    -1.7595080   -1.4705731   -2.7615644 
H     2.5241652    2.1113539    4.2267655 
H     1.0932908    1.1052085    4.5507898 
H     2.6720094    0.3417538    4.1818557 
H     0.6446351    2.5193193    0.9726647 
H     1.4747846    3.4025145    2.2852316 
H    -0.0672756    2.5707017    2.6142489 
H     2.4583069   -3.1110796    3.7759430 
H     1.6032921   -1.6565615    4.3464567 
H     0.7163712   -2.9300809    3.4619325 
H     1.1410732   -3.2733467    0.8861994 
H     2.3759908   -2.2722081    0.0762532 
H     2.8629100   -3.5072102    1.2754816 
H    -4.3967775   -0.6456040    1.1596693 
H    -5.2953973    0.2497918   -0.0866992 
H    -4.7455301   -1.4110997   -0.4136219 
H    -1.8553865    1.8701381   -0.0778440 
H    -2.8144325    1.3379734    1.3347669 
H    -3.6077858    2.2178478    0.0057980 
H    -0.7571838   -3.9344797   -1.1803786 
H    -0.6439921   -3.6669869   -2.9349199 
H     0.2934811   -2.6335157   -1.8154799 
H    -4.0420578   -2.2038222   -2.2215112 
H    -3.4368985   -3.5416689   -1.1923045 
H    -3.1631899   -3.5654287   -2.9494758 
