80
Energy =
C     0.4431640    0.4301630   -2.6394068 
C     1.2251420    1.3181652   -1.8675403 
C     2.2480488    0.8308519   -1.0042713 
H     0.9668074    2.3838109   -1.8474833 
Pd    0.2570348    0.0225628   -0.3516151 
P     0.9338192   -0.5539290    1.8124987 
P    -1.9227144   -0.8353472   -0.1908732 
H     0.8481196   -0.5829476   -2.7867088 
H     2.7081603   -0.1274581   -1.2850596 
C    -2.5787866    1.4504805   -5.5288679 
C    -2.0478674    2.4527009   -4.6989521 
C    -1.0663604    2.1414925   -3.7536264 
C    -0.5902842    0.8167139   -3.6132615 
C    -1.1142970   -0.1747959   -4.4769377 
C    -2.1021543    0.1356142   -5.4194721 
H    -3.3482472    1.6983539   -6.2669500 
H    -2.4019635    3.4844688   -4.7922846 
H    -0.6696879    2.9395257   -3.1176924 
H    -0.7283781   -1.1989814   -4.4125837 
H    -2.4922632   -0.6475859   -6.0775869 
C     4.7166746    3.1923036    1.6179324 
C     3.5195287    3.7325150    1.1184649 
C     2.7140801    2.9864346    0.2513448 
C     3.0880118    1.6791202   -0.1374794 
C     4.3076529    1.1581308    0.3546774 
C     5.1115254    1.9037818    1.2259716 
H     5.3420031    3.7770490    2.3000173 
H     3.2104266    4.7412591    1.4113654 
H     1.7742170    3.4184043   -0.1075890 
H     4.6256572    0.1561587    0.0438619 
H     6.0515023    1.4810472    1.5954119 
C    -0.3803637   -1.3503622    2.8483573 
C    -2.3336159   -1.9382199    1.2663249 
C    -1.1633111   -2.4592338    2.1146075 
C     1.5252384    0.9099711    2.8231825 
C     2.3593412   -1.7945489    1.7589302 
C    -3.2523921    0.4812440   -0.0681114 
C    -2.3577259   -1.8860718   -1.6769601 
C     1.9339157    0.5984775    4.2731174 
C     0.4800954    2.0376036    2.7473761 
C     2.4938715   -2.6871949    3.0069606 
C     2.3186581   -2.6628670    0.4849621 
C    -3.0017588    1.3817067    1.1544382 
C    -3.3352170    1.3157578   -1.3539685 
C    -1.3606544   -3.0550007   -1.7849473 
C    -3.8205650   -2.3547230   -1.7362778 
H    -1.0647726   -0.5506514    3.1856020 
H     0.1027895   -1.7532595    3.7542446 
H    -3.0307008   -1.3749854    1.9120305 
H    -2.9079422   -2.7908684    0.8637287 
H    -0.4817949   -3.0660204    1.4907630 
H    -1.5790981   -3.1514039    2.8688779 
H     2.4229125    1.2415701    2.2720187 
H     3.2390861   -1.1253759    1.6960939 
H    -4.1988903   -0.0748995    0.0795971 
H    -2.1767194   -1.1987719   -2.5232324 
H     2.2515342    1.5353946    4.7643624 
H     1.0980128    0.1840357    4.8637020 
H     2.7837430   -0.1007635    4.3255403 
H     0.2226599    2.2735379    1.7003328 
H     0.8891132    2.9516273    3.2117571 
H    -0.4497341    1.7757299    3.2835415 
H     3.4347525   -3.2619425    2.9411859 
H     2.5173091   -2.1171680    3.9485717 
H     1.6685573   -3.4182902    3.0655568 
H     1.4637100   -3.3611723    0.4988867 
H     2.2379865   -2.0537931   -0.4304691 
H     3.2401138   -3.2678520    0.4166059 
H    -2.0625111    1.9484600    1.0326763 
H    -3.8279410    2.1065584    1.2597961 
H    -2.9384508    0.8136153    2.0987949 
H    -3.5081969    0.7069587   -2.2569114 
H    -2.4002339    1.8801759   -1.5049349 
H    -4.1618528    2.0434726   -1.2746053 
H    -1.4916081   -3.7805841   -0.9614749 
H    -1.5189699   -3.6002851   -2.7321119 
H    -0.3146447   -2.6998159   -1.7623263 
H    -4.5307264   -1.5111534   -1.7331146 
H    -4.0777060   -3.0270040   -0.8982165 
H    -3.9838743   -2.9216781   -2.6701659 
