80
Energy =
C     0.2433692    0.5769250   -2.4626039 
C     1.1335605    1.3757991   -1.7027255 
C     2.2046603    0.8081658   -0.9700953 
H     0.9238455    2.4464056   -1.5934124 
Pd    0.1939903   -0.0128710   -0.2570633 
P     0.8641376   -0.6649370    1.9051604 
P    -1.9272613   -1.0366940   -0.2491152 
H     0.6140818   -0.4052179   -2.7904278 
H     2.5632936   -0.1780995   -1.2991781 
C    -2.9086288    2.1169962   -4.9591794 
C    -2.4085807    0.8204668   -5.1513461 
C    -1.3871918    0.3325402   -4.3266330 
C    -0.8518223    1.1244493   -3.2848259 
C    -1.3666012    2.4301423   -3.1043501 
C    -2.3784749    2.9209948   -3.9357258 
H    -3.7037598    2.5023758   -5.6051881 
H    -2.8079264    0.1909196   -5.9531087 
H    -0.9834279   -0.6720908   -4.4978740 
H    -0.9838910    3.0663112   -2.2995208 
H    -2.7627445    3.9344198   -3.7813302 
C     5.1775905    3.0519072    1.1905735 
C     3.9589447    3.6631892    0.8500189 
C     2.9752466    2.9440295    0.1635521 
C     3.1923778    1.5965387   -0.2099264 
C     4.4294705    1.0003188    0.1274849 
C     5.4091130    1.7171883    0.8258690 
H     5.9433842    3.6160797    1.7321691 
H     3.7729492    4.7055289    1.1283726 
H     2.0257020    3.4350131   -0.0731159 
H     4.6266831   -0.0339664   -0.1774808 
H     6.3602982    1.2363059    1.0760782 
C    -0.2691006   -1.8606513    2.7765837 
C    -2.2820618   -2.1364307    1.2132052 
C    -1.7802865   -1.6546219    2.5846570 
C     1.0309877    0.7301563    3.1735905 
C     2.4876630   -1.6050715    1.8982772 
C    -3.4278542    0.1159833   -0.2512211 
C    -2.1401185   -2.2196958   -1.6898374 
C     0.0345721    1.8552685    2.8374916 
C     2.4592968    1.2789863    3.3275943 
C     2.8443229   -2.2480528    3.2522332 
C     2.4964872   -2.6459997    0.7628213 
C    -3.0883374    1.4096903    0.5117733 
C    -3.9895895    0.4252990   -1.6487683 
C    -0.8814829   -3.0921930   -1.8554302 
C    -3.4144616   -3.0816457   -1.6073985 
H    -0.0091489   -1.8153629    3.8488182 
H     0.0047482   -2.8734830    2.4271933 
H    -3.3759990   -2.2852281    1.2363746 
H    -1.8333203   -3.1220962    0.9896463 
H    -2.3017420   -2.2440738    3.3602894 
H    -2.0645376   -0.6020824    2.7660739 
H     0.7297980    0.2651293    4.1318525 
H     3.2301011   -0.8211882    1.6609701 
H    -4.1965237   -0.4399897    0.3189713 
H    -2.2141761   -1.5421818   -2.5604237 
H     0.0838666    2.6441801    3.6085700 
H     0.2748692    2.3117391    1.8601713 
H    -1.0049981    1.4915384    2.7939654 
H     3.1734352    0.5165224    3.6749407 
H     2.4484272    2.0883090    4.0790813 
H     2.8367698    1.7048052    2.3870972 
H     3.8824709   -2.6236731    3.2180167 
H     2.7735233   -1.5393850    4.0941746 
H     2.1910039   -3.1092273    3.4742009 
H     1.7436880   -3.4378200    0.9301324 
H     2.2867238   -2.1862491   -0.2180941 
H     3.4842746   -3.1369788    0.7105824 
H    -2.2773678    1.9625014    0.0043832 
H    -3.9768643    2.0637939    0.5567629 
H    -2.7663043    1.2098283    1.5468580 
H    -4.3318737   -0.4761284   -2.1804804 
H    -3.2523861    0.9412545   -2.2797037 
H    -4.8612846    1.0946631   -1.5390555 
H    -0.7381143   -3.7679671   -0.9927421 
H    -0.9779544   -3.7241064   -2.7559145 
H     0.0319278   -2.4814198   -1.9581646 
H    -4.3229820   -2.4847178   -1.4225293 
H    -3.3362516   -3.8415643   -0.8110082 
H    -3.5562236   -3.6194967   -2.5616347 
