80
Energy =
C     0.2225352    0.5380995   -2.6527863 
C     1.2007005    1.2785833   -1.9331166 
C     2.2719170    0.6364525   -1.2687160 
H     1.0435297    2.3532748   -1.7797426 
Pd    0.2676073   -0.0797007   -0.4613906 
P     0.8988056   -0.3165168    1.7887204 
P    -1.8500050   -1.0721275   -0.2805427 
H     0.5423740   -0.4212209   -3.0846328 
H     2.5361498   -0.3753235   -1.6128027 
C    -3.2109304    2.3137051   -4.5609340 
C    -2.6086680    2.9571177   -3.4667661 
C    -1.4906139    2.3925594   -2.8447054 
C    -0.9445809    1.1693916   -3.3012839 
C    -1.5493187    0.5459884   -4.4167078 
C    -2.6717340    1.1090941   -5.0371411 
H    -4.0890896    2.7540491   -5.0438403 
H    -3.0174159    3.9018222   -3.0933192 
H    -1.0520753    2.8972106   -1.9772891 
H    -1.1266418   -0.3858845   -4.8063719 
H    -3.1223803    0.6090299   -5.9006511 
C     5.3291293    2.4992403    1.1202648 
C     4.2861149    3.2819968    0.5972822 
C     3.2934257    2.6983373   -0.1971833 
C     3.3198479    1.3133982   -0.4847849 
C     4.3938187    0.5450602    0.0225759 
C     5.3839910    1.1287232    0.8217694 
H     6.1025147    2.9589353    1.7437694 
H     4.2481374    4.3554748    0.8092358 
H     2.4876289    3.3279094   -0.5866674 
H     4.4447102   -0.5238750   -0.2133701 
H     6.2050850    0.5150817    1.2065267 
C    -0.4925680   -0.7598081    2.9311228 
C    -2.4246414   -1.5737246    1.4258634 
C    -1.3558654   -1.9480758    2.4673517 
C     1.5273087    1.3181637    2.4605406 
C     2.2781693   -1.5656572    2.1118062 
C    -3.2245040    0.0561335   -0.8681322 
C    -2.0377149   -2.6773667   -1.2391958 
C     1.8399028    1.3347828    3.9664235 
C     0.5683570    2.4522614    2.0536184 
C     2.2509396   -2.2240039    3.5034136 
C     2.3394017   -2.6344860    1.0047664 
C    -4.6201974   -0.5897842   -0.8709116 
C    -3.1895370    1.3686931   -0.0628451 
C    -1.9813570   -2.4665940   -2.7578860 
C    -0.9940739   -3.7115596   -0.7822368 
H    -1.1168593    0.1465515    3.0384660 
H    -0.0616841   -0.9643874    3.9254447 
H    -3.0227392   -0.7306952    1.8163941 
H    -3.1252168   -2.4167039    1.2863507 
H    -0.7146894   -2.7677243    2.0953016 
H    -1.8827179   -2.3560408    3.3488941 
H     2.4740046    1.4597780    1.9098193 
H     3.1826277   -0.9326084    2.0323241 
H    -2.9333934    0.2913517   -1.9080375 
H    -3.0463476   -3.0427183   -0.9645101 
H     2.2293372    2.3310119    4.2422308 
H     0.9416582    1.1506584    4.5812619 
H     2.6110736    0.5962230    4.2391456 
H     0.3786627    2.4466809    0.9651319 
H     1.0109854    3.4278840    2.3202441 
H    -0.4055116    2.3746878    2.5699601 
H     3.1613158   -2.8358763    3.6327708 
H     2.2230826   -1.4922418    4.3263173 
H     1.3843632   -2.8996145    3.6119722 
H     1.4690426   -3.3112099    1.0522700 
H     2.3618341   -2.1831913   -0.0017777 
H     3.2477781   -3.2507426    1.1272265 
H    -4.9441468   -0.8747228    0.1456054 
H    -5.3564014    0.1354412   -1.2607957 
H    -4.6672454   -1.4844252   -1.5141055 
H    -2.1698056    1.7899461   -0.0202464 
H    -3.5454069    1.2239846    0.9734675 
H    -3.8479835    2.1146199   -0.5399952 
H    -0.9784200   -2.1292834   -3.0681521 
H    -2.1855927   -3.4234539   -3.2700294 
H    -2.7182206   -1.7284816   -3.1135900 
H    -1.0697671   -3.9396384    0.2940613 
H     0.0294825   -3.3522944   -0.9902146 
H    -1.1412886   -4.6576258   -1.3323041 
