80
Energy =
C     0.4230095    0.4167602   -2.6424828 
C     1.2121612    1.3081394   -1.8819371 
C     2.2405673    0.8246719   -1.0228644 
H     0.9559163    2.3743901   -1.8667868 
Pd    0.2529641    0.0229223   -0.3518109 
P     0.9502080   -0.5540246    1.8059244 
P    -1.9278561   -0.8265909   -0.1684830 
H     0.8247003   -0.5982690   -2.7855595 
H     2.6985840   -0.1352082   -1.3016379 
C    -2.6169112    1.4228545   -5.5179893 
C    -2.0776871    2.4300047   -4.6994620 
C    -1.0902466    2.1235328   -3.7587731 
C    -0.6164262    0.7986670   -3.6117631 
C    -1.1489931   -0.1980504   -4.4641489 
C    -2.1427446    0.1076631   -5.4019965 
H    -3.3909554    1.6670537   -6.2524949 
H    -2.4299084    3.4619165   -4.7981282 
H    -0.6870160    2.9253948   -3.1318447 
H    -0.7651046   -1.2226696   -4.3947406 
H    -2.5394043   -0.6795089   -6.0513971 
C     4.7277928    3.2029323    1.5664584 
C     3.5226731    3.7365169    1.0791769 
C     2.7110455    2.9846783    0.2229032 
C     3.0864191    1.6780368   -0.1668224 
C     4.3135398    1.1635009    0.3133370 
C     5.1238680    1.9151013    1.1735189 
H     5.3581678    3.7922330    2.2399250 
H     3.2122267    4.7445337    1.3731576 
H     1.7651948    3.4113773   -0.1265656 
H     4.6325530    0.1621452    0.0015790 
H     6.0698262    1.4975320    1.5334401 
C    -0.3533089   -1.3487282    2.8565853 
C    -2.3298150   -1.9201838    1.2978965 
C    -1.1528371   -2.4510029    2.1308799 
C     1.5543058    0.9087804    2.8108555 
C     2.3728667   -1.7968075    1.7338338 
C    -3.2502548    0.4967603   -0.0405684 
C    -2.3806902   -1.8828691   -1.6452476 
C     1.9745818    0.5976442    4.2575628 
C     0.5102971    2.0381074    2.7437235 
C     2.5265347   -2.6857476    2.9822507 
C     2.3101221   -2.6694525    0.4636795 
C    -2.9847702    1.4019258    1.1753995 
C    -3.3395203    1.3253798   -1.3298734 
C    -1.3912445   -3.0580654   -1.7548028 
C    -3.8466361   -2.3433254   -1.6904061 
H    -1.0288940   -0.5468971    3.2064928 
H     0.1406622   -1.7573537    3.7540730 
H    -3.0112821   -1.3474914    1.9518507 
H    -2.9191344   -2.7676965    0.9061972 
H    -0.4832639   -3.0618170    1.4981185 
H    -1.5643152   -3.1410078    2.8894770 
H     2.4476684    1.2386467    2.2516330 
H     3.2522649   -1.1288701    1.6543397 
H    -4.1982414   -0.0538762    0.1177875 
H    -2.2025862   -1.2012089   -2.4966743 
H     2.2972484    1.5344846    4.7456482 
H     1.1430176    0.1845395    4.8551723 
H     2.8239449   -0.1025517    4.3036045 
H     0.2442839    2.2741417    1.6988990 
H     0.9246488    2.9516043    3.2043781 
H    -0.4152970    1.7777777    3.2879423 
H     3.4655132   -3.2619048    2.9030781 
H     2.5658014   -2.1129668    3.9216186 
H     1.7013916   -3.4156641    3.0563278 
H     1.4559835   -3.3681571    0.4951729 
H     2.2128454   -2.0635714   -0.4523214 
H     3.2305363   -3.2742413    0.3810959 
H    -2.0441418    1.9638851    1.0424900 
H    -3.8067533    2.1309684    1.2846654 
H    -2.9153889    0.8381202    2.1218966 
H    -3.5236690    0.7130501   -2.2282128 
H    -2.4026427    1.8836777   -1.4916400 
H    -4.1613417    2.0581530   -1.2471348 
H    -1.5206647   -3.7791069   -0.9271330 
H    -1.5593526   -3.6067425   -2.6983170 
H    -0.3430761   -2.7088209   -1.7412427 
H    -4.5519347   -1.4956765   -1.6871868 
H    -4.1012078   -3.0088797   -0.8461999 
H    -4.0204183   -2.9151995   -2.6193966 
