80
Energy =
C     0.6012282    0.3720263   -2.5733407 
C     1.2271282    1.3283514   -1.7508579 
C     2.2221030    0.9434157   -0.7962634 
H     0.8733593    2.3670820   -1.7657902 
Pd    0.2897624   -0.0370091   -0.2771852 
P     0.9410606   -0.8918969    1.8028301 
P    -1.9513954   -0.7231382   -0.1872299 
H     1.0726232   -0.6222199   -2.6233434 
H     2.8505349    0.0836205   -1.0662464 
C    -2.2173055    1.0467564   -5.7490072 
C    -1.7752414   -0.2496966   -5.4437220 
C    -0.8515429   -0.4484056   -4.4112131 
C    -0.3622760    0.6401270   -3.6498363 
C    -0.7966448    1.9431247   -3.9905149 
C    -1.7145219    2.1417663   -5.0257031 
H    -2.9359146    1.2069259   -6.5591453 
H    -2.1426036   -1.1057238   -6.0189495 
H    -0.4952122   -1.4604883   -4.1882730 
H    -0.4101535    2.8117623   -3.4482599 
H    -2.0368361    3.1574805   -5.2764670 
C     4.0280216    3.7070873    1.9756546 
C     2.7005072    3.8992908    1.5581784 
C     2.1115588    3.0120341    0.6513694 
C     2.8367861    1.9114346    0.1369511 
C     4.1765639    1.7407877    0.5536571 
C     4.7645891    2.6271845    1.4653963 
H     4.4864780    4.3988959    2.6894940 
H     2.1192258    4.7407144    1.9495898 
H     1.0645557    3.1555334    0.3604974 
H     4.7638879    0.9085607    0.1521534 
H     5.8046123    2.4779011    1.7735255 
C    -0.3616958   -1.8080496    2.7741602 
C    -2.4941761   -1.6736174    1.3202323 
C    -1.8104908   -1.3098422    2.6514369 
C     1.6273730    0.3647466    3.0107236 
C     2.2343867   -2.2474435    1.6251148 
C    -3.1450013    0.7284005   -0.2188348 
C    -2.4725491   -1.8241644   -1.6092919 
C     2.2295335   -0.2362948    4.2922064 
C     0.5551874    1.4248717    3.3244618 
C     1.7809367   -3.2693072    0.5652895 
C     3.6434627   -1.7234996    1.3113256 
C    -2.9554444    1.6418084    1.0056199 
C    -3.0052725    1.5263076   -1.5224996 
C    -1.5041678   -3.0139238   -1.7363809 
C    -3.9438618   -2.2705669   -1.5655210 
H    -0.0400621   -1.7749422    3.8301916 
H    -0.3076554   -2.8678680    2.4667697 
H    -3.5868994   -1.5334053    1.4071079 
H    -2.3303318   -2.7455264    1.1035915 
H    -2.3958296   -1.7755747    3.4651634 
H    -1.8570659   -0.2223203    2.8289532 
H     2.4314646    0.8542216    2.4317198 
H     2.2478178   -2.7396637    2.6177602 
H    -4.1536857    0.2740006   -0.1709227 
H    -2.3247085   -1.1729618   -2.4906236 
H     2.6670772    0.5756397    4.8996674 
H     1.4640530   -0.7320878    4.9153832 
H     3.0313577   -0.9644788    4.0867311 
H     0.0920666    1.8171531    2.4033079 
H     1.0180722    2.2727505    3.8577292 
H    -0.2415548    1.0157489    3.9711236 
H     2.4810310   -4.1226609    0.5417404 
H     0.7716122   -3.6705036    0.7612838 
H     1.7714502   -2.8061890   -0.4381085 
H     3.6848298   -1.2925972    0.2979642 
H     3.9879121   -0.9571474    2.0238872 
H     4.3607959   -2.5623230    1.3435556 
H    -1.9192889    2.0230585    1.0571356 
H    -3.6329310    2.5101922    0.9260027 
H    -3.1856725    1.1313426    1.9547596 
H    -3.1339313    0.9074574   -2.4256686 
H    -2.0110201    2.0012974   -1.5767313 
H    -3.7651159    2.3270150   -1.5531317 
H    -1.5847820   -3.7046723   -0.8775825 
H    -1.7382270   -3.5935508   -2.6466499 
H    -0.4554732   -2.6755932   -1.8022249 
H    -4.6405622   -1.4160965   -1.5302342 
H    -4.1492543   -2.9231144   -0.6989640 
H    -4.1786475   -2.8493107   -2.4766785 
