80
Energy =
C     0.6100536    0.1936999   -2.6963017 
C     1.3558044    1.1425109   -1.9610751 
C     2.3780995    0.7250075   -1.0572608 
H     1.0606846    2.1987507   -1.9903917 
Pd    0.4023472   -0.1071828   -0.4144156 
P     1.0441981   -0.6094666    1.7780635 
P    -1.8451307   -0.7465096   -0.1418355 
H     1.0671932   -0.8002128   -2.8204531 
H     2.8918364   -0.2184763   -1.2924613 
C    -2.5488468    0.9416403   -5.5201876 
C    -2.1731001    1.9524787   -4.6186338 
C    -1.1419582    1.7329746   -3.7000189 
C    -0.4644511    0.4918243   -3.6567022 
C    -0.8408900   -0.5080444   -4.5845515 
C    -1.8724107   -0.2873049   -5.5048741 
H    -3.3571774    1.1173162   -6.2371903 
H    -2.6871091    2.9191554   -4.6353282 
H    -0.8679857    2.5327446   -3.0053653 
H    -0.3140516   -1.4683864   -4.5793645 
H    -2.1455964   -1.0743793   -6.2152294 
C     4.6062546    3.3155903    1.5703171 
C     5.1129162    2.0598416    1.2027278 
C     4.3895382    1.2386524    0.3280671 
C     3.1383638    1.6474265   -0.1896644 
C     2.6522428    2.9251200    0.1745533 
C     3.3777276    3.7478870    1.0424856 
H     5.1690961    3.9590660    2.2539360 
H     6.0791457    1.7220022    1.5913507 
H     4.8024597    0.2681070    0.0290224 
H     1.6860858    3.2727801   -0.2057899 
H     2.9809916    4.7316038    1.3143420 
C    -0.2123214   -1.5649804    2.7543047 
C    -2.2074469   -2.0238951    1.1777290 
C    -0.9935651   -2.6049402    1.9215049 
C     1.4232484    0.9147916    2.8046359 
C     2.5920280   -1.6815289    1.7153828 
C    -2.7740783    0.7752021    0.4635154 
C    -2.6157644   -1.4495751   -1.6958742 
C     1.6392237    0.6819062    4.3107037 
C     0.3219910    1.9655457    2.5637055 
C     3.0223606   -2.3465265    3.0340831 
C     2.4894783   -2.7333642    0.5907687 
C    -2.5180388    1.9770090   -0.4604249 
C    -4.2722908    0.6078820    0.7762079 
C    -1.8004142   -2.6937482   -2.1022132 
C    -4.1223310   -1.7555177   -1.6453408 
H    -0.9086385   -0.8344733    3.2072606 
H     0.3153379   -2.0527024    3.5919836 
H    -2.8978555   -1.5625372    1.9064335 
H    -2.7685967   -2.8417127    0.6934893 
H    -0.3219446   -3.1105126    1.2041388 
H    -1.3638492   -3.3917890    2.6031352 
H     2.3620104    1.2900093    2.3567403 
H     3.3552295   -0.9344106    1.4263303 
H    -2.2419578    0.9581366    1.4182485 
H    -2.4365497   -0.6599291   -2.4483883 
H     1.8395122    1.6525755    4.7980657 
H     0.7446654    0.2500006    4.7924069 
H     2.4971679    0.0261906    4.5216465 
H     0.1522789    2.1376979    1.4869976 
H     0.6174887    2.9250582    3.0225400 
H    -0.6353914    1.6585468    3.0236974 
H     3.9678042   -2.8933524    2.8692362 
H     3.1965546   -1.6227654    3.8441106 
H     2.2774426   -3.0847138    3.3798428 
H     1.8169357   -3.5613320    0.8750160 
H     2.1120961   -2.2980843   -0.3519199 
H     3.4850981   -3.1702501    0.3975991 
H    -2.9712528    1.8228092   -1.4548449 
H    -2.9607053    2.8896698   -0.0240259 
H    -1.4361869    2.1505421   -0.5995859 
H    -4.4988376   -0.3139153    1.3378977 
H    -4.8783613    0.6052326   -0.1435183 
H    -4.6085943    1.4621008    1.3902251 
H    -1.9695597   -3.5353817   -1.4060693 
H    -2.1091388   -3.0276854   -3.1078481 
H    -0.7168211   -2.4837514   -2.1267664 
H    -4.7294375   -0.8431929   -1.5530097 
H    -4.3857742   -2.4331791   -0.8137425 
H    -4.4185798   -2.2573763   -2.5837816 
