80
Energy =
C     1.0426737   -0.5657028   -2.3870233 
C     1.8904269    0.3436883   -1.7073561 
C     2.5696160   -0.0247658   -0.5152846 
H     1.9207600    1.3903088   -2.0334297 
Pd    0.3281078   -0.2120004   -0.2507074 
P     0.3735578   -0.0492851    2.0907043 
P    -1.9611231   -0.6691730   -0.4839302 
H     1.2215597   -1.6369727   -2.2108245 
H     2.7818774   -1.0952026   -0.3726330 
C    -1.0615771    0.2092684   -6.0634055 
C    -0.9205666   -1.0992736   -5.5771491 
C    -0.2329967   -1.3329097   -4.3797548 
C     0.3175414   -0.2640380   -3.6350910 
C     0.1693262    1.0491484   -4.1405631 
C    -0.5075475    1.2806356   -5.3425711 
H    -1.5939611    0.3943208   -7.0016782 
H    -1.3381220   -1.9416444   -6.1381757 
H    -0.1073114   -2.3593810   -4.0161016 
H     0.5796540    1.9016586   -3.5896923 
H    -0.6088003    2.3038228   -5.7185942 
C     5.0497944    2.5633273    1.8771175 
C     4.1432071    3.1214417    0.9596906 
C     3.3429134    2.2952543    0.1643882 
C     3.4268206    0.8868305    0.2679888 
C     4.3681754    0.3413060    1.1722548 
C     5.1660675    1.1686056    1.9728619 
H     5.6710460    3.2128982    2.5018822 
H     4.0586951    4.2091526    0.8665831 
H     2.6326251    2.7538897   -0.5306087 
H     4.4838180   -0.7470328    1.2347930 
H     5.8871981    0.7230821    2.6658413 
C    -2.8703977   -0.9497965    1.1183549 
C    -1.2018161   -0.4184291    3.0051484 
C    -2.5084955   -0.0231841    2.2945826 
C    -2.3145588   -2.2455233   -1.4358575 
C    -2.9751746    0.7055801   -1.2964812 
C     1.5850998   -1.3173727    2.7597933 
C     0.9378434    1.6542014    2.6576406 
C    -3.7882761   -2.6909171   -1.3790480 
C    -1.3648044   -3.3701724   -0.9840334 
C    -2.3325650    2.0725544   -0.9945132 
C    -3.1859815    0.5148674   -2.8082478 
C     1.7258343   -1.3786401    4.2903238 
C     1.2556794   -2.6982156    2.1587986 
C     0.3539211    2.7393596    1.7327631 
C     0.6683664    2.0036136    4.1321204 
H    -2.6903313   -2.0011154    1.4109949 
H    -3.9470930   -0.8660554    0.8875612 
H    -1.2072065   -1.5067345    3.1991869 
H    -1.1369375    0.0735019    3.9904020 
H    -2.4752816    1.0332244    1.9705713 
H    -3.3255270   -0.0847659    3.0358760 
H    -2.0567854   -1.9709243   -2.4754016 
H    -3.9602988    0.6572458   -0.7940159 
H     2.5445748   -0.9729707    2.3345390 
H     2.0303725    1.6052801    2.4897531 
H    -3.9531126   -3.5097213   -2.1017438 
H    -4.0544274   -3.0761157   -0.3797063 
H    -4.4899482   -1.8777982   -1.6303913 
H    -0.3062954   -3.0784360   -1.0940108 
H    -1.5375082   -4.2748145   -1.5933305 
H    -1.5313078   -3.6467962    0.0729062 
H    -2.9656056    2.8823699   -1.3982275 
H    -2.2082072    2.2474937    0.0865904 
H    -1.3363390    2.1461912   -1.4666988 
H    -2.2301861    0.4750120   -3.3516166 
H    -3.7594061   -0.3944853   -3.0462827 
H    -3.7556330    1.3763994   -3.1995811 
H     0.7651452   -1.5968403    4.7889388 
H     2.4266759   -2.1897264    4.5577935 
H     2.1326701   -0.4436514    4.7060531 
H     1.1959859   -2.6597496    1.0563963 
H     0.2941250   -3.0913634    2.5358916 
H     2.0389768   -3.4245625    2.4383188 
H     0.8483821    3.7059198    1.9326104 
H     0.4971080    2.4902286    0.6675616 
H    -0.7281058    2.8728576    1.9103079 
H     1.0457834    1.2467045    4.8362806 
H    -0.4103813    2.1456735    4.3214363 
H     1.1679944    2.9593411    4.3701609 
