80
Energy =
C     0.8918892   -0.5414427   -2.4913417 
C     1.8626291    0.2285450   -1.7917570 
C     2.5730151   -0.3078426   -0.6908578 
H     1.9670919    1.2952941   -2.0264810 
Pd    0.3282049   -0.3276936   -0.3056725 
P     0.4050829    0.1135836    1.9933608 
P    -1.9644931   -0.8102732   -0.4215243 
H     1.0354466   -1.6316517   -2.5006898 
H     2.6429976   -1.4051809   -0.6332429 
C    -1.5637121    0.9680728   -5.6947380 
C    -1.0271634    1.8563478   -4.7474918 
C    -0.2206790    1.3784955   -3.7096991 
C     0.0724218   -0.0011352   -3.5940633 
C    -0.4581880   -0.8791063   -4.5668155 
C    -1.2702556   -0.4009467   -5.6030840 
H    -2.1996050    1.3430077   -6.5030317 
H    -1.2454263    2.9272518   -4.8151346 
H     0.1633346    2.0832900   -2.9645082 
H    -0.2246018   -1.9474979   -4.5111548 
H    -1.6697207   -1.0991471   -6.3458878 
C     5.5447975    1.6954372    1.6974087 
C     4.6823123    2.4527637    0.8863721 
C     3.7163985    1.8204082    0.0966391 
C     3.5853368    0.4119832    0.1038333 
C     4.4734658   -0.3369471    0.9115197 
C     5.4414568    0.2964833    1.7009095 
H     6.3000566    2.1942004    2.3130859 
H     4.7669367    3.5442901    0.8675488 
H     3.0544932    2.4322144   -0.5239230 
H     4.4028189   -1.4310057    0.9118636 
H     6.1203861   -0.3037674    2.3152187 
C    -2.9938732   -0.5186717    1.1145429 
C    -1.1839205   -0.1357783    2.9130597 
C    -2.4253559    0.4227052    2.1884175 
C    -2.2951525   -2.6294502   -0.7467398 
C    -2.8681298    0.1610363   -1.7424123 
C     1.6611924   -0.9248166    2.9166291 
C     0.8869073    1.9185614    2.2665751 
C    -1.5664563   -3.4918776    0.3002046 
C    -1.9087345   -3.0512263   -2.1716978 
C    -4.3175982   -0.2858832   -1.9944199 
C    -2.7685238    1.6618208   -1.4113557 
C     1.6944062   -0.7312589    4.4423516 
C     1.4956807   -2.4058879    2.5285645 
C     0.4361342    2.7997723    1.0839137 
C     0.4268446    2.5319125    3.6012963 
H    -3.1902896   -1.5076546    1.5656154 
H    -3.9707117   -0.1399837    0.7663732 
H    -1.2964593   -1.2219923    3.0866193 
H    -1.0750185    0.3315387    3.9062905 
H    -2.2070851    1.4152443    1.7536276 
H    -3.2186914    0.5893611    2.9393951 
H    -3.3888842   -2.7465983   -0.6159245 
H    -2.2737838   -0.0281418   -2.6539856 
H     2.6188015   -0.5649579    2.4975215 
H     1.9926501    1.8669773    2.2513653 
H    -1.8315538   -4.5546829    0.1618784 
H    -0.4717997   -3.3942436    0.1889505 
H    -1.8280732   -3.2167232    1.3366842 
H    -2.4029379   -2.4434845   -2.9467882 
H    -2.1920869   -4.1058241   -2.3351774 
H    -0.8182091   -2.9720013   -2.3174027 
H    -4.7456284    0.3207940   -2.8120356 
H    -4.3864489   -1.3439645   -2.2969870 
H    -4.9601520   -0.1378048   -1.1079224 
H    -3.3805444    1.9255332   -0.5296271 
H    -1.7251474    1.9612980   -1.2118909 
H    -3.1360742    2.2568567   -2.2649988 
H     0.7386032   -1.0134306    4.9176379 
H     2.4791792   -1.3791365    4.8721970 
H     1.9350310    0.3056900    4.7256279 
H     1.5393021   -2.5443641    1.4341695 
H     0.5365307   -2.8210178    2.8869136 
H     2.3045779   -3.0042383    2.9836585 
H     0.8974661    3.7997839    1.1654293 
H     0.7253921    2.3608140    0.1129644 
H    -0.6594479    2.9362210    1.0766563 
H     0.7261265    1.9367099    4.4781355 
H    -0.6696700    2.6590005    3.6278558 
H     0.8748884    3.5354338    3.7115829 
