80
Energy =
C     1.0466318   -0.6069135   -2.5383804 
C     2.0286930    0.2064742   -1.8997483 
C     2.7317294   -0.2711450   -0.7659711 
H     2.1159512    1.2623721   -2.1845342 
Pd    0.5012329   -0.2707110   -0.3929391 
P     0.4005322    0.2679979    1.8832767 
P    -1.7593384   -0.8392421   -0.5334259 
H     1.1988415   -1.6959256   -2.4967875 
H     2.7917585   -1.3641154   -0.6456847 
C    -1.6396161    0.6685872   -5.6594986 
C    -1.0647950    1.6215023   -4.8009460 
C    -0.1783383    1.2229227   -3.7954451 
C     0.1578777   -0.1401257   -3.6228320 
C    -0.4110231   -1.0838707   -4.5092951 
C    -1.3031768   -0.6852644   -5.5136565 
H    -2.3362464    0.9827114   -6.4432698 
H    -1.3132973    2.6818757   -4.9149342 
H     0.2432450    1.9787879   -3.1244480 
H    -0.1366090   -2.1412759   -4.4163638 
H    -1.7291979   -1.4334808   -6.1900607 
C     5.4780998    1.8797323    1.7516130 
C     5.2247560    0.5146889    1.9616370 
C     4.3507015   -0.1741491    1.1128977 
C     3.7021026    0.4865602    0.0423058 
C     3.9862513    1.8550244   -0.1710086 
C     4.8627862    2.5421297    0.6763534 
H     6.1617174    2.4215817    2.4128954 
H     5.7144472   -0.0145418    2.7856123 
H     4.1537665   -1.2391878    1.2819701 
H     3.5152266    2.3935297   -0.9990629 
H     5.0704534    3.6019130    0.4957811 
C    -2.4635850   -1.2750174    1.1275219 
C    -1.3193775    0.7889674    2.3626534 
C    -2.5097325   -0.1898359    2.2246545 
C    -1.9148131   -2.4300237   -1.5178975 
C    -2.8630241    0.4349280   -1.3589420 
C     1.0362704   -1.0294950    3.0924801 
C     1.4075534    1.8100961    2.2457086 
C    -3.3408725   -2.9379454   -1.7872013 
C    -1.0244573   -3.5221501   -0.8933091 
C    -4.3612095    0.3023510   -1.0265793 
C    -2.3630003    1.8647156   -1.0759736 
C     0.2774721   -1.0642097    4.4313404 
C     1.0999162   -2.4220162    2.4391422 
C     1.0297582    2.9358646    1.2658650 
C     1.3932176    2.2802768    3.7098727 
H    -1.8207244   -2.1103228    1.4598670 
H    -3.4762744   -1.6937556    0.9922594 
H    -1.2983096    1.1848183    3.3921645 
H    -1.4785609    1.6586649    1.7007861 
H    -3.4155596    0.4260762    2.0851324 
H    -2.6552535   -0.7161925    3.1837885 
H    -1.4701397   -2.1310892   -2.4846424 
H    -2.6979052    0.2232390   -2.4342044 
H     2.0756497   -0.6928797    3.2754431 
H     2.4327520    1.4790166    2.0010193 
H    -3.2847592   -3.8862064   -2.3514305 
H    -3.8954573   -3.1440479   -0.8548213 
H    -3.9239219   -2.2292653   -2.3966927 
H    -0.0100512   -3.1453296   -0.6676651 
H    -0.9280676   -4.3696294   -1.5944576 
H    -1.4589910   -3.9180360    0.0416214 
H    -4.9361365    1.0162145   -1.6428379 
H    -4.7618827   -0.7039031   -1.2200918 
H    -4.5564037    0.5510377    0.0311391 
H    -2.5952896    2.1708967   -0.0406591 
H    -1.2741730    1.9545877   -1.2263717 
H    -2.8663657    2.5767086   -1.7528277 
H    -0.7520134   -1.4385325    4.2958984 
H     0.7889373   -1.7511531    5.1286574 
H     0.2227918   -0.0760397    4.9156214 
H     1.6765466   -2.4039081    1.4984327 
H     0.0913308   -2.8092564    2.2099877 
H     1.5821147   -3.1394887    3.1262629 
H     1.7685462    3.7523899    1.3392786 
H     1.0230217    2.5745195    0.2214815 
H     0.0356795    3.3623998    1.4896522 
H     1.7698861    1.5072403    4.3998438 
H     0.3854815    2.5870211    4.0409475 
H     2.0542225    3.1592564    3.8120312 
