80
Energy =
C     2.1155526    1.4394780   -0.5638185 
C     1.7158293    0.6684045   -1.6818076 
C     0.5148084    0.9112367   -2.3932350 
H     2.3123207   -0.2126320   -1.9484265 
Pd    0.0902441    0.4012562   -0.1935618 
P    -2.0599325   -0.5162462   -0.4418693 
P     0.2103553    0.1731286    2.1439623 
H     1.6979102    2.4536425   -0.4763448 
H     0.0890426    1.9237488   -2.3303221 
C     5.8469507    0.8755631    1.5201955 
C     5.1969441    2.1185541    1.5372898 
C     3.9851895    2.2881188    0.8562372 
C     3.3910307    1.2193378    0.1468678 
C     4.0723176   -0.0213254    0.1209897 
C     5.2821647   -0.1912046    0.8010290 
H     6.7929456    0.7403175    2.0541025 
H     5.6385823    2.9623251    2.0773853 
H     3.4946971    3.2671237    0.8629394 
H     3.6442040   -0.8709434   -0.4197762 
H     5.7886471   -1.1615355    0.7714192 
C    -0.6693458   -1.2985399   -5.9005755 
C    -1.1365450    0.0064200   -5.6844475 
C    -0.7423114    0.7147871   -4.5425649 
C     0.1219587    0.1342718   -3.5861590 
C     0.6027386   -1.1741485   -3.8324399 
C     0.2101112   -1.8813821   -4.9728173 
H    -0.9782449   -1.8548533   -6.7912854 
H    -1.8050281    0.4783566   -6.4118394 
H    -1.0991679    1.7390296   -4.3927842 
H     1.2752983   -1.6552867   -3.1155917 
H     0.5904646   -2.8945528   -5.1395111 
C    -1.0756700   -0.9186418    2.9376315 
C    -2.7592867   -1.4163462    1.0341307 
C    -2.5237486   -0.8184085    2.4305029 
C     0.1269989    1.7411277    3.1787678 
C     1.8078300   -0.6706579    2.6466768 
C    -3.4430058    0.6709282   -0.9045306 
C    -2.0825468   -1.8508006   -1.7589244 
C    -1.1767881    2.5212535    2.9410555 
C     1.3477560    2.6421404    2.9480959 
C     1.9960846   -0.8391934    4.1639572 
C     1.9526385   -2.0058026    1.8928199 
C    -3.5981295    1.8008144    0.1271567 
C    -3.2558183    1.2459951   -2.3151383 
C    -1.0201463   -2.9182968   -1.4373074 
C    -3.4656256   -2.4712088   -2.0203871 
H    -1.0448292   -0.6989000    4.0200531 
H    -0.7180172   -1.9574122    2.8163273 
H    -3.8444816   -1.5162839    0.8512369 
H    -2.3385905   -2.4377638    1.0003236 
H    -3.1611700   -1.3772789    3.1399270 
H    -2.8779623    0.2244460    2.4707143 
H     0.1379819    1.3768007    4.2242772 
H     2.5850661    0.0151698    2.2649638 
H    -4.3562389    0.0448597   -0.8870617 
H    -1.7548471   -1.3144104   -2.6672753 
H    -1.1855539    3.4255884    3.5746218 
H    -1.2544220    2.8444957    1.8885964 
H    -2.0754417    1.9351419    3.1915487 
H     2.3042683    2.1254255    3.1265770 
H     1.2993726    3.5092736    3.6303049 
H     1.3532634    3.0289915    1.9151100 
H     2.9840970   -1.2933302    4.3582013 
H     1.9667840    0.1234649    4.7014816 
H     1.2345500   -1.5073674    4.6029506 
H     1.2559196   -2.7724736    2.2766335 
H     1.7628356   -1.8826811    0.8113457 
H     2.9777587   -2.3946521    2.0195109 
H    -2.6792399    2.4102099    0.1816869 
H    -4.4273248    2.4644939   -0.1746128 
H    -3.8262220    1.4263766    1.1378603 
H    -3.1594422    0.4667689   -3.0879366 
H    -2.3577778    1.8852565   -2.3567490 
H    -4.1260223    1.8743910   -2.5746008 
H    -0.8794941   -3.5768328   -2.3116145 
H    -0.0456962   -2.4590146   -1.1932133 
H    -1.3212832   -3.5545072   -0.5857767 
H    -4.2136283   -1.7197671   -2.3237425 
H    -3.8505181   -3.0097787   -1.1366799 
H    -3.3839683   -3.2040533   -2.8427371 
