80
Energy =
C     1.1212482   -0.9714635   -2.3255829 
C     1.8728858    0.0666894   -1.7367911 
C     2.5532947   -0.1210072   -0.4977512 
H     1.8498300    1.0659617   -2.1891424 
Pd    0.3468694   -0.3893954   -0.2010567 
P     0.4752131   -0.1639005    2.1327257 
P    -2.0017516   -0.5598954   -0.2836828 
H     1.3369304   -1.9953781   -1.9832003 
H     2.8804927   -1.1446500   -0.2626182 
C    -0.8173623   -0.8416063   -6.1618694 
C    -0.5371093    0.3592772   -5.4864711 
C     0.0918955    0.3373561   -4.2383372 
C     0.4484069   -0.8901202   -3.6315951 
C     0.1689564   -2.0892414   -4.3278674 
C    -0.4556029   -2.0657156   -5.5807063 
H    -1.3105644   -0.8198596   -7.1388792 
H    -0.8119426    1.3178439   -5.9385540 
H     0.2914462    1.2823850   -3.7240534 
H     0.4513369   -3.0486448   -3.8799754 
H    -0.6598081   -3.0049549   -6.1046752 
C     4.7644090    2.9546336    1.5637838 
C     3.7422933    3.3107239    0.6674981 
C     3.0278519    2.3229639   -0.0180568 
C     3.3158153    0.9515518    0.1756774 
C     4.3692158    0.6118227    1.0564895 
C     5.0813297    1.6005197    1.7479781 
H     5.3184674    3.7292492    2.1034225 
H     3.4990836    4.3660400    0.5057277 
H     2.2230380    2.6222238   -0.6973040 
H     4.6432302   -0.4417613    1.1856924 
H     5.8928296    1.3127779    2.4242990 
C    -2.7984786   -1.0874002    1.3176685 
C    -0.9846763   -0.7454375    3.1203110 
C    -2.3722838   -0.3428157    2.5942566 
C    -2.8402081   -1.7820476   -1.4456156 
C    -2.7232942    1.1600267   -0.5375766 
C     1.8705124   -1.2485288    2.7670901 
C     0.8253159    1.6064722    2.6678128 
C    -2.0665421   -3.1133868   -1.3910919 
C    -3.0192843   -1.2833809   -2.8884189 
C    -2.0416615    1.9005558   -1.7025729 
C    -4.2595385    1.2156114   -0.6108092 
C     2.1269439   -1.2073318    4.2829391 
C     1.6727827   -2.6902171    2.2579854 
C     0.1109557    2.6042815    1.7355304 
C     0.5134297    1.9309268    4.1400629 
H    -2.5982939   -2.1688039    1.4294502 
H    -3.8885274   -0.9858065    1.1712388 
H    -0.9118512   -1.8475767    3.1577063 
H    -0.8489884   -0.3861370    4.1549815 
H    -2.4335711    0.7521161    2.4503578 
H    -3.1109995   -0.5785966    3.3816904 
H    -3.8431115   -1.9363397   -1.0014184 
H    -2.4066491    1.6637317    0.3961072 
H     2.7496621   -0.8164363    2.2589911 
H     1.9154904    1.6921514    2.4946189 
H    -2.6021794   -3.8830337   -1.9741778 
H    -1.0596769   -2.9945973   -1.8254828 
H    -1.9515142   -3.4935786   -0.3607848 
H    -3.7086855   -0.4269852   -2.9491769 
H    -3.4467552   -2.0969013   -3.5005264 
H    -2.0627625   -0.9928032   -3.3454555 
H    -2.3777947    2.9522761   -1.7233216 
H    -0.9434397    1.8927603   -1.5845549 
H    -2.2807897    1.4483612   -2.6784068 
H    -4.6482741    0.7204471   -1.5158845 
H    -4.7408114    0.7535777    0.2674844 
H    -4.5847405    2.2706914   -0.6450943 
H     1.2421325   -1.5182765    4.8655168 
H     2.9446426   -1.9082566    4.5295168 
H     2.4399563   -0.2071043    4.6218306 
H     0.8376709   -3.1961154    2.7747326 
H     2.5841627   -3.2825040    2.4522868 
H     1.4676520   -2.7184401    1.1721347 
H     0.5019663    3.6221092    1.9076254 
H     0.2612336    2.3517298    0.6724441 
H    -0.9754833    2.6260637    1.9342859 
H     0.9912139    1.2386695    4.8499679 
H    -0.5746786    1.9238028    4.3293148 
H     0.8775925    2.9480520    4.3693060 
