80
Energy =
C     1.0782063   -0.6053394   -2.4525730 
C     1.9703525    0.2896119   -1.8061412 
C     2.6692753   -0.1064960   -0.6358196 
H     2.0075829    1.3376833   -2.1264168 
Pd    0.4267925   -0.2143300   -0.3152284 
P     0.4116629    0.1156669    2.0062296 
P    -1.8700064   -0.5941657   -0.5956639 
H     1.2598874   -1.6793886   -2.2989331 
H     2.8348021   -1.1858716   -0.5019086 
C    -1.4456190    0.2360225   -5.8369282 
C    -0.7781579    1.2905257   -5.1912665 
C     0.0617400    1.0352245   -4.1019585 
C     0.2535102   -0.2847400   -3.6312287 
C    -0.4043915   -1.3383741   -4.3084283 
C    -1.2488397   -1.0816665   -5.3954203 
H    -2.1049612    0.4401686   -6.6865043 
H    -0.9153357    2.3195224   -5.5393348 
H     0.5579137    1.8749689   -3.6054411 
H    -0.2470746   -2.3700335   -3.9727750 
H    -1.7493224   -1.9120331   -5.9041546 
C     5.2464303    2.3342597    1.7997416 
C     4.4650255    2.9360730    0.7989302 
C     3.6360359    2.1574976   -0.0157955 
C     3.5683298    0.7547734    0.1527970 
C     4.3810109    0.1607540    1.1468090 
C     5.2069570    0.9410275    1.9650875 
H     5.8909847    2.9472025    2.4377364 
H     4.5016713    4.0208113    0.6544896 
H     3.0247818    2.6511530   -0.7777359 
H     4.3600430   -0.9278457    1.2737586 
H     5.8268949    0.4606448    2.7291011 
C    -2.9256984   -0.3240392    0.9088164 
C    -1.2634442    0.1873013    2.8067856 
C    -2.3225073   -0.7832820    2.2501177 
C    -2.2372860   -2.3446217   -1.2016839 
C    -2.5999567    0.5713492   -1.8705573 
C     1.3877134   -1.2177355    2.9203223 
C     1.1961383    1.7567869    2.4635567 
C    -3.6411155   -2.8775809   -0.8622324 
C    -1.1575176   -3.3381113   -0.7324004 
C    -4.1206696    0.4654403   -2.0751378 
C    -2.1547673    2.0118771   -1.5567277 
C     0.9830280   -1.4413137    4.3887960 
C     1.3705559   -2.5513900    2.1496120 
C     0.5956113    2.8688115    1.5833002 
C     1.1608460    2.1179259    3.9582235 
H    -3.8939518   -0.8216052    0.7331259 
H    -3.1356240    0.7606376    0.9514701 
H    -1.1252349    0.0252920    3.8887556 
H    -1.6202875    1.2272448    2.6902409 
H    -3.1437790   -0.8464379    2.9865261 
H    -1.9122755   -1.8074864    2.1667179 
H    -2.1513436   -2.2270878   -2.2991669 
H    -2.1001025    0.2571509   -2.8040419 
H     2.4153953   -0.8075658    2.8875385 
H     2.2498167    1.6175713    2.1632711 
H    -3.8011261   -3.8362998   -1.3866987 
H    -3.7421039   -3.0767386    0.2193599 
H    -4.4499909   -2.1941039   -1.1648990 
H    -0.1404631   -2.9951917   -0.9871484 
H    -1.3195598   -4.3215570   -1.2081746 
H    -1.1991862   -3.4864894    0.3606689 
H    -4.4325425    1.1972318   -2.8415151 
H    -4.4229542   -0.5314505   -2.4341674 
H    -4.6835486    0.6935829   -1.1530697 
H    -2.6169366    2.3945981   -0.6284904 
H    -1.0579735    2.0774763   -1.4449882 
H    -2.4566683    2.6816933   -2.3806384 
H    -0.0103534   -1.9183755    4.4612252 
H     1.7083654   -2.1250807    4.8643691 
H     0.9644609   -0.5125337    4.9805323 
H     0.3631411   -3.0025350    2.1554086 
H     2.0596695   -3.2703432    2.6271645 
H     1.6774238   -2.4255752    1.0975527 
H     1.1503172    3.8096204    1.7438693 
H     0.6595731    2.6107752    0.5113858 
H    -0.4655143    3.0608521    1.8259488 
H     1.7118775    1.3896126    4.5746464 
H     0.1297649    2.1979859    4.3448703 
H     1.6446020    3.1004074    4.1025356 
