80
Energy =
C     0.9092762   -0.5792870   -2.4918060 
C     1.8635320    0.2268496   -1.8117754 
C     2.5737198   -0.2586897   -0.6886539 
H     1.9495275    1.2864766   -2.0816010 
Pd    0.3307761   -0.2922159   -0.3084921 
P     0.3876207    0.2747818    1.9707651 
P    -1.9554299   -0.8039113   -0.4275257 
H     1.0647941   -1.6672613   -2.4617586 
H     2.6459253   -1.3518544   -0.5804902 
C    -1.4829473    0.8048759   -5.7999732 
C    -0.9883842    1.7259379   -4.8613750 
C    -0.2065373    1.2879860   -3.7877581 
C     0.1022882   -0.0835054   -3.6250038 
C    -0.3853646   -0.9943600   -4.5898627 
C    -1.1718838   -0.5563350   -5.6628822 
H    -2.0989261    1.1484036   -6.6371351 
H    -1.2186792    2.7914548   -4.9649581 
H     0.1477638    2.0190901   -3.0534654 
H    -0.1349698   -2.0566864   -4.5015141 
H    -1.5367662   -1.2800093   -6.3990649 
C     5.4231829    1.9002567    1.7081267 
C     4.7385739    2.5670697    0.6781226 
C     3.8217649    1.8784177   -0.1234809 
C     3.5657833    0.5034436    0.0899013 
C     4.2856075   -0.1606700    1.1106852 
C     5.1992569    0.5301525    1.9156266 
H     6.1380997    2.4429908    2.3346542 
H     4.9227371    3.6312139    0.4980553 
H     3.2957361    2.4215144   -0.9144089 
H     4.1197631   -1.2319340    1.2715864 
H     5.7442650   -0.0028231    2.7015395 
C    -2.9871598   -0.5057630    1.1019184 
C    -1.2803814    0.5255277    2.7408040 
C    -2.2941811   -0.6023556    2.4721619 
C    -2.3263807   -2.6081762   -0.7988097 
C    -2.8484503    0.1973158   -1.7343549 
C     1.3154930   -0.9397749    3.0804585 
C     1.2410763    1.9288095    2.2038203 
C    -1.6940418   -3.5251515    0.2627653 
C    -1.8961299   -3.0191672   -2.2130551 
C    -4.3274057   -0.1795028   -1.9247871 
C    -2.6603404    1.6986724   -1.4463184 
C     0.8316273   -0.9911637    4.5412866 
C     1.3448666   -2.3520402    2.4670903 
C     0.7012354    2.9426345    1.1780559 
C     1.2179047    2.4860130    3.6372829 
H    -3.8298678   -1.2189133    1.0557252 
H    -3.4242441    0.5033112    0.9938883 
H    -1.1353263    0.6593791    3.8258325 
H    -1.6673072    1.4863288    2.3534899 
H    -3.0822387   -0.5479681    3.2449005 
H    -1.8147273   -1.5895016    2.6012427 
H    -3.4288003   -2.6811742   -0.7228724 
H    -2.2932262   -0.0401623   -2.6599918 
H     2.3436652   -0.5306553    3.0573618 
H     2.2886465    1.7016255    1.9383632 
H    -1.9495110   -4.5773951    0.0463174 
H    -0.5934143   -3.4328477    0.2532538 
H    -2.0523243   -3.3007626    1.2812781 
H    -2.3324100   -2.3768284   -2.9949114 
H    -2.2178524   -4.0573568   -2.4084332 
H    -0.7982704   -2.9858327   -2.3124719 
H    -4.7592709    0.4375063   -2.7327687 
H    -4.4577140   -1.2362448   -2.2125845 
H    -4.9212486    0.0083338   -1.0128557 
H    -3.2525271    2.0261323   -0.5724901 
H    -1.6009187    1.9436660   -1.2550394 
H    -2.9960044    2.2887328   -2.3162080 
H    -0.1772038   -1.4337978    4.6156601 
H     1.5143115   -1.6323251    5.1267420 
H     0.8106060   -0.0011890    5.0240171 
H     0.3444408   -2.8172926    2.4848294 
H     2.0245133   -3.0001892    3.0483218 
H     1.6928258   -2.3387412    1.4201938 
H     1.3014982    3.8683883    1.2176890 
H     0.7552584    2.5413536    0.1498925 
H    -0.3496387    3.2165984    1.3822238 
H     1.7049997    1.8066274    4.3554890 
H     0.1917612    2.6936307    3.9878689 
H     1.7736821    3.4403130    3.6616500 
