80
Energy =
C     1.0397675   -0.7035554   -2.4026589 
C     1.8553429    0.2745884   -1.7908461 
C     2.5347427    0.0011070   -0.5692973 
H     1.8751448    1.2913771   -2.2013957 
Pd    0.3166368   -0.1575292   -0.2547870 
P     0.3939650    0.0567956    2.0742285 
P    -1.9958324   -0.5307826   -0.4157747 
H     1.1972417   -1.7459804   -2.0855638 
H     2.7825467   -1.0520829   -0.3738292 
C    -1.0081076   -0.4043258   -6.1761729 
C    -0.4131965    0.7403361   -5.6186504 
C     0.2558031    0.6641922   -4.3937046 
C     0.3465019   -0.5615243   -3.6931461 
C    -0.2320592   -1.7107113   -4.2831249 
C    -0.9080866   -1.6331019   -5.5068385 
H    -1.5324464   -0.3398334   -7.1349040 
H    -0.4712807    1.6984080   -6.1453150 
H     0.7091704    1.5703220   -3.9790778 
H    -0.1352959   -2.6784118   -3.7770312 
H    -1.3472775   -2.5354166   -5.9446000 
C     4.9640391    2.7575636    1.6768825 
C     4.0615723    3.2494547    0.7187560 
C     3.2774476    2.3678097   -0.0329332 
C     3.3775593    0.9699589    0.1568347 
C     4.3078691    0.4890268    1.1077489 
C     5.0896959    1.3721640    1.8628461 
H     5.5724523    3.4504270    2.2667877 
H     3.9659687    4.3287162    0.5606783 
H     2.5642135    2.7738198   -0.7576308 
H     4.4174123   -0.5924524    1.2496864 
H     5.8033974    0.9785042    2.5939289 
C    -2.9435005   -0.8983292    1.1576131 
C    -1.2526312   -0.0560554    2.9169629 
C    -2.1277183   -1.2250452    2.4180654 
C    -2.3765370   -1.9974095   -1.5141135 
C    -2.9576184    0.9181689   -1.1175627 
C     1.4512670   -1.3105933    2.8392078 
C     1.1186589    1.6884743    2.6454222 
C    -3.8685218   -2.2166251   -1.8121989 
C    -1.7004020   -3.2558858   -0.9382654 
C    -2.7365392    2.1742929   -0.2562320 
C    -2.5801370    1.1856798   -2.5813497 
C     1.1191195   -1.6493789    4.3046772 
C     1.4431029   -2.5921591    1.9814870 
C     0.4237964    2.8429689    1.9010377 
C     1.1402471    1.9141997    4.1668429 
H    -3.6221563   -1.7379842    0.9269580 
H    -3.5905974   -0.0255849    1.3574053 
H    -1.0710939   -0.1444698    4.0013228 
H    -1.7691405    0.9088420    2.7622061 
H    -2.8412196   -1.4940892    3.2176758 
H    -1.5097935   -2.1258622    2.2488453 
H    -1.8671247   -1.7332843   -2.4585662 
H    -4.0219711    0.6180082   -1.0537456 
H     2.4641332   -0.8661917    2.7912979 
H     2.1616773    1.6323239    2.2868914 
H    -3.9803391   -3.0712416   -2.5032290 
H    -4.4451095   -2.4570068   -0.9010950 
H    -4.3323721   -1.3396077   -2.2934160 
H    -0.6251250   -3.0880644   -0.7467442 
H    -1.7966384   -4.0952548   -1.6494230 
H    -2.1697093   -3.5729289    0.0108738 
H    -3.3634326    3.0007783   -0.6342991 
H    -2.9999160    2.0184540    0.8043541 
H    -1.6816929    2.4956701   -0.3028046 
H    -1.5245117    1.4952404   -2.6542432 
H    -2.7169962    0.3070143   -3.2334020 
H    -3.2022782    2.0042561   -2.9838965 
H     0.1430646   -2.1591300    4.3851499 
H     1.8830002   -2.3436553    4.6975530 
H     1.1024391   -0.7664044    4.9620908 
H     0.4572486   -3.0883786    2.0057926 
H     2.1850619   -3.3091425    2.3754341 
H     1.6885232   -2.3875096    0.9263230 
H     0.9474967    3.7902002    2.1176491 
H     0.4443962    2.6841759    0.8089738 
H    -0.6288445    2.9618506    2.2148184 
H     1.7607266    1.1690860    4.6898179 
H     0.1272867    1.9017883    4.6058002 
H     1.5775137    2.9069359    4.3749412 
