80
Energy =
C     1.1593144   -0.9442394   -2.3241334 
C     1.9657418    0.0718518   -1.7651686 
C     2.6307536   -0.1270566   -0.5173997 
H     1.9790609    1.0658081   -2.2295802 
Pd    0.4243676   -0.2951495   -0.2266202 
P     0.4843456   -0.0760889    2.0996280 
P    -1.9154831   -0.3867892   -0.4107511 
H     1.3393854   -1.9684074   -1.9620044 
H     2.9194232   -1.1598175   -0.2701241 
C    -1.0006366   -0.8562093   -6.0438606 
C    -0.5427234    0.3478717   -5.4816604 
C     0.1671736    0.3411141   -4.2770359 
C     0.4314419   -0.8729342   -3.6007903 
C    -0.0215252   -2.0780765   -4.1888954 
C    -0.7305842   -2.0708184   -5.3958244 
H    -1.5555274   -0.8461171   -6.9874314 
H    -0.7384718    1.2979118   -5.9895923 
H     0.5132436    1.2905663   -3.8575760 
H     0.1899181   -3.0296331   -3.6887929 
H    -1.0682486   -3.0153696   -5.8344922 
C     4.8405252    2.8910714    1.6278793 
C     5.1141220    1.5292830    1.8244806 
C     4.4081621    0.5586636    1.1013345 
C     3.4031671    0.9250595    0.1761278 
C     3.1559382    2.3034459   -0.0257455 
C     3.8660664    3.2727849    0.6898428 
H     5.3905042    3.6514313    2.1914235 
H     5.8876092    1.2210312    2.5354749 
H     4.6480106   -0.5016687    1.2429153 
H     2.3844735    2.6222675   -0.7345606 
H     3.6552837    4.3338882    0.5204965 
C    -2.8438848   -0.9109671    1.1243757 
C    -1.0932186   -0.5232186    2.9792177 
C    -1.9935446   -1.5378107    2.2432400 
C    -2.4912482   -1.5689922   -1.7425101 
C    -2.5429169    1.3591370   -0.7189278 
C     1.7754186   -1.2722907    2.7567488 
C     0.9211535    1.6523322    2.6863277 
C    -3.9970390   -1.5893199   -2.0534369 
C    -1.9679967   -2.9746563   -1.3834140 
C    -1.8299459    1.9934632   -1.9239783 
C    -4.0693401    1.5507113   -0.7860734 
C     2.0981815   -1.1870729    4.2570965 
C     1.4176458   -2.7098105    2.3301183 
C     0.2117500    2.6870706    1.7917742 
C     0.6378878    1.9419744    4.1729395 
H    -3.6271723   -1.6212441    0.8068961 
H    -3.3707726   -0.0223416    1.5169574 
H    -0.8121002   -0.9076651    3.9758425 
H    -1.6544842    0.4129316    3.1540999 
H    -2.6839626   -1.9802671    2.9840979 
H    -1.3947375   -2.3745270    1.8402680 
H    -1.9486182   -1.2199801   -2.6400197 
H    -2.1747948    1.8605160    0.1978842 
H     2.6743314   -0.9566109    2.1987158 
H     2.0100284    1.7126629    2.4966713 
H    -4.2040072   -2.3979774   -2.7770393 
H    -4.6100477   -1.7876047   -1.1561477 
H    -4.3399935   -0.6467896   -2.5048053 
H    -0.8879156   -2.9635381   -1.1527219 
H    -2.1306946   -3.6605547   -2.2328847 
H    -2.5002159   -3.3946838   -0.5106420 
H    -2.1208625    3.0544997   -2.0189294 
H    -0.7328758    1.9454945   -1.8078715 
H    -2.0966494    1.4839237   -2.8660149 
H    -4.4750340    1.2302428   -1.7584009 
H    -4.6091585    1.0057697    0.0065357 
H    -4.3016909    2.6241723   -0.6694713 
H     1.2066664   -1.3447034    4.8900183 
H     2.8240950   -1.9792678    4.5143398 
H     2.5562015   -0.2219266    4.5250637 
H     1.1588987   -2.7680074    1.2565190 
H     0.5666689   -3.1049776    2.9125522 
H     2.2784336   -3.3769565    2.5122928 
H     0.5805320    3.7006192    2.0269787 
H     0.3912432    2.4935275    0.7206529 
H    -0.8798692    2.6811885    1.9682158 
H     1.1198339    1.2276029    4.8558528 
H    -0.4458627    1.9407114    4.3832641 
H     1.0168529    2.9495359    4.4201682 
