80
Energy =
C     0.9354903   -0.6003468   -2.4800937 
C     1.9482125    0.1406235   -1.8022184 
C     2.6633175   -0.4208861   -0.7201780 
H     2.0864103    1.2018442   -2.0439428 
Pd    0.3852441   -0.3482170   -0.3207505 
P     0.2385606    0.1105778    1.9714317 
P    -1.8815894   -0.8729449   -0.5925704 
H     1.0483958   -1.6946111   -2.4969862 
H     2.6580033   -1.5191475   -0.6434534 
C    -1.6020387    0.9493383   -5.6037845 
C    -0.9900522    1.8332207   -4.6986755 
C    -0.1512874    1.3450554   -3.6915536 
C     0.0977646   -0.0414532   -3.5620235 
C    -0.5015254   -0.9144330   -4.4999553 
C    -1.3465225   -0.4264843   -5.5053911 
H    -2.2623931    1.3333613   -6.3878014 
H    -1.1718821    2.9101954   -4.7771840 
H     0.2996520    2.0501899   -2.9857140 
H    -0.2871554   -1.9882951   -4.4473107 
H    -1.7983201   -1.1220962   -6.2201142 
C     5.8383238    1.3911877    1.5512456 
C     5.0537281    2.1890400    0.7011068 
C     4.0212252    1.6190217   -0.0498365 
C     3.7429053    0.2345024    0.0358100 
C     4.5576356   -0.5584700    0.8789285 
C     5.5909392    0.0124624    1.6310329 
H     6.6458727    1.8415113    2.1372498 
H     5.2526391    3.2627005    0.6206372 
H     3.4290901    2.2601046   -0.7107417 
H     4.3746346   -1.6368103    0.9388199 
H     6.2093126   -0.6210626    2.2752597 
C    -2.8336363   -1.3034829    0.9445283 
C    -1.1942880   -0.6794974    2.8461371 
C    -2.5710180   -0.4410462    2.1928207 
C    -2.0203544   -2.4284225   -1.6343071 
C    -2.8321662    0.4931214   -1.4707772 
C     1.7419371   -0.4176590    2.9508032 
C    -0.0434968    1.9602209    2.1869958 
C    -3.4462924   -2.9186382   -1.9372302 
C    -1.1521178   -3.5414639   -1.0145653 
C    -4.3639908    0.4371802   -1.3295451 
C    -2.3041833    1.8772037   -1.0462397 
C     1.7757352    0.0002304    4.4305125 
C     1.9406344   -1.9367360    2.7811965 
C    -0.6266785    2.4200382    3.5350213 
C     1.2317757    2.7266046    1.7954422 
H    -2.5883473   -2.3573515    1.1700977 
H    -3.9065892   -1.2804743    0.6872178 
H    -0.9862595   -1.7634236    2.8998163 
H    -1.1978078   -0.3052501    3.8846529 
H    -2.7149126    0.6309854    1.9616250 
H    -3.3462955   -0.6911916    2.9394287 
H    -1.5546062   -2.1107324   -2.5839077 
H    -2.5519042    0.3271149   -2.5292194 
H     2.5674017    0.0919307    2.4203463 
H    -0.8005291    2.1616199    1.4060393 
H    -3.3900484   -3.8540626   -2.5224738 
H    -4.0153800   -3.1405109   -1.0175057 
H    -4.0150636   -2.1910224   -2.5374958 
H    -0.1316709   -3.1852426   -0.7836159 
H    -1.0712606   -4.3873373   -1.7196516 
H    -1.5942242   -3.9342495   -0.0814090 
H    -4.8149657    1.1977757   -1.9912317 
H    -4.7920934   -0.5388045   -1.6045050 
H    -4.6790829    0.6745248   -0.2979230 
H    -2.6224019    2.1246331   -0.0174841 
H    -1.2026489    1.9256357   -1.0894343 
H    -2.7105142    2.6542376   -1.7168862 
H     0.9186343   -0.4031935    4.9978208 
H     2.6953906   -0.3964545    4.8967100 
H     1.7918641    1.0946945    4.5525839 
H     1.1899405   -2.5121358    3.3515358 
H     2.9362064   -2.2254284    3.1605334 
H     1.8753595   -2.2421380    1.7215966 
H    -0.8012039    3.5101517    3.4935407 
H    -1.5954201    1.9436646    3.7601856 
H     0.0557438    2.2262311    4.3775332 
H     1.5876752    2.4181523    0.7986507 
H     2.0535475    2.5595230    2.5131798 
H     1.0250154    3.8107960    1.7676132 
