80
Energy =
C     0.9299441   -0.6347828   -2.4802919 
C     1.9557190    0.0919460   -1.8057879 
C     2.6584802   -0.4811085   -0.7215577 
H     2.1137069    1.1497841   -2.0505042 
Pd    0.3862769   -0.3610246   -0.3224698 
P     0.2460424    0.1410578    1.9611541 
P    -1.8868017   -0.8674089   -0.5810691 
H     1.0264191   -1.7306528   -2.4946489 
H     2.6338925   -1.5792729   -0.6459198 
C    -1.6029156    0.9443310   -5.5925834 
C    -0.9694047    1.8215335   -4.6958328 
C    -0.1312714    1.3235294   -3.6930303 
C     0.0958414   -0.0663810   -3.5598126 
C    -0.5245551   -0.9330336   -4.4899038 
C    -1.3692563   -0.4351558   -5.4906720 
H    -2.2630069    1.3361091   -6.3729736 
H    -1.1339987    2.9010498   -4.7773605 
H     0.3364658    2.0237625   -2.9932012 
H    -0.3274700   -2.0100630   -4.4345709 
H    -1.8380810   -1.1259912   -6.1990390 
C     5.8457748    1.2684376    1.5800143 
C     5.0608804    2.0884816    0.7513456 
C     4.0263371    1.5388150   -0.0117963 
C     3.7454333    0.1533275    0.0413048 
C     4.5602655   -0.6618419    0.8627898 
C     5.5966657   -0.1115082    1.6258849 
H     6.6547241    1.7029343    2.1759569 
H     5.2610876    3.1635849    0.6976447 
H     3.4328460    2.1966239   -0.6546018 
H     4.3740078   -1.7406619    0.8979806 
H     6.2153597   -0.7617348    2.2529217 
C    -2.8348994   -1.2762172    0.9648946 
C    -1.1807567   -0.6413020    2.8526646 
C    -2.5617200   -0.4066024    2.2061218 
C    -2.0358577   -2.4353265   -1.6034156 
C    -2.8331614    0.4910794   -1.4754437 
C     1.7569188   -0.3536372    2.9465450 
C    -0.0562178    1.9913162    2.1354240 
C    -3.4647325   -2.9238219   -1.8951817 
C    -1.1700448   -3.5445139   -0.9733756 
C    -4.3650335    0.4427819   -1.3320012 
C    -2.2999399    1.8787331   -1.0701892 
C     1.8036652    0.1118149    4.4115702 
C     1.9540024   -1.8773643    2.8239545 
C    -0.6046564    2.4822417    3.4871076 
C     1.1920127    2.7670147    1.6804112 
H    -2.5957868   -2.3299109    1.1977957 
H    -3.9089658   -1.2480281    0.7126322 
H    -0.9730171   -1.7249025    2.9130736 
H    -1.1778919   -0.2592309    3.8884232 
H    -2.7074992    0.6640362    1.9700035 
H    -3.3319146   -0.6522906    2.9594547 
H    -1.5720291   -2.1309554   -2.5583645 
H    -2.5542282    0.3098713   -2.5317902 
H     2.5779908    0.1385015    2.3932935 
H    -0.8409074    2.1578854    1.3740001 
H    -3.4141527   -3.8672135   -2.4680178 
H    -4.0315181   -3.1311073   -0.9706654 
H    -4.0327568   -2.2021012   -2.5031833 
H    -0.1470806   -3.1900127   -0.7508154 
H    -1.0956593   -4.3994039   -1.6682048 
H    -1.6101734   -3.9237976   -0.0337024 
H    -4.8138630    1.1968233   -2.0025832 
H    -4.7973615   -0.5348408   -1.5941337 
H    -4.6779201    0.6942140   -0.3030477 
H    -2.6199166    2.1426269   -0.0460460 
H    -1.1982030    1.9218769   -1.1119007 
H    -2.7013078    2.6474997   -1.7531820 
H     0.9452507   -0.2620206    4.9968814 
H     2.7214622   -0.2801913    4.8852982 
H     1.8338372    1.2093874    4.4969101 
H     1.8737012   -2.2172945    1.7759514 
H     1.2119355   -2.4332935    3.4241234 
H     2.9554542   -2.1526945    3.1973975 
H    -0.8199793    3.5631771    3.4114787 
H    -1.5462083    1.9815905    3.7681037 
H     0.1158389    2.3454174    4.3085665 
H     1.5073800    2.4481638    0.6730406 
H     2.0454583    2.6190762    2.3645945 
H     0.9710434    3.8482596    1.6461578 
