80
Energy =
C     0.9132441   -0.5949244   -2.4882542 
C     1.8626714    0.2228397   -1.8152543 
C     2.5768894   -0.2489303   -0.6889322 
H     1.9412014    1.2809221   -2.0932902 
Pd    0.3336483   -0.2937221   -0.3068541 
P     0.3866141    0.2969455    1.9660342 
P    -1.9485902   -0.8240889   -0.4200846 
H     1.0763302   -1.6815265   -2.4507387 
H     2.6557292   -1.3406637   -0.5712420 
C    -1.4967902    0.7493052   -5.7998640 
C    -1.1751775   -0.6086271   -5.6546077 
C    -0.3822383   -1.0336002   -4.5810891 
C     0.1011766   -0.1126958   -3.6236480 
C    -0.2179867    1.2553663   -3.7948673 
C    -1.0060844    1.6803360   -4.8691293 
H    -2.1180542    1.0825931   -6.6372609 
H    -1.5369742   -1.3399124   -6.3847683 
H    -0.1238124   -2.0934375   -4.4861669 
H     0.1326876    1.9939219   -3.0662953 
H    -1.2447096    2.7433715   -4.9790889 
C     5.4082576    1.9499869    1.6927687 
C     4.7233751    2.6022526    0.6536863 
C     3.8128651    1.9002557   -0.1435443 
C     3.5636061    0.5262367    0.0834791 
C     4.2843320   -0.1234161    1.1129064 
C     5.1914893    0.5807845    1.9135445 
H     6.1180579    2.5031673    2.3159695 
H     4.9022869    3.6654588    0.4631148 
H     3.2865009    2.4321548   -0.9418143 
H     4.1239612   -1.1938648    1.2842744 
H     5.7370325    0.0590019    2.7065659 
C    -2.9825538   -0.5211517    1.1071179 
C    -1.2836307    0.5448468    2.7318044 
C    -2.2873431   -0.5954324    2.4775502 
C    -2.3039507   -2.6348670   -0.7746412 
C    -2.8506413    0.1578774   -1.7352289 
C     1.3213585   -0.8992700    3.0896002 
C     1.2294003    1.9588138    2.1812812 
C    -1.6627021   -3.5361721    0.2949344 
C    -1.8712388   -3.0549479   -2.1854832 
C    -4.3259674   -0.2344049   -1.9224482 
C    -2.6765372    1.6632571   -1.4595792 
C     0.8369077   -0.9372398    4.5506458 
C     1.3603247   -2.3180041    2.4919774 
C     0.6822656    2.9583785    1.1454476 
C     1.2038868    2.5306809    3.6089066 
H    -3.8172789   -1.2441078    1.0692629 
H    -3.4310425    0.4817260    0.9889420 
H    -1.1404536    0.6942950    3.8150691 
H    -1.6783714    1.4971070    2.3315836 
H    -3.0750244   -0.5395481    3.2505689 
H    -1.7987727   -1.5766323    2.6173687 
H    -3.4056110   -2.7170470   -0.6972155 
H    -2.2932827   -0.0820217   -2.6589226 
H     2.3468282   -0.4837093    3.0624320 
H     2.2782420    1.7357415    1.9174424 
H    -1.9091229   -4.5926202    0.0887098 
H    -0.5629426   -3.4342930    0.2837501 
H    -2.0221192   -3.3052245    1.3116180 
H    -2.3138248   -2.4237056   -2.9728383 
H    -2.1838910   -4.0976880   -2.3710932 
H    -0.7738052   -3.0127828   -2.2862179 
H    -4.7638070    0.3721159   -2.7351331 
H    -4.4461879   -1.2945864   -2.2018584 
H    -4.9215463   -0.0451566   -1.0119289 
H    -3.2724347    1.9925106   -0.5889666 
H    -1.6195916    1.9197221   -1.2696366 
H    -3.0169284    2.2428392   -2.3346578 
H    -0.1691839   -1.3852985    4.6293537 
H     1.5231669   -1.5674855    5.1437175 
H     0.8092889    0.0579744    5.0221063 
H     1.7075853   -2.3139256    1.4447728 
H     0.3632687   -2.7901533    2.5154373 
H     2.0448033   -2.9547750    3.0800810 
H     1.2768847    3.8881546    1.1746402 
H     0.7377424    2.5465676    0.1215370 
H    -0.3700597    3.2280319    1.3478286 
H     1.6968287    1.8623568    4.3334733 
H     0.1767321    2.7345931    3.9587297 
H     1.7527936    3.4891700    3.6226097 
