80
Energy =
C     0.9670229   -0.7275919   -2.2706077 
C     1.7843463    0.2680964   -1.6940968 
C     2.4599024    0.0604980   -0.4590382 
H     1.8267562    1.2595891   -2.1609179 
Pd    0.2290619   -0.0888899   -0.1481576 
P     0.2656467    0.0048659    2.2037514 
P    -2.0714129   -0.5061627   -0.3958587 
H     1.1113414   -1.7575450   -1.9105681 
H     2.6951309   -0.9802437   -0.1923199 
C    -0.9478466   -0.5644170   -6.1213698 
C    -0.4376565    0.6146519   -5.5514419 
C     0.1828259    0.5835006   -4.2994949 
C     0.3083039   -0.6301160   -3.5834836 
C    -0.1889624   -1.8123078   -4.1828169 
C    -0.8147270   -1.7804618   -5.4348932 
H    -1.4342228   -0.5351955   -7.1016144 
H    -0.5247734    1.5642143   -6.0893503 
H     0.5691599    1.5155678   -3.8747428 
H    -0.0692400   -2.7685335   -3.6603117 
H    -1.1897378   -2.7077040   -5.8800371 
C     5.1609056    2.9396563    1.2639030 
C     4.1192181    3.3760572    0.4272354 
C     3.2239802    2.4539245   -0.1247881 
C     3.3575413    1.0698062    0.1374079 
C     4.4141477    0.6460867    0.9745197 
C     5.3038629    1.5711285    1.5360099 
H     5.8569948    3.6638078    1.6988230 
H     3.9997078    4.4431991    0.2134910 
H     2.3996839    2.8159880   -0.7487666 
H     4.5474243   -0.4240313    1.1718404 
H     6.1171909    1.2213703    2.1801186 
C    -3.0137985   -0.9621389    1.1472830 
C    -1.3154960   -0.5391113    3.0308546 
C    -2.1790887   -1.5712134    2.2863937 
C    -2.4179650   -1.9401266   -1.5505311 
C    -3.0519979    0.9410927   -1.0742489 
C     1.5678250   -1.1937241    2.8386832 
C     0.5554605    1.6243869    3.1237226 
C    -3.9002949   -2.1476415   -1.9021798 
C    -1.7683788   -3.2247968   -1.0034284 
C    -2.8906587    2.1792464   -0.1762339 
C    -2.6388619    1.2573562   -2.5196126 
C     1.6314251   -1.3213776    4.3711649 
C     1.4264332   -2.5748596    2.1702323 
C     2.0256065    2.0470064    3.2585926 
C    -0.2838789    2.7382232    2.4733564 
H    -3.8055902   -1.6662109    0.8369375 
H    -3.5298206   -0.0550086    1.5094850 
H    -1.0264921   -0.9254743    4.0238434 
H    -1.9087514    0.3751036    3.2161387 
H    -2.8772491   -2.0204655    3.0159063 
H    -1.5568979   -2.4019029    1.9075314 
H    -1.8819747   -1.6491071   -2.4711837 
H    -4.1094624    0.6131321   -1.0504710 
H     2.5037914   -0.7248407    2.4798327 
H     0.1522906    1.4189691    4.1354137 
H    -3.9890842   -2.9852046   -2.6170421 
H    -4.5071376   -2.4099347   -1.0170724 
H    -4.3480672   -1.2596649   -2.3780740 
H    -0.7102211   -3.0643149   -0.7286163 
H    -1.8073340   -4.0205159   -1.7681767 
H    -2.2997503   -3.6007316   -0.1109789 
H    -3.5182949    3.0020172   -0.5612213 
H    -3.1970576    1.9913903    0.8670480 
H    -1.8414625    2.5222180   -0.1703676 
H    -1.5868015    1.5866880   -2.5530282 
H    -2.7423805    0.3959627   -3.1997492 
H    -3.2639302    2.0768050   -2.9158199 
H     0.7464827   -1.8466813    4.7713664 
H     2.5165890   -1.9200247    4.6506715 
H     1.7144229   -0.3474673    4.8807301 
H     0.5385000   -3.1132431    2.5453459 
H     2.3098497   -3.1961936    2.4001511 
H     1.3362497   -2.4953874    1.0719698 
H     2.0778514    2.9477360    3.8955668 
H     2.6567967    1.2750250    3.7259268 
H     2.4609702    2.3028023    2.2824096 
H    -1.3538517    2.4783373    2.4102097 
H     0.0797626    2.9496036    1.4520815 
H    -0.1998522    3.6654535    3.0667626 
