80
Energy =
C     1.0737923   -0.6770929   -2.3969692 
C     1.8628292    0.3173095   -1.7768308 
C     2.5379600    0.0565598   -0.5499799 
H     1.8637399    1.3350650   -2.1854827 
Pd    0.3224250   -0.1511271   -0.2522822 
P     0.3767645    0.0613169    2.0774589 
P    -1.9803978   -0.5736279   -0.4321193 
H     1.2511202   -1.7164397   -2.0802860 
H     2.8075580   -0.9912831   -0.3545884 
C    -0.9523862   -0.4140048   -6.1847218 
C    -0.3871578    0.7421830   -5.6201401 
C     0.2743102    0.6778343   -4.3904489 
C     0.3870461   -0.5473342   -3.6921220 
C    -0.1616870   -1.7075769   -4.2889376 
C    -0.8301791   -1.6419167   -5.5174744 
H    -1.4709938   -0.3587329   -7.1471414 
H    -0.4626066    1.7000316   -6.1450090 
H     0.7045074    1.5927161   -3.9703920 
H    -0.0475907   -2.6740719   -3.7841660 
H    -1.2462017   -2.5526035   -5.9604847 
C     4.8890509    2.8614676    1.7194829 
C     5.0426300    1.4788286    1.9050667 
C     4.2862523    0.5801549    1.1424118 
C     3.3538701    1.0423068    0.1842058 
C     3.2254307    2.4379596   -0.0047842 
C     3.9843363    3.3351900    0.7543487 
H     5.4775983    3.5664268    2.3151814 
H     5.7583454    1.0995616    2.6417622 
H     4.4176045   -0.4989168    1.2842248 
H     2.5097762    2.8295999   -0.7349830 
H     3.8670840    4.4123647    0.5966183 
C    -2.9317024   -0.9674418    1.1327313 
C    -1.2742807   -0.0877251    2.9057028 
C    -2.1184391   -1.2761222    2.3993414 
C    -2.3207557   -2.0440354   -1.5386096 
C    -2.9678081    0.8566732   -1.1364810 
C     1.4563118   -1.2838267    2.8507621 
C     1.0621493    1.7069301    2.6568230 
C    -3.8054226   -2.2956152   -1.8475566 
C    -1.6201681   -3.2892791   -0.9633241 
C    -2.7804191    2.1142076   -0.2693191 
C    -2.5848706    1.1372145   -2.5964139 
C     1.1149425   -1.6338712    4.3115216 
C     1.4869238   -2.5630258    1.9900179 
C     0.3477867    2.8482255    1.9106441 
C     1.0693872    1.9288691    4.1789341 
H    -3.5873201   -1.8233349    0.8952741 
H    -3.6020311   -0.1114472    1.3285559 
H    -1.1006905   -0.1718148    3.9917131 
H    -1.8106890    0.8653985    2.7458305 
H    -2.8317706   -1.5621447    3.1931698 
H    -1.4787333   -2.1624115    2.2343315 
H    -1.8112321   -1.7647105   -2.4786223 
H    -4.0259396    0.5335998   -1.0819932 
H     2.4593871   -0.8165514    2.8156381 
H     2.1084355    1.6739863    2.3049565 
H    -3.8933323   -3.1493077   -2.5431686 
H    -4.3823080   -2.5532451   -0.9413586 
H    -4.2859627   -1.4271050   -2.3278645 
H    -0.5500022   -3.0983009   -0.7650717 
H    -1.6937469   -4.1279300   -1.6780345 
H    -2.0876702   -3.6201816   -0.0180196 
H    -3.4224507    2.9281757   -0.6491244 
H    -3.0480603    1.9487559    0.7887369 
H    -1.7325322    2.4585802   -0.3069465 
H    -1.5350746    1.4679138   -2.6602467 
H    -2.6995743    0.2585043   -3.2526748 
H    -3.2201067    1.9448712   -3.0005636 
H     0.1500976   -2.1663184    4.3792752 
H     1.8900933   -2.3111859    4.7118662 
H     1.0699861   -0.7531343    4.9706309 
H     0.5115360   -3.0801183    1.9995198 
H     2.2384541   -3.2651680    2.3924530 
H     1.7423845   -2.3504211    0.9388751 
H     0.8499689    3.8057672    2.1327842 
H     0.3789224    2.6924886    0.8183946 
H    -0.7091198    2.9440371    2.2177904 
H     1.7025613    1.1957988    4.7037387 
H     0.0542169    1.8934251    4.6115347 
H     1.4838376    2.9302029    4.3924279 
