80
Energy =
C     1.1385098   -0.8216506   -2.2464416 
C     1.8508555    0.2529590   -1.6785405 
C     2.5115966    0.1129727   -0.4169397 
H     1.8089355    1.2406523   -2.1548686 
Pd    0.3178606   -0.1981707   -0.1436103 
P     0.2922900   -0.2184017    2.1960108 
P    -2.0041057   -0.3038451   -0.4608191 
H     1.3207394   -1.8183558   -1.8138447 
H     2.9109800   -0.8834746   -0.1832137 
C    -0.7701898   -1.0115415   -6.0945876 
C    -0.7288224   -2.1355507   -5.2555972 
C    -0.0980288   -2.0542791   -4.0089020 
C     0.4927313   -0.8460123   -3.5662565 
C     0.4649430    0.2693594   -4.4364805 
C    -0.1614081    0.1865635   -5.6833435 
H    -1.2582690   -1.0718968   -7.0725879 
H    -1.1798846   -3.0796336   -5.5778610 
H    -0.0549354   -2.9386583   -3.3627345 
H     0.9446983    1.2085864   -4.1435650 
H    -0.1699324    1.0591996   -6.3443813 
C     4.4909359    3.3787487    1.5848037 
C     3.3726988    3.6286209    0.7722611 
C     2.7311675    2.5748351    0.1131100 
C     3.1928113    1.2443197    0.2481676 
C     4.3306392    1.0117953    1.0538920 
C     4.9703355    2.0666455    1.7175816 
H     4.9895499    4.2031609    2.1044826 
H     2.9945723    4.6500227    0.6591000 
H     1.8426247    2.7818362   -0.4943200 
H     4.7224082   -0.0057678    1.1520218 
H     5.8517556    1.8642522    2.3348827 
C    -3.0790663   -0.4733907    1.0535013 
C    -1.3845962   -0.3658862    3.0010576 
C    -2.4554064   -1.1900364    2.2615591 
C    -2.5600204   -1.6874174   -1.5898834 
C    -2.6613929    1.2859335   -1.2136689 
C     1.1950603   -1.7157080    2.9015082 
C     1.0380621    1.2817212    3.0349879 
C    -4.0521030   -1.6696666   -1.9591501 
C    -2.1172229   -3.0431585   -1.0094887 
C    -2.2172931    2.4955874   -0.3711023 
C    -2.2144839    1.4501412   -2.6734069 
C     0.7094115   -3.0188491    2.2395539 
C     2.7239274   -1.5991502    2.8145505 
C     0.3073183    2.5565548    2.5776317 
C     1.1044003    1.1740789    4.5687403 
H    -3.9957290   -0.9998743    0.7345814 
H    -3.3924516    0.5441686    1.3478897 
H    -1.2107967   -0.7929715    4.0051009 
H    -1.7569800    0.6630861    3.1570988 
H    -3.2661993   -1.4051343    2.9812045 
H    -2.0532873   -2.1718876    1.9572215 
H    -1.9698929   -1.5010334   -2.5060223 
H    -3.7646377    1.1970210   -1.1679377 
H     0.9005642   -1.7266286    3.9689611 
H     2.0648289    1.3180562    2.6262802 
H    -4.2576804   -2.4769274   -2.6846712 
H    -4.6988750   -1.8486520   -1.0817791 
H    -4.3589699   -0.7190932   -2.4264714 
H    -1.0455406   -3.0384467   -0.7407981 
H    -2.2829143   -3.8432155   -1.7524625 
H    -2.6958492   -3.3076272   -0.1062920 
H    -2.6882944    3.4156205   -0.7592068 
H    -2.4922509    2.4036649    0.6936215 
H    -1.1211070    2.6214561   -0.4282161 
H    -1.1166827    1.5384140   -2.7291643 
H    -2.5170403    0.6093113   -3.3186810 
H    -2.6503597    2.3725835   -3.0957168 
H     0.9097881   -3.0035835    1.1522764 
H     1.2478861   -3.8797774    2.6733207 
H    -0.3684581   -3.1939918    2.3867363 
H     3.1118878   -0.6626423    3.2459429 
H     3.0648120   -1.6636863    1.7688043 
H     3.1831242   -2.4397601    3.3641073 
H     0.8555301    3.4447130    2.9358696 
H     0.2502647    2.6142481    1.4790087 
H    -0.7189182    2.6108366    2.9836816 
H     1.6738521    0.2930485    4.9088485 
H     0.0972121    1.1312450    5.0191586 
H     1.6085069    2.0694140    4.9738955 
