80
Energy =
C     2.1267085    1.4207951   -0.5661638 
C     1.7183351    0.6492637   -1.6810391 
C     0.5219959    0.9037542   -2.3961706 
H     2.2999177   -0.2445087   -1.9379725 
Pd    0.0872810    0.4227397   -0.1951467 
P    -2.0827255   -0.4550041   -0.4460882 
P     0.1957453    0.2422245    2.1508404 
H     1.7315134    2.4446711   -0.4882887 
H     0.1113014    1.9232307   -2.3463891 
C     5.8159929    0.7715454    1.5663178 
C     5.1982246    2.0309886    1.5704851 
C     4.0010985    2.2298125    0.8713978 
C     3.3898698    1.1741018    0.1573748 
C     4.0370880   -0.0850837    0.1475181 
C     5.2330746   -0.2834527    0.8440625 
H     6.7506759    0.6138527    2.1138289 
H     5.6538452    2.8646619    2.1146630 
H     3.5354663    3.2208987    0.8684369 
H     3.5899914   -0.9270381   -0.3903990 
H     5.7134867   -1.2672460    0.8266889 
C    -0.7086530   -1.3452191   -5.8615639 
C    -1.1520588   -0.0284868   -5.6679552 
C    -0.7415725    0.6936414   -4.5403280 
C     0.1152613    0.1150293   -3.5764331 
C     0.5692921   -1.2075431   -3.7978337 
C     0.1614574   -1.9277968   -4.9246543 
H    -1.0298517   -1.9118032   -6.7413906 
H    -1.8147417    0.4416652   -6.4017951 
H    -1.0805201    1.7263064   -4.4072684 
H     1.2290150   -1.6897939   -3.0695793 
H     0.5210402   -2.9513751   -5.0727832 
C    -1.1266614   -0.8031907    2.9504234 
C    -2.7957927   -1.3019863    1.0552046 
C    -1.7807576   -1.8734966    2.0602000 
C     0.0904797    1.8292484    3.1493108 
C     1.7885564   -0.5862524    2.6907273 
C    -3.4482165    0.7532953   -0.8959767 
C    -2.1366522   -1.7897151   -1.7617705 
C    -1.1999088    2.6033360    2.8358142 
C     1.3221402    2.7223989    2.9436311 
C     2.0143962   -0.6361803    4.2109127 
C     1.8923935   -1.9811233    2.0464371 
C    -3.5433913    1.8948801    0.1288701 
C    -3.2800050    1.3120222   -2.3161994 
C    -1.1610055   -2.9226340   -1.3924876 
C    -3.5408482   -2.3240946   -2.0893423 
H    -1.9025921   -0.1215072    3.3422352 
H    -0.6573355   -1.2769485    3.8304311 
H    -3.4585187   -0.5805034    1.5657876 
H    -3.4488015   -2.1073731    0.6756772 
H    -1.0093394   -2.4665439    1.5371660 
H    -2.3168615   -2.5808183    2.7188543 
H     0.0571582    1.4878267    4.2024459 
H     2.5682309    0.0535741    2.2410846 
H    -4.3756116    0.1494155   -0.8473181 
H    -1.7388300   -1.2773269   -2.6554278 
H    -1.2782757    3.4799009    3.5024589 
H    -1.1907223    2.9679174    1.7942979 
H    -2.1090000    1.9959350    2.9797523 
H     2.2706083    2.2076535    3.1654642 
H     1.2531992    3.6053894    3.6031524 
H     1.3645920    3.0846417    1.9024023 
H     2.9919815   -1.1084984    4.4138288 
H     2.0320509    0.3662599    4.6694023 
H     1.2475115   -1.2406433    4.7278070 
H     1.1932188   -2.6972818    2.5138258 
H     1.6765743   -1.9446283    0.9631783 
H     2.9144231   -2.3768743    2.1781517 
H    -2.6353319    2.5215113    0.0975209 
H    -4.4084955    2.5377172   -0.1103415 
H    -3.6758732    1.5323612    1.1618534 
H    -3.2148623    0.5252863   -3.0845408 
H    -2.3684422    1.9301314   -2.3809790 
H    -4.1408338    1.9577067   -2.5637961 
H    -1.0226083   -3.5913315   -2.2597066 
H    -0.1702279   -2.5272656   -1.1041578 
H    -1.5459718   -3.5335846   -0.5566148 
H    -4.2231453   -1.5332653   -2.4419908 
H    -4.0094008   -2.8260957   -1.2238738 
H    -3.4607491   -3.0740774   -2.8961579 
