80
Energy =
C     1.0697265   -0.6679601   -2.4365678 
C     1.9675869    0.2210468   -1.7873972 
C     2.6685462   -0.1655986   -0.6138876 
H     2.0075390    1.2684348   -2.1110617 
Pd    0.4312070   -0.2954441   -0.2973287 
P     0.4196122    0.0039960    2.0226233 
P    -1.8554896   -0.7068752   -0.5700697 
H     1.2465274   -1.7451456   -2.2962138 
H     2.8466521   -1.2424901   -0.4718305 
C    -1.4297000    0.2347695   -5.8289205 
C    -0.8384725    1.2829098   -5.1031008 
C    -0.0098584    1.0077781   -4.0105051 
C     0.2458263   -0.3252435   -3.6121875 
C    -0.3317341   -1.3692103   -4.3726868 
C    -1.1642257   -1.0937528   -5.4649127 
H    -2.0803025    0.4538261   -6.6815419 
H    -1.0253478    2.3223714   -5.3921296 
H     0.4311724    1.8421348   -3.4563113 
H    -0.1117270   -2.4099224   -4.1073397 
H    -1.5993189   -1.9185671   -6.0386114 
C     5.2416025    2.3309600    1.7769718 
C     4.3757609    2.9210383    0.8404324 
C     3.5469556    2.1250742    0.0432509 
C     3.5596612    0.7158671    0.1653326 
C     4.4597968    0.1363860    1.0903526 
C     5.2873860    0.9335204    1.8913110 
H     5.8864624    2.9572016    2.4016417 
H     4.3473766    4.0102410    0.7317344 
H     2.8749649    2.6095927   -0.6718932 
H     4.5166484   -0.9555502    1.1697754 
H     5.9762302    0.4619643    2.5997783 
C    -2.8648803   -0.8215642    0.9858777 
C    -1.1976102   -0.2998080    2.8860984 
C    -2.4662677    0.1361283    2.1263251 
C    -2.1252670   -2.3603112   -1.4146201 
C    -2.6603010    0.6137324   -1.6452116 
C     1.6080400   -1.1959504    2.8394126 
C     0.9667644    1.7448668    2.4887487 
C    -3.5899371   -2.7959504   -1.5921742 
C    -1.2886498   -3.4412190   -0.7028938 
C    -4.1928977    0.7174654   -1.5481523 
C    -2.0113621    1.9865302   -1.3855254 
C     1.6543199   -1.1573229    4.3765992 
C     1.3438255   -2.6186130    2.3097969 
C     0.4717697    2.7615009    1.4424489 
C     0.5925286    2.2100662    3.9073073 
H    -2.7839760   -1.8666926    1.3377612 
H    -3.9215484   -0.6663440    0.7093699 
H    -1.2462298   -1.3853011    3.0911223 
H    -1.1501478    0.2010499    3.8678943 
H    -2.3614141    1.1706191    1.7502492 
H    -3.2999935    0.1611672    2.8509165 
H    -1.6874924   -2.1850310   -2.4146324 
H    -2.3785600    0.2860044   -2.6647261 
H     2.5853631   -0.8565656    2.4500703 
H     2.0685090    1.6718120    2.4052932 
H    -3.6165476   -3.7894485   -2.0744725 
H    -4.1168557   -2.8854932   -0.6260369 
H    -4.1540245   -2.1039863   -2.2370019 
H    -0.2246183   -3.1535541   -0.6378915 
H    -1.3556465   -4.3926916   -1.2592173 
H    -1.6509019   -3.6337554    0.3232747 
H    -4.5552823    1.4196161   -2.3197818 
H    -4.7063811   -0.2433969   -1.7058700 
H    -4.5061498    1.1205294   -0.5688080 
H    -2.2914900    2.3807556   -0.3927573 
H    -0.9108452    1.9317508   -1.4314935 
H    -2.3542925    2.7114105   -2.1444468 
H     0.6719424   -1.3822247    4.8278241 
H     2.3647008   -1.9225969    4.7373860 
H     2.0008584   -0.1838193    4.7572699 
H     0.3593022   -3.0026766    2.6331065 
H     2.1106662   -3.3114077    2.6988409 
H     1.3749995   -2.6533385    1.2065543 
H     0.9481554    3.7416223    1.6196018 
H     0.7137625    2.4398721    0.4157949 
H    -0.6216224    2.9018284    1.5065024 
H     0.9033973    1.5057481    4.6940365 
H    -0.4954834    2.3750549    4.0008140 
H     1.0867061    3.1765792    4.1107089 
