80
Energy =
C     1.1874534   -0.7437568   -2.2694280 
C     1.8465946    0.3490212   -1.6741877 
C     2.5000577    0.2146188   -0.4077135 
H     1.7689123    1.3423794   -2.1340024 
Pd    0.3216916   -0.1822749   -0.1557479 
P     0.3029159   -0.2547670    2.1843965 
P    -1.9887250   -0.4328212   -0.4753892 
H     1.4012926   -1.7390653   -1.8488055 
H     2.9380228   -0.7686073   -0.1871538 
C    -0.6727116   -0.9310418   -6.1407355 
C    -0.6334965   -2.0589783   -5.3066977 
C    -0.0160726   -1.9804627   -4.0531853 
C     0.5599340   -0.7702194   -3.5977177 
C     0.5373803    0.3486433   -4.4637847 
C    -0.0738681    0.2680679   -5.7181847 
H    -1.1504588   -0.9896173   -7.1239310 
H    -1.0752500   -3.0041016   -5.6387078 
H     0.0280282   -2.8683204   -3.4123848 
H     1.0070676    1.2895297   -4.1603258 
H    -0.0792229    1.1433998   -6.3756549 
C     4.3326500    3.5158433    1.6722178 
C     3.2096607    3.7370477    0.8576800 
C     2.6156779    2.6724292    0.1719541 
C     3.1321551    1.3597081    0.2814061 
C     4.2725907    1.1560306    1.0912169 
C     4.8643296    2.2218435    1.7815351 
H     4.7934979    4.3486671    2.2129234 
H     2.7900466    4.7441797    0.7646075 
H     1.7204468    2.8547077   -0.4336304 
H     4.7026201    0.1524947    1.1733920 
H     5.7484626    2.0424502    2.4020567 
C    -3.0442597   -0.6302022    1.0466773 
C    -1.3558425   -0.5089788    2.9999517 
C    -2.5805299    0.1150705    2.3123247 
C    -2.4598729   -1.9069179   -1.5293849 
C    -2.7595179    1.0543419   -1.3278810 
C     1.2272526   -1.7562953    2.8419524 
C     1.0195959    1.2486267    3.0415910 
C    -3.9722852   -2.0742095   -1.7542307 
C    -1.8064683   -3.1841443   -0.9715230 
C    -2.6024871    2.3324151   -0.4842927 
C    -2.1699096    1.2503927   -2.7313466 
C     0.7576493   -3.0247134    2.1049053 
C     2.7557740   -1.6213644    2.7782028 
C     0.2023099    2.4994511    2.6682042 
C     1.1819236    1.1047413    4.5643940 
H    -3.1064035   -1.7135515    1.2595231 
H    -4.0632064   -0.3044636    0.7698474 
H    -1.5026707   -1.5995440    3.0990692 
H    -1.2592006   -0.1149315    4.0272538 
H    -2.3937146    1.1793423    2.0914407 
H    -3.4165892    0.0971782    3.0350456 
H    -1.9796758   -1.6782939   -2.4987840 
H    -3.8369655    0.8127702   -1.4107434 
H     0.9170028   -1.8206612    3.9036933 
H     2.0199435    1.3451237    2.5817872 
H    -4.1492305   -2.9182299   -2.4446334 
H    -4.5046390   -2.3007406   -0.8138848 
H    -4.4306123   -1.1784195   -2.2061846 
H    -0.7164208   -3.0591684   -0.8483717 
H    -1.9817119   -4.0283777   -1.6614552 
H    -2.2284534   -3.4684760    0.0093120 
H    -3.0153560    3.1932847   -1.0391100 
H    -3.1379759    2.2741219    0.4772129 
H    -1.5367902    2.5406080   -0.2780724 
H    -1.1000867    1.5110963   -2.6649273 
H    -2.2606916    0.3557105   -3.3691732 
H    -2.6897559    2.0803485   -3.2415615 
H     1.0667903   -2.9915091    1.0443373 
H     1.2127902   -3.9184832    2.5662765 
H    -0.3379265   -3.1553072    2.1330280 
H     3.1069754   -1.6282787    1.7336782 
H     3.2202750   -2.4831714    3.2888150 
H     3.1288394   -0.7030068    3.2591267 
H     0.7423113    3.4050043    2.9937398 
H     0.0479453    2.5713980    1.5783801 
H    -0.7850868    2.5004257    3.1633949 
H     1.8029483    0.2391601    4.8479797 
H     0.2077773    1.0137332    5.0771717 
H     1.6745491    2.0100673    4.9612259 
