80
Energy =
C     0.8977003   -0.5094463   -2.4114300 
C     1.8263283    0.3563852   -1.7742971 
C     2.5839262   -0.0662684   -0.6540024 
H     1.8604137    1.4108023   -2.0737177 
Pd    0.3466962   -0.2041401   -0.2357747 
P     0.3361775    0.0150324    2.0993122 
P    -1.9174679   -0.7640276   -0.5032047 
H     1.0814439   -1.5907895   -2.3225246 
H     2.7323023   -1.1500847   -0.5358699 
C    -1.6876364    0.5436482   -5.6947226 
C    -1.3885860   -0.7989605   -5.4192269 
C    -0.5286965   -1.1237985   -4.3622789 
C     0.0415168   -0.1169645   -3.5481882 
C    -0.2485445    1.2325768   -3.8580742 
C    -1.1028479    1.5573468   -4.9164982 
H    -2.3600708    0.8011104   -6.5191942 
H    -1.8181763   -1.5957072   -6.0351333 
H    -0.2802400   -2.1740832   -4.1700205 
H     0.1809808    2.0392289   -3.2559390 
H    -1.3173741    2.6084352   -5.1358472 
C     5.5397189    2.2772277    1.4236439 
C     4.6527096    2.9090647    0.5357294 
C     3.6787809    2.1657645   -0.1392621 
C     3.5754592    0.7674560    0.0505327 
C     4.4850255    0.1442861    0.9361658 
C     5.4523160    0.8907634    1.6204057 
H     6.2980617    2.8625700    1.9531250 
H     4.7185247    3.9897076    0.3729496 
H     2.9900164    2.6829855   -0.8149930 
H     4.4355955   -0.9416331    1.0775513 
H     6.1469923    0.3876768    2.3008717 
C    -2.9340194   -0.9810319    1.0373649 
C    -1.2541001   -0.4949446    2.9256773 
C    -2.5635346   -0.0796718    2.2284130 
C    -2.0296498   -2.4355834   -1.3500299 
C    -2.8221571    0.4948125   -1.5704275 
C     1.6066335   -1.0659361    2.9560913 
C     0.5854287    1.7774641    2.7405695 
C    -3.4478627   -2.9832936   -1.5841922 
C    -1.1424941   -3.4452552   -0.5947899 
C    -4.3597114    0.4439369   -1.5257779 
C    -2.3218289    1.9162750   -1.2490207 
C     1.4404005   -1.1299136    4.4863030 
C     1.6247238   -2.4723315    2.3292648 
C     2.0398732    2.1034016    3.1210239 
C     0.0423962    2.7863176    1.7109711 
H    -2.8325178   -2.0402284    1.3367029 
H    -3.9916528   -0.8352484    0.7599910 
H    -1.2258677   -1.5960387    3.0267619 
H    -1.2225511   -0.0823763    3.9494473 
H    -2.5294949    0.9819618    1.9220778 
H    -3.3786665   -0.1524452    2.9707807 
H    -1.5671560   -2.2333360   -2.3327439 
H    -2.4791659    0.2268416   -2.5875612 
H     2.5625269   -0.5659681    2.7137171 
H    -0.0383226    1.8309160    3.6535294 
H    -3.3782667   -3.9864986   -2.0416680 
H    -4.0140736   -3.0902599   -0.6424212 
H    -4.0278292   -2.3489046   -2.2725936 
H    -0.1128347   -3.0667710   -0.4658215 
H    -1.0949757   -4.3948422   -1.1562640 
H    -1.5456873   -3.6768043    0.4078783 
H    -4.7624634    1.1290402   -2.2926653 
H    -4.7695975   -0.5575907   -1.7264719 
H    -4.7458866    0.7870403   -0.5496203 
H    -2.6969656    2.2567992   -0.2675187 
H    -1.2198783    1.9686583   -1.2302138 
H    -2.6901717    2.6234445   -2.0125688 
H     0.5510920   -1.7183520    4.7706159 
H     2.3200440   -1.6280362    4.9311941 
H     1.3526780   -0.1322103    4.9481434 
H     1.8167295   -2.4321111    1.2434217 
H     0.6671894   -3.0017571    2.4841622 
H     2.4183720   -3.0815325    2.7967828 
H     2.0938155    3.1561295    3.4506474 
H     2.4130258    1.4799461    3.9484773 
H     2.7210883    1.9889375    2.2649066 
H    -1.0125188    2.5962730    1.4542123 
H     0.6316196    2.7436822    0.7771534 
H     0.1132195    3.8112303    2.1160004 
