80
Energy =
C     2.2883829    1.3318109   -0.6078525 
C     1.8170024    0.6436569   -1.7598708 
C     0.6125077    1.0170712   -2.4010812 
H     2.3272140   -0.2753374   -2.0732146 
Pd    0.2318436    0.4261929   -0.2365552 
P    -1.8502648   -0.6139772   -0.5535502 
P     0.2253581    0.3883233    2.1088577 
H     2.0052530    2.3896476   -0.5092852 
H     0.2511942    2.0416331   -2.2234268 
C     5.8229913    0.2059719    1.5875208 
C     5.1267580   -0.7594416    0.8411755 
C     3.9826287   -0.4032455    0.1201916 
C     3.5047661    0.9288244    0.1262351 
C     4.2292232    1.8923105    0.8646492 
C     5.3728114    1.5348248    1.5900199 
H     6.7153755   -0.0751675    2.1557508 
H     5.4756030   -1.7972910    0.8262211 
H     3.4400099   -1.1762617   -0.4342022 
H     3.8955180    2.9351841    0.8605556 
H     5.9186556    2.2985591    2.1535596 
C    -1.2125957   -0.8872667   -5.8022483 
C    -1.7371721    0.3039992   -5.2766275 
C    -1.1157086    0.9220231   -4.1849612 
C     0.0345810    0.3576459   -3.5852977 
C     0.5663025   -0.8287334   -4.1433084 
C    -0.0522017   -1.4430762   -5.2376200 
H    -1.6952868   -1.3722715   -6.6566247 
H    -2.6281868    0.7564311   -5.7240010 
H    -1.5246420    1.8558124   -3.7827819 
H     1.4649325   -1.2847061   -3.7169402 
H     0.3740697   -2.3609520   -5.6552779 
C    -1.1933081   -0.4868773    2.9544806 
C    -2.5400325   -1.4261975    0.9636998 
C    -2.5465613   -0.5422812    2.2248153 
C     0.1653210    2.0866079    2.9105077 
C     1.7286948   -0.4759099    2.8163466 
C    -3.2142093    0.5024518   -1.2321746 
C    -1.6884315   -2.0229584   -1.7811840 
C    -1.0814716    2.8628926    2.4518933 
C     1.4445650    2.8978365    2.6668578 
C     1.8260049   -0.4304066    4.3505858 
C     1.7979675   -1.9139251    2.2686260 
C    -4.6460086    0.1013856   -0.8323306 
C    -2.9490926    1.9815595   -0.8952150 
C    -0.4541165   -2.8760895   -1.4348707 
C    -2.9515637   -2.8799506   -1.9704342 
H    -1.3172930   -0.0036949    3.9403949 
H    -0.8525846   -1.5191903    3.1521510 
H    -3.5624217   -1.7670597    0.7295886 
H    -1.9367897   -2.3362145    1.1387864 
H    -3.2864849   -0.9575778    2.9327847 
H    -2.9031524    0.4746376    1.9803294 
H     0.0754905    1.8743271    3.9935675 
H     2.5738490    0.0900578    2.3841434 
H    -3.0963223    0.3693742   -2.3246634 
H    -1.4827625   -1.4968511   -2.7299788 
H    -1.1157544    3.8445179    2.9563740 
H    -1.0524618    3.0405953    1.3621266 
H    -2.0191521    2.3346209    2.6924777 
H     2.3549380    2.3638551    2.9836955 
H     1.3930959    3.8451150    3.2321880 
H     1.5481962    3.1520118    1.5987274 
H     2.7544216   -0.9352480    4.6717674 
H     1.8615940    0.6014617    4.7383962 
H     0.9818428   -0.9542201    4.8328091 
H     1.0251334   -2.5624244    2.7197949 
H     1.6677968   -1.9359031    1.1724289 
H     2.7818161   -2.3541449    2.5048765 
H    -4.8215432    0.2594756    0.2462700 
H    -5.3659968    0.7370138   -1.3777137 
H    -4.8825223   -0.9477962   -1.0703789 
H    -3.0752705    2.1754638    0.1837955 
H    -3.6663473    2.6245476   -1.4356091 
H    -1.9283556    2.2910034   -1.1770382 
H    -0.2739988   -3.6136544   -2.2364248 
H     0.4509816   -2.2503149   -1.3335882 
H    -0.5899323   -3.4345799   -0.4911175 
H    -3.8084239   -2.2849429   -2.3260843 
H    -3.2449707   -3.4016501   -1.0427262 
H    -2.7512963   -3.6529439   -2.7337638 
