80
Energy =
C     1.1801708   -0.9329206   -2.3201130 
C     1.9693812    0.0950278   -1.7589555 
C     2.6330610   -0.0918091   -0.5084264 
H     1.9702802    1.0884342   -2.2246831 
Pd    0.4299514   -0.2892856   -0.2228536 
P     0.4807081   -0.0626808    2.1026879 
P    -1.9084249   -0.4129873   -0.4142341 
H     1.3702040   -1.9537520   -1.9538241 
H     2.9372666   -1.1194454   -0.2584829 
C    -0.9676484   -0.8792511   -6.0475886 
C    -0.5083940    0.3295799   -5.4968512 
C     0.1973696    0.3340272   -4.2898218 
C     0.4568243   -0.8733684   -3.5998529 
C     0.0039043   -2.0837153   -4.1774157 
C    -0.7020999   -2.0876046   -5.3861149 
H    -1.5196383   -0.8778221   -6.9929118 
H    -0.6994947    1.2745424   -6.0158809 
H     0.5448991    1.2872201   -3.8800732 
H     0.2120444   -3.0304809   -3.6669000 
H    -1.0409301   -3.0359406   -5.8156235 
C     4.7881991    2.9644848    1.6386607 
C     3.8125489    3.3291999    0.6951118 
C     3.1205677    2.3475462   -0.0215102 
C     3.3874443    0.9734909    0.1850052 
C     4.3938216    0.6245707    1.1154419 
C     5.0816225    1.6074475    1.8395430 
H     5.3236383    3.7343611    2.2032799 
H     3.5863349    4.3865826    0.5224429 
H     2.3474524    2.6531070   -0.7343581 
H     4.6489695   -0.4316766    1.2606962 
H     5.8562578    1.3125704    2.5549521 
C    -2.8361648   -0.9285922    1.1238808 
C    -1.0932512   -0.5239101    2.9816479 
C    -1.9849249   -1.5467383    2.2469843 
C    -2.4626575   -1.6206826   -1.7321272 
C    -2.5580803    1.3196498   -0.7492330 
C     1.7834737   -1.2415073    2.7677417 
C     0.8928131    1.6746476    2.6807382 
C    -3.9670188   -1.6683637   -2.0468872 
C    -1.9188525   -3.0137321   -1.3546803 
C    -1.8494648    1.9458036   -1.9610718 
C    -4.0867013    1.4894039   -0.8237694 
C     2.1009867   -1.1475283    4.2686263 
C     1.4415372   -2.6840891    2.3450694 
C     0.1641087    2.6930366    1.7828091 
C     0.6097363    1.9675917    4.1666887 
H    -3.6184840   -1.6418926    0.8107994 
H    -3.3642362   -0.0380196    1.5105383 
H    -0.8087699   -0.9050051    3.9786025 
H    -1.6626977    0.4073888    3.1557101 
H    -2.6744809   -1.9908264    2.9876737 
H    -1.3796202   -2.3811193    1.8489058 
H    -1.9231148   -1.2744830   -2.6325766 
H    -2.1997858    1.8391608    0.1613621 
H     2.6804247   -0.9184827    2.2107691 
H     1.9799571    1.7513927    2.4876874 
H    -4.1589402   -2.4881115   -2.7621218 
H    -4.5793861   -1.8668338   -1.1492070 
H    -4.3238242   -0.7364560   -2.5093834 
H    -0.8393657   -2.9835609   -1.1228129 
H    -2.0703313   -3.7128180   -2.1954632 
H    -2.4459937   -3.4306048   -0.4773266 
H    -2.1542769    3.0013301   -2.0725319 
H    -0.7523438    1.9141991   -1.8406404 
H    -2.1056295    1.4192246   -2.8966210 
H    -4.4848587    1.1484780   -1.7922294 
H    -4.6215483    0.9494742   -0.0243997 
H    -4.3339649    2.5612824   -0.7244977 
H     1.2092308   -1.3115326    4.8995751 
H     2.8339004   -1.9315306    4.5310606 
H     2.5485278   -0.1768526    4.5342197 
H     0.5918619   -3.0853653    2.9252314 
H     2.3079340   -3.3421641    2.5335358 
H     1.1880233   -2.7487361    1.2705956 
H     0.5159166    3.7137665    2.0128789 
H     0.3451977    2.4978026    0.7121516 
H    -0.9269810    2.6691782    1.9609618 
H     1.1079134    1.2664162    4.8516070 
H    -0.4729129    1.9473725    4.3817358 
H     0.9708275    2.9834869    4.4064462 
