119
Energy =
C     3.5545115    1.5917268    0.2163493 
C     3.3472188    1.0612128    1.5234949 
C     3.3885392   -0.3358037    1.7445324 
H     3.0413194    1.7356555    2.3344507 
Pd    1.7484422    0.2546066    0.2581270 
P     0.1477969   -1.3573701    0.9398641 
P     0.3325738    1.0973394   -1.4103575 
H     4.1912953    1.0007004   -0.4599624 
H     3.9288946   -0.9372937    0.9970346 
C     3.4070202    5.7992305   -0.6745832 
C     2.4189432    5.2228908    0.1412549 
C     2.4662375    3.8587631    0.4437114 
C     3.4931847    3.0385488   -0.0749992 
C     4.4784347    3.6302895   -0.8944371 
C     4.4413936    5.0001744   -1.1827592 
H     3.3673741    6.8669026   -0.9139441 
H     1.6041490    5.8403467    0.5336542 
H     1.6807148    3.4063263    1.0605910 
H     5.2808015    3.0076816   -1.3063017 
H     5.2169940    5.4434721   -1.8159733 
C     2.9312438   -2.3538667    5.5143165 
C     3.6857328   -2.9237837    4.4786416 
C     3.8115899   -2.2591267    3.2537897 
C     3.1986234   -1.0035118    3.0430541 
C     2.4505823   -0.4363675    4.1000182 
C     2.3132005   -1.1074780    5.3184063 
H     2.8238681   -2.8765187    6.4704018 
H     4.1726901   -3.8938147    4.6218088 
H     4.3925016   -2.7144159    2.4451712 
H     1.9606866    0.5315588    3.9670067 
H     1.7196178   -0.6561794    6.1201736 
C    -2.0235646   -0.9970749   -0.8436704 
C    -2.1730404    0.3713066   -0.2490058 
C    -1.0985601   -1.9135102   -0.3149645 
C    -1.2211916    1.3784232   -0.4578572 
C    -2.8571209   -1.3802774   -1.9486681 
C    -3.3069919    0.6273977    0.6052183 
C    -2.7358461   -2.7036312   -2.5043370 
C    -3.4170187    1.8954843    1.2795597 
C    -1.0310898   -3.2366364   -0.8414464 
C    -1.3222430    2.6139891    0.2568455 
C    -1.8285534   -3.6191497   -1.9034348 
C    -2.3888725    2.8637454    1.0959633 
C    -3.7772793   -0.4695690   -2.5495959 
C    -4.3271270   -0.3458497    0.8245316 
C     0.9624141   -2.9094554    1.4804143 
C    -0.8569848   -0.7395034    2.3367920 
C     0.6789386    2.6742262   -2.2807660 
C     0.0115411   -0.0177624   -2.8312475 
C    -3.5226342   -3.0562368   -3.6391128 
C    -4.5340405    2.1411686    2.1282756 
C    -4.5266739   -0.8422599   -3.6531025 
C    -5.4072338   -0.0734297    1.6491601 
C    -4.3972562   -2.1442489   -4.2063653 
C    -5.5150309    1.1791353    2.3067830 
C     1.9528129   -3.4542407    0.6342716 
C    -0.5785539    0.5190454    2.8982627 
C     1.9632019    2.8211579   -2.8416475 
C     0.6984943   -1.2380153   -2.9473823 
C     0.6580587   -3.5735032    2.6814427 
C    -1.9555366   -1.4784164    2.8254034 
C    -0.2855129    3.6723029   -2.5247938 
C    -0.8800256    0.3678409   -3.8545678 
C     2.5910419   -4.6534659    0.9652332 
C    -1.3667846    1.0204716    3.9407366 
C     2.2838599    3.9522865   -3.5947905 
C     0.4740456   -2.0737163   -4.0489898 
C     1.3131556   -4.7676194    3.0103593 
C    -2.7344186   -0.9709151    3.8680777 
C     0.0502332    4.8087441   -3.2722835 
C    -1.1017846   -0.4747173   -4.9454292 
C     2.2826496   -5.3342102    2.1617670 
C    -2.4564392    0.2867291    4.4455017 
C     1.3408078    4.9782230   -3.8082889 
C    -0.4356467   -1.7138275   -5.0605492 
C     3.0120082   -6.6003223    2.5456683 
C    -3.3309405    0.8308299    5.5501691 
C     1.7225037    6.2280839   -4.5654309 
C    -0.7039446   -2.6200321   -6.2390605 
H    -0.3351783   -3.9573576   -0.4046293 
H    -0.5412515    3.3703402    0.1341422 
H    -1.7579838   -4.6370903   -2.3015772 
H    -2.4529642    3.8159375    1.6336068 
H    -3.8751143    0.5378649   -2.1345649 
H    -4.2507546   -1.3186591    0.3316526 
H    -3.4207540   -4.0635166   -4.0574310 
H    -4.6046543    3.1083889    2.6377957 
H    -5.2227353   -0.1284012   -4.1056406 
H    -6.1823334   -0.8324398    1.7974451 
H    -4.9953725   -2.4252456   -5.0793991 
H    -6.3735929    1.3819280    2.9554328 
H     2.2224220   -2.9346304   -0.2936629 
H     0.2407558    1.1206867    2.4878447 
H     2.7158084    2.0409567   -2.6852916 
H     1.3994738   -1.5413182   -2.1608395 
H    -0.0747729   -3.1540128    3.3761595 
H    -2.2183971   -2.4385881    2.3682531 
H    -1.3047054    3.5690355   -2.1398586 
H    -1.4090021    1.3242590   -3.7916614 
H     3.3488456   -5.0648689    0.2886875 
H    -1.1437283    2.0096275    4.3558468 
H     3.2917455    4.0499181   -4.0121578 
H     1.0077718   -3.0280702   -4.1169557 
H     1.0695676   -5.2638390    3.9563450 
H    -3.5912772   -1.5509910    4.2279764 
H    -0.7108970    5.5781854   -3.4445467 
H    -1.8144341   -0.1712067   -5.7200452 
H     2.4053711   -7.2291806    3.2179745 
H     3.2841431   -7.1965149    1.6585813 
H     3.9514569   -6.3569809    3.0784916 
H    -2.9568703    1.7961965    5.9277495 
H    -4.3627312    0.9819094    5.1841269 
H    -3.3852528    0.1252291    6.3983789 
H     0.8359460    6.8040891   -4.8768706 
H     2.3449383    6.8851122   -3.9284137 
H     2.3172151    5.9883197   -5.4637993 
H    -0.4325195   -2.1251129   -7.1891376 
H    -0.1336035   -3.5604706   -6.1683471 
H    -1.7785822   -2.8703803   -6.2978451 
