119
Energy =
C     3.3468328    1.6603931   -0.3080200 
C     3.6708268    0.9788743    0.8885737 
C     3.7450634   -0.4453956    0.9176664 
H     3.7433037    1.5364762    1.8306759 
Pd    1.6874885    0.2143600    0.3439954 
P     0.3718864   -1.7201654    0.5098207 
P    -0.1099767    1.5190856   -0.4743932 
H     3.5111031    1.1076939   -1.2449874 
H     4.0157181   -0.9519129   -0.0208959 
C     3.1060126    5.9084923   -0.9102767 
C     3.1997610    5.3982124    0.3953034 
C     3.2540308    4.0193436    0.6135437 
C     3.2292417    3.1158985   -0.4745722 
C     3.1219744    3.6443573   -1.7824970 
C     3.0605712    5.0253788   -1.9986985 
H     3.0657820    6.9901052   -1.0756319 
H     3.2288680    6.0817118    1.2497927 
H     3.3207520    3.6447154    1.6391415 
H     3.0928933    2.9607740   -2.6371753 
H     2.9842383    5.4124938   -3.0199808 
C     4.6605360   -2.6904552    4.4730264 
C     3.9024845   -1.5097011    4.5693839 
C     3.5987924   -0.7725833    3.4207647 
C     4.0415090   -1.2037090    2.1476889 
C     4.7895615   -2.3980070    2.0646306 
C     5.1039905   -3.1292688    3.2173739 
H     4.8990336   -3.2648319    5.3740930 
H     3.5432804   -1.1681515    5.5457717 
H     2.9806486    0.1287542    3.5036419 
H     5.1278398   -2.7530243    1.0852202 
H     5.6898902   -4.0502650    3.1322189 
C    -1.4503967   -1.0499137   -1.5959856 
C    -2.2773899   -0.2952991   -0.5988068 
C    -0.2799880   -1.7219961   -1.2188584 
C    -1.8294700    0.9378114   -0.0954976 
C    -1.8385770   -1.0157790   -2.9847961 
C    -3.5394372   -0.8265618   -0.1696389 
C    -0.9881608   -1.6243873   -3.9757922 
C    -4.3363113   -0.0860701    0.7747744 
C     0.5864436   -2.2600527   -2.2238190 
C    -2.6551396    1.6834687    0.7954744 
C     0.2387493   -2.2159837   -3.5589087 
C    -3.8740102    1.1846726    1.2154310 
C    -3.0421417   -0.3858966   -3.4212654 
C    -4.0113342   -2.0982568   -0.6138034 
C     1.0365198   -3.4108739    0.7958308 
C    -0.9982316   -1.7132665    1.7283135 
C    -0.0341734    3.1864177    0.2850201 
C    -0.1090800    1.7198057   -2.2913916 
C    -1.3787999   -1.5955658   -5.3450294 
C    -5.5578286   -0.6496265    1.2452488 
C    -3.4002233   -0.3832928   -4.7602071 
C    -5.2019260   -2.6195289   -0.1352865 
C    -2.5660685   -0.9947989   -5.7315484 
C    -5.9808316   -1.8929376    0.8048996 
C     1.7336470   -3.6217610    2.0038511 
C    -1.1149353   -0.6664283    2.6575875 
C     0.1680410    3.2563282    1.6800199 
C     0.9295805    1.1677675   -3.0617831 
C     0.7496541   -4.5230488   -0.0229736 
C    -1.8979003   -2.7984584    1.7993085 
C    -0.1763292    4.3840119   -0.4394472 
C    -1.1860587    2.3517321   -2.9493980 
C     2.1525425   -4.9058572    2.3657231 
C    -2.1343543   -0.6845272    3.6184921 
C     0.1793606    4.4914064    2.3377320 
C     0.9013559    1.2574446   -4.4586753 
C     1.1815094   -5.8031428    0.3474675 
C    -2.9146969   -2.8038996    2.7555775 
C    -0.1463967    5.6149772    0.2258898 
C    -1.2022662    2.4414284   -4.3433000 
C     1.8924999   -6.0207266    1.5439625 
C    -3.0572973   -1.7449983    3.6783162 
C     0.0196393    5.6949146    1.6229804 
C    -0.1626076    1.8933022   -5.1251490 
C     2.3290068   -7.4080072    1.9545326 
C    -4.1756768   -1.7610367    4.6937746 
C     0.0712423    7.0357692    2.3170377 
C    -0.2230926    1.9575421   -6.6325957 
H     1.5385268   -2.7122131   -1.9273537 
H    -2.3168341    2.6570381    1.1591567 
H     0.9093352   -2.6389239   -4.3147040 
H    -4.4926047    1.7643336    1.9091065 
H    -3.6887614    0.0967310   -2.6835569 
H    -3.4110917   -2.6660970   -1.3309237 
H    -0.7228006   -2.0605172   -6.0890122 
H    -6.1559845   -0.0818373    1.9662558 
H    -4.3331525    0.0976847   -5.0718452 
H    -5.5462692   -3.5995875   -0.4812922 
H    -2.8619986   -0.9882649   -6.7857616 
H    -6.9193203   -2.3177551    1.1759108 
H     1.9360464   -2.7826236    2.6763663 
H    -0.4095906    0.1711480    2.6172953 
H     0.3132470    2.3337485    2.2551261 
H     1.7448428    0.6320296   -2.5651903 
H     0.1753178   -4.4033511   -0.9463986 
H    -1.8064624   -3.6347562    1.0986006 
H    -0.2965297    4.3613269   -1.5261660 
H    -2.0269227    2.7477892   -2.3694531 
H     2.6972289   -5.0390998    3.3065748 
H    -2.2194696    0.1464966    4.3274342 
H     0.3250270    4.5224403    3.4234105 
H     1.7105988    0.8053071   -5.0427766 
H     0.9519235   -6.6521715   -0.3065674 
H    -3.6201531   -3.6414896    2.7821814 
H    -0.2483663    6.5366836   -0.3579481 
H    -2.0503389    2.9260674   -4.8395611 
H     1.5766376   -7.8677203    2.6233038 
H     2.4457338   -8.0717064    1.0818873 
H     3.2843159   -7.3829793    2.5057165 
H    -4.0885614   -2.6341794    5.3656514 
H    -4.1753476   -0.8505727    5.3148145 
H    -5.1558940   -1.8356904    4.1890960 
H    -0.7498839    7.6923781    1.9807897 
H     0.0067559    6.9312857    3.4122553 
H     1.0187911    7.5566872    2.0823321 
H    -1.0491133    1.3257418   -7.0080744 
H    -0.4142495    2.9875895   -6.9816104 
H     0.7127736    1.6025597   -7.0935571 
