119
Energy =
C     2.7766845    0.0381361    2.4998580 
C     3.3474632    1.0381573    1.6807230 
C     2.6472944    2.2425677    1.3839449 
H     4.2944414    0.8292292    1.1693300 
Pd    1.4749927    0.4490796    0.6557278 
P    -0.2667537    1.6372255   -0.4356479 
P     0.3989701   -1.5970761    0.3565468 
H     1.9262095    0.3402365    3.1309301 
H     1.9101016    2.5881566    2.1214130 
C     4.6254835   -3.5692486    3.9208398 
C     3.3488746   -3.1922496    4.3636704 
C     2.7566116   -2.0249920    3.8723466 
C     3.4213305   -1.2110493    2.9248886 
C     4.6998159   -1.6165198    2.4737890 
C     5.2958550   -2.7783757    2.9724618 
H     5.0981382   -4.4764313    4.3112065 
H     2.8148766   -3.8084189    5.0936869 
H     1.7650906   -1.7262200    4.2303369 
H     5.2421701   -1.0120033    1.7397640 
H     6.2922061   -3.0689101    2.6235895 
C     4.1901665    5.4253312   -1.0656544 
C     3.0649593    5.6248726   -0.2514592 
C     2.5641033    4.5745098    0.5243531 
C     3.1741702    3.2991385    0.5034013 
C     4.2893384    3.1060931   -0.3461936 
C     4.7958686    4.1593672   -1.1136270 
H     4.5920779    6.2506287   -1.6625058 
H     2.5764463    6.6038893   -0.2193689 
H     1.6875235    4.7370365    1.1611525 
H     4.7716636    2.1249729   -0.4078182 
H     5.6685900    3.9929602   -1.7538502 
C    -2.1422851   -0.3865559   -1.1359429 
C    -2.2887624   -0.6563635    0.3324104 
C    -1.3566975    0.6849906   -1.5967321 
C    -1.2480632   -1.2176227    1.0845077 
C    -2.8255489   -1.2270636   -2.0792967 
C    -3.5111585   -0.2653452    0.9904888 
C    -2.7008837   -0.9616311   -3.4895323 
C    -3.6122580   -0.3736077    2.4235150 
C    -1.2876551    0.9642622   -2.9931972 
C    -1.3495438   -1.2798383    2.5104365 
C    -1.9435658    0.1658952   -3.9106809 
C    -2.4957522   -0.8665211    3.1582437 
C    -3.5893426   -2.3588265   -1.6633238 
C    -4.6307513    0.2484141    0.2703841 
C    -1.4264490    2.3076039    0.8155465 
C     0.3193479    3.0501394   -1.4415806 
C     0.2261729   -2.2071117   -1.3643490 
C     1.0184613   -3.1189529    1.1678453 
C    -3.3284416   -1.8390558   -4.4207852 
C    -4.8140842    0.0317933    3.0716552 
C    -4.1856039   -3.1940230   -2.5935908 
C    -5.7928958    0.6191755    0.9284707 
C    -4.0523141   -2.9362757   -3.9841523 
C    -5.8878627    0.5132506    2.3401322 
C    -1.1134251    2.2536744    2.1860029 
C     1.4609668    2.8461216   -2.2471263 
C     0.8541625   -1.5350705   -2.4262134 
C     2.3558644   -3.4638034    0.8761475 
C    -2.6728957    2.8437846    0.4246057 
C    -0.3161731    4.3046930   -1.4702695 
C    -0.4728816   -3.4049727   -1.6250056 
C     0.2321175   -4.0158571    1.9146843 
C    -2.0185585    2.7311250    3.1420248 
C     1.9257293    3.8591259   -3.0879725 
C     0.7564333   -2.0337866   -3.7319810 
C     2.8899056   -4.6715128    1.3260795 
C    -3.5660801    3.3244100    1.3848733 
C     0.1656390    5.3186660   -2.3092744 
C    -0.5711923   -3.8886514   -2.9306774 
C     0.7857615   -5.2184850    2.3780266 
C    -3.2596141    3.2741748    2.7615196 
C     1.2854752    5.1156908   -3.1366951 
C     0.0351005   -3.2096210   -4.0096124 
C     2.1195840   -5.5673651    2.0977581 
C    -4.2491206    3.7783725    3.7850403 
C     1.8176228    6.2119545   -4.0285279 
C    -0.0959740   -3.7404079   -5.4179156 
C     2.7278158   -6.8464778    2.6221676 
H    -0.6984908    1.8156713   -3.3438048 
H    -0.5005616   -1.6508621    3.0932592 
H    -1.8711543    0.3887607   -4.9806511 
H    -2.5581228   -0.9157050    4.2506798 
H    -3.6879605   -2.5691196   -0.5942563 
H    -4.5660410    0.3466480   -0.8165230 
H    -3.2239049   -1.6319840   -5.4914068 
H    -4.8762473   -0.0489212    4.1623885 
H    -4.7621654   -4.0616985   -2.2565314 
H    -6.6433322    1.0017633    0.3546775 
H    -4.5276201   -3.6056633   -4.7086591 
H    -6.8103042    0.8125523    2.8484786 
H    -0.1703831    1.7997672    2.5082565 
H     1.9911388    1.8871620   -2.2041557 
H     1.4050006   -0.6078970   -2.2304774 
H     2.9757976   -2.7821053    0.2825647 
H    -2.9584027    2.8514543   -0.6329161 
H    -1.1828520    4.5020371   -0.8330059 
H    -0.9496415   -3.9523913   -0.8053919 
H    -0.8184977   -3.7942530    2.1263647 
H    -1.7628270    2.6622055    4.2051431 
H     2.8159891    3.6819063   -3.7008410 
H     1.2393178   -1.4901897   -4.5515888 
H     3.9296026   -4.9195459    1.0878620 
H    -4.5347109    3.7217866    1.0627066 
H    -0.3390209    6.2913276   -2.3153523 
H    -1.1387794   -4.8060811   -3.1205984 
H     0.1599765   -5.9040081    2.9608050 
H    -3.9178276    3.5602065    4.8131897 
H    -4.3855160    4.8717117    3.6951516 
H    -5.2382063    3.3113207    3.6328216 
H     1.8645697    5.8801930   -5.0812039 
H     1.1916505    7.1174379   -3.9798965 
H     2.8455489    6.4879970   -3.7298021 
H     0.3946996   -4.7259817   -5.5164114 
H    -1.1594175   -3.8780292   -5.6837899 
H     0.3593341   -3.0582465   -6.1541613 
H     3.2793795   -7.3817690    1.8296549 
H     3.4523624   -6.6251660    3.4287269 
H     1.9625303   -7.5248972    3.0327273 
