119
Energy =
C     3.1295457    1.9544337    0.3312111 
C     3.4804673    0.9639352    1.2943250 
C     3.6949725   -0.3829496    0.9256844 
H     3.4248681    1.2124080    2.3621090 
Pd    1.6061320    0.3167980    0.3030796 
P     0.2395292   -1.5596144    0.6425080 
P     0.0112999    1.4407002   -0.9986043 
H     3.5217937    1.8296391   -0.6875966 
H     3.8781354   -0.5966499   -0.1397967 
C     1.9711255    5.9903780    1.2866651 
C     1.8108520    4.9748170    2.2448960 
C     2.1865844    3.6618807    1.9487754 
C     2.7331374    3.3310128    0.6859675 
C     2.8898384    4.3628927   -0.2654335 
C     2.5135591    5.6783672    0.0321465 
H     1.6732466    7.0178960    1.5194574 
H     1.3833463    5.2092036    3.2254104 
H     2.0360352    2.8795819    2.7011490 
H     3.3068056    4.1243053   -1.2497542 
H     2.6413030    6.4609439   -0.7230290 
C     4.8484759   -3.5608693    3.5772048 
C     4.3084234   -3.8466922    2.3129114 
C     3.9375487   -2.8059757    1.4570771 
C     4.0826300   -1.4565005    1.8539516 
C     4.6285712   -1.1831880    3.1293234 
C     5.0120143   -2.2263947    3.9792793 
H     5.1464319   -4.3764560    4.2441832 
H     4.1731989   -4.8854879    1.9960473 
H     3.5060084   -3.0324897    0.4753472 
H     4.7860667   -0.1473631    3.4470160 
H     5.4486524   -1.9972081    4.9569493 
C    -2.3064786   -0.4621916   -0.0234006 
C    -1.9290005   -0.5715232   -1.4714773 
C    -1.4760075   -0.9494390    0.9998088 
C    -0.9697785    0.2739541   -2.0530793 
C    -3.5714946    0.1419939    0.3100066 
C    -2.5906443   -1.5625066   -2.2796518 
C    -3.9495793    0.2850564    1.6923723 
C    -2.2232054   -1.7120619   -3.6640440 
C    -1.8822948   -0.8252297    2.3622688 
C    -0.6554810    0.1432143   -3.4385504 
C    -3.0765126   -0.2168882    2.6970318 
C    -1.2549834   -0.8286287   -4.2156471 
C    -4.4683394    0.6266843   -0.6897139 
C    -3.5882761   -2.4340160   -1.7460965 
C     0.1195665   -2.7460869   -0.7398686 
C     0.7094774   -2.5329953    2.1257685 
C    -1.2011646    2.4223645   -0.0564313 
C     0.8285253    2.5727990   -2.1929229 
C    -5.1866295    0.9134727    2.0176698 
C    -2.8435891   -2.7293564   -4.4460259 
C    -5.6709978    1.2197778   -0.3421085 
C    -4.1800066   -3.4071799   -2.5344414 
C    -6.0337497    1.3705921    1.0218976 
C    -3.8023461   -3.5628289   -3.8944433 
C    -0.8602034   -3.7618051   -0.7701884 
C     1.2073980   -1.8285681    3.2437604 
C    -1.0600220    2.5263742    1.3397992 
C     1.9445625    2.0882842   -2.9132900 
C     1.0236651   -2.6390811   -1.8132192 
C     0.6335738   -3.9367007    2.1934208 
C    -2.3099355    3.0279839   -0.6831580 
C     0.4332049    3.9078331   -2.3851818 
C    -0.9213768   -4.6480739   -1.8481932 
C     1.5856877   -2.5079431    4.4036338 
C    -2.0117916    3.2188621    2.0947361 
C     2.6216249    2.9093204   -3.8188740 
C     0.9471519   -3.5261469   -2.8946011 
C     1.0251512   -4.6099231    3.3576526 
C    -3.2501071    3.7256605    0.0805068 
C     1.1216678    4.7261951   -3.2931359 
C    -0.0253059   -4.5434662   -2.9332348 
C     1.5042503   -3.9135450    4.4829914 
C    -3.1240488    3.8282446    1.4814511 
C     2.2216899    4.2483073   -4.0277597 
C    -0.1321431   -5.4891819   -4.1063169 
C     1.9283271   -4.6390651    5.7376321 
C    -4.1532696    4.5760754    2.2955947 
C     2.9750240    5.1353308   -4.9914119 
H    -1.2414847   -1.2216684    3.1543087 
H     0.0662657    0.8234949   -3.8968301 
H    -3.3677748   -0.1262455    3.7491289 
H    -0.9929842   -0.9202738   -5.2752500 
H    -4.1939571    0.5304214   -1.7436556 
H    -3.8794876   -2.3319814   -0.6971782 
H    -5.4587298    1.0228144    3.0731503 
H    -2.5510786   -2.8364239   -5.4963088 
H    -6.3445232    1.5821587   -1.1256672 
H    -4.9429375   -4.0649263   -2.1051576 
H    -6.9850081    1.8456051    1.2833714 
H    -4.2760478   -4.3380077   -4.5057200 
H    -1.5966190   -3.8379279    0.0367138 
H     1.3156885   -0.7378840    3.1926100 
H    -0.2155416    2.0333581    1.8326458 
H     2.2852946    1.0563404   -2.7599683 
H     1.7747872   -1.8399240   -1.8088999 
H     0.2899970   -4.5160328    1.3322473 
H    -2.4572157    2.9232469   -1.7636270 
H    -0.3991394    4.3259951   -1.8126249 
H    -1.6987237   -5.4195590   -1.8631407 
H     1.9813063   -1.9409319    5.2530672 
H    -1.8993191    3.2710640    3.1833296 
H     3.4798904    2.5090633   -4.3705772 
H     1.6479180   -3.4180768   -3.7298177 
H     0.9691012   -5.7039914    3.3848670 
H    -4.1177551    4.1731399   -0.4161610 
H     0.7986683    5.7652021   -3.4219874 
H    -1.1274048   -5.4056296   -4.5790694 
H     0.6323050   -5.2780140   -4.8714465 
H    -0.0129112   -6.5383942   -3.7811454 
H     1.1417424   -4.5718589    6.5126112 
H     2.1168046   -5.7077913    5.5445687 
H     2.8446561   -4.1934526    6.1619432 
H    -3.9280088    5.6593387    2.3089649 
H    -5.1633279    4.4532767    1.8698326 
H    -4.1713193    4.2270697    3.3413420 
H     3.0935143    4.6445013   -5.9734991 
H     2.4597682    6.0970709   -5.1449099 
H     3.9912068    5.3505314   -4.6120571 
