119
Energy =
C     3.0001754    2.0025871    0.8466127 
C     3.5476892    0.7500287    1.2505180 
C     3.7952157   -0.2826244    0.3182702 
H     3.6247178    0.5189458    2.3209239 
Pd    1.6033991    0.3538091    0.2630619 
P     0.4294611   -1.6451212   -0.0917449 
P    -0.2254435    1.7131531   -0.2943574 
H     3.2542759    2.3647725   -0.1590296 
H     3.8428698   -0.0062045   -0.7476204 
C     1.6880233    5.0880226    3.5483246 
C     2.0645783    5.3985715    2.2341417 
C     2.4943932    4.3871945    1.3663870 
C     2.5578370    3.0429539    1.7948703 
C     2.1777259    2.7454071    3.1253113 
C     1.7488634    3.7553799    3.9905581 
H     1.3480707    5.8772968    4.2267072 
H     2.0204862    6.4331216    1.8781235 
H     2.7810847    4.6356463    0.3389814 
H     2.1991911    1.7093048    3.4814888 
H     1.4528297    3.5039038    5.0143911 
C     5.5092951   -4.1200727    1.2101697 
C     5.6513621   -3.0659012    2.1254865 
C     5.0867132   -1.8151759    1.8516828 
C     4.3768878   -1.5931718    0.6494079 
C     4.2530865   -2.6612884   -0.2688343 
C     4.8055433   -3.9137492    0.0126941 
H     5.9520768   -5.0981218    1.4248536 
H     6.2134365   -3.2162537    3.0531076 
H     5.2282631   -0.9952694    2.5633456 
H     3.6954048   -2.5061244   -1.1995529 
H     4.6862574   -4.7338226   -0.7022190 
C    -2.2525369   -0.6814575   -0.0060511 
C    -2.0600562   -0.1468026   -1.3945899 
C    -1.2621132   -1.4388360    0.6413908 
C    -1.2469258    0.9696179   -1.6507497 
C    -3.5020755   -0.4194039    0.6616908 
C    -2.7456436   -0.7951235   -2.4818986 
C    -3.7024694   -0.8920235    2.0072554 
C    -2.5446290   -0.3272472   -3.8289976 
C    -1.4910983   -1.9230961    1.9642672 
C    -1.1010398    1.4496984   -2.9862645 
C    -2.6698897   -1.6472255    2.6294715 
C    -1.7201777    0.8114586   -4.0432954 
C    -4.5557828    0.3158723    0.0391139 
C    -3.6035805   -1.9180321   -2.2760519 
C     0.2145490   -2.1719291   -1.8264352 
C     1.1572054   -3.0736189    0.8021759 
C    -1.3720332    2.0762872    1.0747160 
C     0.3473942    3.3230604   -0.9701854 
C    -4.9277393   -0.6021540    2.6748207 
C    -3.1817308   -1.0072280   -4.9074546 
C    -5.7414477    0.5691006    0.7091075 
C    -4.2175403   -2.5511110   -3.3442533 
C    -5.9304312    0.1114605    2.0395046 
C    -4.0015518   -2.0985593   -4.6727910 
C     0.9599025   -1.5288420   -2.8323602 
C     1.7594369   -2.8276472    2.0559185 
C    -1.0504429    1.6348185    2.3707904 
C     1.3955153    3.3127163   -1.9185019 
C    -0.6857120   -3.1958111   -2.1921286 
C     1.1722003   -4.3853705    0.2938159 
C    -2.5953369    2.7456938    0.8586713 
C    -0.1624206    4.5628179   -0.5461212 
C     0.8065808   -1.8998338   -4.1742333 
C     2.3296871   -3.8697085    2.7892651 
C    -1.9354297    1.8580993    3.4313813 
C     1.8938547    4.5073316   -2.4462418 
C    -0.8231577   -3.5660085   -3.5320526 
C     1.7551351   -5.4230667    1.0332200 
C    -3.4676748    2.9697082    1.9266033 
C     0.3467982    5.7566858   -1.0775292 
C    -0.0862023   -2.9221116   -4.5484735 
C     2.3407264   -5.1894390    2.2909293 
C    -3.1581778    2.5261762    3.2301244 
C     1.3757335    5.7561781   -2.0372567 
C    -0.2699589   -3.3192771   -5.9942615 
C     2.9904740   -6.3002489    3.0808661 
C    -4.1241621    2.7614600    4.3671832 
C     1.9073357    7.0432472   -2.6232893 
H    -0.7243126   -2.5259462    2.4580444 
H    -0.4939644    2.3373036   -3.1793785 
H    -2.8243201   -2.0222674    3.6470156 
H    -1.5864624    1.1874143   -5.0633875 
H    -4.4169871    0.6862210   -0.9801301 
H    -3.7685361   -2.2832493   -1.2587538 
H    -5.0647883   -0.9610611    3.7006966 
H    -3.0146729   -0.6462494   -5.9281490 
H    -6.5373437    1.1324893    0.2110880 
H    -4.8718723   -3.4103544   -3.1640156 
H    -6.8710748    0.3211958    2.5592877 
H    -4.4900971   -2.6104769   -5.5083939 
H     1.6444434   -0.7160461   -2.5608485 
H     1.7926042   -1.8036036    2.4488166 
H    -0.1142820    1.0919471    2.5373620 
H     1.8286243    2.3572467   -2.2409616 
H    -1.3050313   -3.6801515   -1.4299344 
H     0.7478183   -4.6047817   -0.6895622 
H    -2.8784923    3.0626310   -0.1509858 
H    -0.9408697    4.6069613    0.2203770 
H     1.3811453   -1.3761792   -4.9462450 
H     2.7991413   -3.6528871    3.7548942 
H    -1.6780885    1.4928048    4.4316737 
H     2.7057392    4.4736362   -3.1816274 
H    -1.5394833   -4.3501433   -3.7997277 
H     1.7627311   -6.4361472    0.6156882 
H    -4.4221660    3.4744721    1.7419284 
H    -0.0591626    6.7109656   -0.7237258 
H     0.0767805   -4.3548945   -6.1652339 
H    -1.3376837   -3.2821299   -6.2745584 
H     0.2903442   -2.6562910   -6.6731943 
H     2.5153699   -6.4120319    4.0721422 
H     2.9233190   -7.2669487    2.5564489 
H     4.0586555   -6.0766167    3.2565835 
H    -3.8149145    2.2269517    5.2800365 
H    -4.1914546    3.8382271    4.6092474 
H    -5.1389250    2.4228734    4.0937566 
H     1.6483816    7.9117583   -1.9960970 
H     3.0043029    7.0095394   -2.7387435 
H     1.4784531    7.2163447   -3.6283097 
