119
Energy =
C     3.3352697    0.0664511    1.7223178 
C     3.4348331    1.2892934    1.0206403 
C     2.5488490    2.3717054    1.3292155 
H     4.0718385    1.3454069    0.1290424 
Pd    1.3670123    0.6088325    0.7040073 
P    -0.7694972    1.5473210    0.6017623 
P     0.7515418   -1.4375257   -0.2328169 
H     2.8058198    0.0939772    2.6883502 
H     2.2307921    2.4802878    2.3752183 
C     5.6056624   -3.5408909    1.1925333 
C     4.5625815   -3.4786383    2.1290382 
C     3.8324663   -2.2961751    2.2833602 
C     4.1226573   -1.1531124    1.5007303 
C     5.1692540   -1.2350126    0.5541969 
C     5.9041297   -2.4151345    0.4080596 
H     6.1863835   -4.4616058    1.0750239 
H     4.3218815   -4.3512286    2.7448985 
H     3.0207637   -2.2512904    3.0174420 
H     5.4243025   -0.3671780   -0.0608844 
H     6.7197123   -2.4562734   -0.3209125 
C     2.0316331    5.9191967   -1.0569091 
C     1.6499544    5.9005368    0.2921947 
C     1.8402129    4.7476099    1.0635212 
C     2.4138297    3.5852888    0.5011849 
C     2.7959758    3.6197970   -0.8618620 
C     2.6089766    4.7727917   -1.6293619 
H     1.8813404    6.8195304   -1.6614104 
H     1.1979177    6.7871727    0.7489693 
H     1.5328878    4.7381837    2.1147940 
H     3.2250216    2.7276513   -1.3323887 
H     2.9079252    4.7783259   -2.6829455 
C    -2.2961485   -0.8238488    0.2840970 
C    -1.8594935   -0.8539206   -1.1516876 
C    -1.9816514    0.2487465    1.1365973 
C    -0.5530154   -1.2057713   -1.5289487 
C    -3.1082694   -1.9096340    0.7702544 
C    -2.8344165   -0.5348692   -2.1620076 
C    -3.5602931   -1.9050063    2.1378837 
C    -2.4447746   -0.5284728   -3.5485450 
C    -2.4673742    0.2509481    2.4785646 
C    -0.2000881   -1.2426985   -2.9108002 
C    -3.2236138   -0.7981779    2.9655974 
C    -1.1150574   -0.9010439   -3.8881398 
C    -3.4827133   -3.0074664   -0.0624206 
C    -4.1831320   -0.1971074   -1.8360697 
C    -0.9327192    2.9267324    1.8041132 
C    -1.3296906    2.1864500   -1.0090458 
C     2.1979116   -2.1112287   -1.1364202 
C     0.1262352   -2.7221116    0.8985097 
C    -4.3483708   -2.9912405    2.6177560 
C    -3.4007091   -0.1656343   -4.5414660 
C    -4.2601468   -4.0427730    0.4297711 
C    -5.0922426    0.1398613   -2.8252725 
C    -4.6957570   -4.0389964    1.7811316 
C    -4.6992517    0.1630275   -4.1895536 
C    -1.4639622    4.1816745    1.4575749 
C    -0.4058044    2.2801628   -2.0652045 
C     2.9214827   -1.2220415   -1.9621835 
C     0.0907440   -2.4506739    2.2792099 
C    -0.4110020    2.7519156    3.1069037 
C    -2.6701227    2.5698408   -1.2284107 
C     2.6343212   -3.4445484   -1.0336400 
C    -0.3950492   -3.9441999    0.4250573 
C    -1.4945559    5.2223972    2.3979773 
C    -0.8172760    2.7404372   -3.3215136 
C     4.0143440   -1.6735123   -2.7098199 
C    -0.4567478   -3.3821071    3.1687006 
C    -0.4532618    3.7913586    4.0394195 
C    -3.0677514    3.0331855   -2.4846997 
C     3.7413459   -3.8806868   -1.7714691 
C    -0.9303768   -4.8714663    1.3230550 
C    -0.9972911    5.0511976    3.7023691 
C    -2.1525444    3.1199846   -3.5557207 
C     4.4425430   -3.0136365   -2.6323774 
C    -0.9795405   -4.6060953    2.7081789 
C    -1.0195387    6.1746529    4.7123939 
C    -2.6108306    3.5953676   -4.9143528 
C     5.6454419   -3.5000743   -3.4060050 
C    -1.6089249   -5.6000496    3.6552896 
H    -2.2516121    1.1010236    3.1305544 
H     0.8075612   -1.5470765   -3.2038887 
H    -3.5865438   -0.7761252    3.9989820 
H    -0.8221357   -0.9252112   -4.9433870 
H    -3.1439537   -3.0263361   -1.1018538 
H    -4.4951147   -0.1996646   -0.7881562 
H    -4.6828099   -2.9775689    3.6608589 
H    -3.0899817   -0.1577607   -5.5919115 
H    -4.5379864   -4.8734825   -0.2271422 
H    -6.1217746    0.3948945   -2.5534482 
H    -5.3106140   -4.8633563    2.1572268 
H    -5.4271574    0.4345046   -4.9612131 
H    -1.8387297    4.3624289    0.4462765 
H     0.6339604    1.9780681   -1.9007416 
H     2.6166151   -0.1694495   -2.0258623 
H     0.4642813   -1.4885750    2.6485156 
H     0.0408803    1.7926350    3.3887372 
H    -3.4064346    2.4809164   -0.4223782 
H     2.1184542   -4.1445077   -0.3700926 
H    -0.4070255   -4.1571696   -0.6494977 
H    -1.9088011    6.1929372    2.1029701 
H    -0.0890586    2.7959922   -4.1380986 
H     4.5512532   -0.9709839   -3.3573302 
H    -0.4947273   -3.1479460    4.2383077 
H    -0.0486329    3.6287871    5.0449189 
H    -4.1150185    3.3103894   -2.6466976 
H     4.0686851   -4.9217333   -1.6724963 
H    -1.3431431   -5.8114804    0.9406655 
H    -1.5368060    7.0642153    4.3186028 
H    -1.5293199    5.8613419    5.6409520 
H     0.0079364    6.4719688    4.9917033 
H    -1.7887429    3.5849722   -5.6481562 
H    -3.4230030    2.9505171   -5.2956448 
H    -3.0096082    4.6245171   -4.8596634 
H     5.9251993   -2.7982478   -4.2084440 
H     6.5186462   -3.6095229   -2.7350615 
H     5.4587684   -4.4896182   -3.8575021 
H    -1.1885165   -6.6108778    3.5108357 
H    -1.4612571   -5.3099407    4.7080950 
H    -2.6965218   -5.6676163    3.4688240 
