119
Energy =
C     3.2777515    1.6375640   -0.7396741 
C     3.8300417    0.6537675    0.1115244 
C     3.6604736   -0.7352191   -0.1533596 
H     4.2930655    0.9668198    1.0546434 
Pd    1.6494639    0.2690138    0.1163360 
P     0.3054117   -1.6864237    0.0211867 
P    -0.2145259    1.6688585    0.0973523 
H     2.9832274    1.3108743   -1.7493060 
H     3.5150450   -1.0306561   -1.2013925 
C     3.8074809    5.8947840   -0.5229057 
C     4.2860555    5.0864033    0.5219795 
C     4.0975696    3.7018482    0.4865596 
C     3.4361982    3.0914864   -0.6054211 
C     2.9512818    3.9219950   -1.6432947 
C     3.1317500    5.3078364   -1.6030428 
H     3.9606663    6.9785161   -0.4924673 
H     4.8132680    5.5401541    1.3675542 
H     4.4828338    3.0902218    1.3087335 
H     2.4345306    3.4655464   -2.4948827 
H     2.7458975    5.9312836   -2.4155772 
C     5.2588904   -3.9062572    2.2756357 
C     5.2004767   -2.6016377    2.7916986 
C     4.6576350   -1.5646686    2.0269509 
C     4.1762970   -1.8047307    0.7180198 
C     4.2244243   -3.1277981    0.2214791 
C     4.7578625   -4.1666080    0.9910934 
H     5.6904783   -4.7155645    2.8736746 
H     5.5807462   -2.3921904    3.7970330 
H     4.6133930   -0.5575355    2.4542690 
H     3.8379643   -3.3360417   -0.7823732 
H     4.7846654   -5.1832783    0.5863261 
C    -2.3576067   -0.6824587   -0.0574639 
C    -1.9901385   -0.0204923   -1.3523225 
C    -1.4548613   -1.5439395    0.5909863 
C    -1.0810702    1.0446532   -1.4012189 
C    -3.6520632   -0.4425618    0.5164801 
C    -2.5386694   -0.5444450   -2.5789141 
C    -4.0138053   -1.0903692    1.7509738 
C    -2.0758302   -0.0275375   -3.8413932 
C    -1.8500708   -2.2172186    1.7840205 
C    -0.6018573    1.5182183   -2.6635940 
C    -3.0941913   -1.9985036    2.3440621 
C    -1.0827681    0.9938708   -3.8459981 
C    -4.5805731    0.4660362   -0.0746854 
C    -3.5194838   -1.5806496   -2.5908070 
C     0.1679233   -2.2545762   -1.7160525 
C     0.9695218   -3.0854696    0.9974927 
C    -1.3174970    1.6128935    1.5616732 
C    -0.0355795    3.4831891   -0.0886143 
C    -5.2740928   -0.7962897    2.3475328 
C    -2.6053133   -0.5614855   -5.0510355 
C    -5.7969765    0.7328291    0.5315741 
C    -4.0274485   -2.0682273   -3.7846686 
C    -6.1472008    0.1005480    1.7544192 
C    -3.5674092   -1.5583214   -5.0261774 
C     0.9645377   -1.6813183   -2.7240020 
C     1.4830510   -2.7967288    2.2804693 
C    -2.4975325    2.3863482    1.5900706 
C     0.7643093    4.1182167    0.8859108 
C    -0.7721499   -3.2454476   -2.0749910 
C     0.9672506   -4.4196145    0.5515602 
C    -0.9585536    0.8684509    2.6977474 
C    -0.7386887    4.2768202   -1.0139720 
C     0.8332631   -2.0945254   -4.0558014 
C     1.9432971   -3.8232148    3.1075602 
C    -3.3155159    2.3746737    2.7210089 
C     0.8594547    5.5094007    0.9268415 
C    -0.8907625   -3.6561425   -3.4046393 
C     1.4421285   -5.4410042    1.3852742 
C    -1.7826287    0.8702945    3.8309837 
C    -0.6199539    5.6739157   -0.9750644 
C    -0.0942984   -3.0873663   -4.4214987 
C     1.9304815   -5.1665570    2.6762093 
C    -2.9779322    1.6120315    3.8599876 
C     0.1798767    6.3150679   -0.0114898 
C    -0.2578879   -3.5269922   -5.8570799 
C     2.4662352   -6.2622124    3.5665762 
C    -3.8846380    1.5999069    5.0682686 
C     0.3355591    7.8171308    0.0119221 
H    -1.1548551   -2.9077745    2.2685335 
H     0.1650046    2.2988507   -2.6879190 
H    -3.3775053   -2.5161192    3.2668494 
H    -0.7038408    1.3623968   -4.8053351 
H    -4.3131356    0.9638945   -1.0114101 
H    -3.8735554   -1.9903903   -1.6411230 
H    -5.5386016   -1.2903715    3.2887807 
H    -2.2407057   -0.1647445   -6.0048027 
H    -6.4940010    1.4384344    0.0677392 
H    -4.7869742   -2.8567588   -3.7699932 
H    -7.1115689    0.3215655    2.2235098 
H    -3.9745793   -1.9539750   -5.9624312 
H     1.6668449   -0.8806461   -2.4693280 
H     1.5281977   -1.7566453    2.6253254 
H    -2.7800909    2.9898105    0.7212751 
H     1.3053060    3.5138693    1.6229554 
H    -1.4366321   -3.6707661   -1.3151319 
H     0.6041288   -4.6690585   -0.4494964 
H    -0.0393838    0.2711629    2.6864248 
H    -1.3957505    3.8166608   -1.7584238 
H     1.4514942   -1.6229029   -4.8276610 
H     2.3415759   -3.5771646    4.0977397 
H    -4.2411209    2.9605656    2.7186184 
H     1.4844899    5.9815758    1.6921405 
H    -1.6359324   -4.4155829   -3.6653466 
H     1.4361152   -6.4742544    1.0203411 
H    -1.4963552    0.2729365    4.7036109 
H    -1.1724235    6.2766024   -1.7048913 
H    -0.0185719   -4.5998601   -5.9711238 
H    -1.3029401   -3.3883913   -6.1875212 
H     0.3970380   -2.9562069   -6.5350159 
H     2.0109031   -6.2184179    4.5716545 
H     2.2769209   -7.2616586    3.1430076 
H     3.5582125   -6.1491425    3.7000307 
H    -3.9569676    2.6066541    5.5188139 
H    -4.9080505    1.2968734    4.7828045 
H    -3.5216044    0.9051847    5.8430441 
H     0.2332784    8.2145402    1.0367295 
H     1.3415054    8.1046046   -0.3484773 
H    -0.4080289    8.3154590   -0.6309715 
