119
Energy =
C     3.4290273    1.1578753   -0.9782263 
C     3.8158695    0.7366679    0.3152333 
C     3.7654169   -0.6421935    0.6788236 
H     4.0370704    1.4836261    1.0879348 
Pd    1.7267984    0.0918999    0.1366100 
P     0.2699918   -1.5995138    0.8553979 
P    -0.0251991    1.3767916   -0.8029908 
H     3.4391251    0.3901618   -1.7661284 
H     3.8943913   -1.3786304   -0.1283454 
C     3.5090112    5.1555421   -2.5524257 
C     3.7048393    4.9484716   -1.1767573 
C     3.6573107    3.6588305   -0.6417568 
C     3.4259878    2.5404341   -1.4764116 
C     3.2195778    2.7658868   -2.8577039 
C     3.2597440    4.0590852   -3.3904105 
H     3.5486196    6.1683317   -2.9665369 
H     3.8951894    5.8003349   -0.5162863 
H     3.8068764    3.5225514    0.4333169 
H     3.0319396    1.9137929   -3.5187938 
H     3.1033237    4.2096326   -4.4635267 
C     4.8409163   -2.0772389    4.5909509 
C     4.1888072   -0.8384311    4.4566786 
C     3.8350726   -0.3632163    3.1902276 
C     4.1201719   -1.1198596    2.0289130 
C     4.7629539   -2.3675069    2.1798462 
C     5.1281304   -2.8372425    3.4481520 
H     5.1187098   -2.4466850    5.5834493 
H     3.9510946   -0.2457168    5.3461745 
H     3.2978051    0.5878749    3.0990488 
H     4.9780953   -2.9721027    1.2922215 
H     5.6312195   -3.8050187    3.5438199 
C    -1.7121978   -1.2048168   -1.1737845 
C    -2.3478351   -0.1597186   -0.3071093 
C    -0.5720944   -1.9070341   -0.7602076 
C    -1.7358227    1.0947539   -0.1457875 
C    -2.2532302   -1.4333168   -2.4912230 
C    -3.5959926   -0.4354834    0.3449322 
C    -1.5825833   -2.3399358   -3.3877922 
C    -4.2094342    0.5809074    1.1609682 
C     0.1195607   -2.7496305   -1.6883764 
C    -2.3836395    2.1079146    0.6193628 
C    -0.3749585   -2.9621326   -2.9594657 
C    -3.5867148    1.8562990    1.2520103 
C    -3.4361082   -0.7801623   -2.9496292 
C    -4.2294232   -1.7109544    0.2502136 
C     0.8115141   -3.2499025    1.4593969 
C    -0.9490767   -1.1743033    2.1571952 
C     0.2888998    3.1510571   -0.4633018 
C    -0.2101451    1.1666199   -2.6092559 
C    -2.1250898   -2.5697375   -4.6843858 
C    -5.4151540    0.2779736    1.8577751 
C    -3.9449458   -1.0319858   -4.2139582 
C    -5.4002668   -1.9744147    0.9415304 
C    -3.2887264   -1.9356341   -5.0891411 
C    -5.9971758   -0.9748054    1.7557415 
C     1.6242852   -3.2674462    2.6128056 
C    -0.8726722    0.0581604    2.8268024 
C     0.1790344    4.1649419   -1.4314585 
C     0.6808303    0.3410690   -3.3174874 
C     0.3339747   -4.4748264    0.9496781 
C    -1.9260485   -2.1123458    2.5538505 
C     0.6514900    3.5059025    0.8544963 
C    -1.2915959    1.7552663   -3.2993107 
C     1.9694590   -4.4790286    3.2183293 
C    -1.7796279    0.3638788    3.8499645 
C     0.3980124    5.5018606   -1.0766710 
C     0.5044234    0.1189780   -4.6885451 
C     0.6931665   -5.6830328    1.5621511 
C    -2.8297323   -1.7956441    3.5694833 
C     0.8514114    4.8456815    1.2020852 
C    -1.4559494    1.5321629   -4.6684351 
C     1.5187161   -5.7112032    2.7024994 
C    -2.7792214   -0.5500443    4.2318177 
C     0.7261163    5.8706483    0.2423096 
C    -0.5651804    0.7072665   -5.3887758 
C     1.8874911   -7.0127398    3.3759691 
C    -3.7749956   -0.2211316    5.3192129 
C     0.9909234    7.3136897    0.6020684 
C    -0.7880539    0.4402393   -6.8582179 
H     1.0541365   -3.2319762   -1.3839703 
H    -1.9193215    3.0926426    0.7159881 
H     0.1622483   -3.6163041   -3.6546945 
H    -4.0671927    2.6413916    1.8457968 
H    -3.9456843   -0.0745300   -2.2880729 
H    -3.7691857   -2.4874082   -0.3680563 
H    -1.6056348   -3.2609988   -5.3569524 
H    -5.8724341    1.0545301    2.4805246 
H    -4.8593778   -0.5268469   -4.5417455 
H    -5.8696336   -2.9605331    0.8634091 
H    -3.7027875   -2.1277900   -6.0844254 
H    -6.9220414   -1.1972820    2.2980062 
H     1.9751017   -2.3291646    3.0527094 
H    -0.1067013    0.7846218    2.5332354 
H    -0.0646656    3.9153949   -2.4678868 
H     1.4944340   -0.1595433   -2.7831765 
H    -0.3328579   -4.4973987    0.0826498 
H    -1.9843672   -3.0872785    2.0592049 
H     0.7715909    2.7239144    1.6141819 
H    -2.0220369    2.3651408   -2.7563734 
H     2.6065371   -4.4625003    4.1092331 
H    -1.7156284    1.3355714    4.3521029 
H     0.3162421    6.2761470   -1.8476146 
H     1.1985101   -0.5417787   -5.2197272 
H     0.3145350   -6.6237111    1.1463476 
H    -3.5984665   -2.5244346    3.8484724 
H     1.1183957    5.1004895    2.2339965 
H    -2.3065888    1.9876002   -5.1874676 
H     1.6815577   -7.8794466    2.7269558 
H     2.9559465   -7.0307243    3.6528909 
H     1.3076125   -7.1450414    4.3087060 
H    -4.8085742   -0.3635415    4.9562019 
H    -3.6414165   -0.8867170    6.1916708 
H    -3.6700818    0.8196756    5.6662942 
H     0.3700544    8.0002369    0.0025702 
H     0.7981234    7.5086924    1.6699975 
H     2.0492157    7.5714848    0.4041491 
H    -1.7152513   -0.1441000   -7.0033573 
H    -0.9034095    1.3824077   -7.4226124 
H     0.0455934   -0.1291864   -7.2999908 
