119
Energy =
C    -3.8360166   -0.5942742    0.3663181 
C    -3.2597402   -1.7101516    1.0420551 
C    -2.6413834   -1.5432465    2.3035155 
H    -3.1970295   -2.6769952    0.5249397 
Pd   -1.6315136   -0.2891594    0.6721799 
P     0.5950435   -0.5438005    1.4482344 
P    -0.9587476    1.0811353   -1.1078678 
H    -4.2170941    0.2223456    0.9988892 
H    -2.9356180   -0.6542934    2.8829668 
C    -5.6861765   -0.8861589   -3.5083152 
C    -4.4566607   -1.5234063   -3.2709375 
C    -3.8558180   -1.4423648   -2.0112082 
C    -4.4627310   -0.7098690   -0.9664360 
C    -5.6976046   -0.0746217   -1.2186820 
C    -6.3084680   -0.1706381   -2.4752120 
H    -6.1544342   -0.9467335   -4.4961586 
H    -3.9621859   -2.0770228   -4.0760083 
H    -2.8847112   -1.9200679   -1.8352028 
H    -6.1812657    0.4983788   -0.4194678 
H    -7.2689293    0.3246787   -2.6517209 
C    -0.8932057   -4.6314979    4.7320026 
C    -1.4273222   -3.4727323    5.3139807 
C    -1.9780638   -2.4713291    4.5066506 
C    -2.0209939   -2.6139052    3.1014687 
C    -1.4876956   -3.7917170    2.5298867 
C    -0.9244805   -4.7851746    3.3358816 
H    -0.4536595   -5.4122026    5.3613781 
H    -1.4087607   -3.3441881    6.4011098 
H    -2.3838542   -1.5641577    4.9660196 
H    -1.5004267   -3.9292579    1.4456423 
H    -0.5065540   -5.6847713    2.8723582 
C     1.7142664    0.1198220   -1.3980855 
C     2.1430695    1.0534083   -0.3058225 
C     0.3906135    0.0708341   -1.8556397 
C     1.8094189    0.7945570    1.0345967 
C     2.6934900   -0.7853620   -1.9486783 
C     2.9288505    2.2092321   -0.6362431 
C     2.2865604   -1.7679865   -2.9202191 
C     3.3678861    3.0930962    0.4128002 
C    -0.0044841   -0.9409402   -2.7872786 
C     2.2996358    1.6492663    2.0650097 
C     0.9164241   -1.8293052   -3.3041184 
C     3.0580382    2.7639487    1.7611782 
C     4.0631990   -0.7558367   -1.5497290 
C     3.2527549    2.5390050   -1.9865846 
C    -2.0850986    1.5114896   -2.4898642 
C    -0.3250506    2.7402051   -0.6476091 
C     0.6517891   -0.6510896    3.2783446 
C     1.3481125   -2.0682620    0.7753494 
C     3.2548488   -2.6653261   -3.4547436 
C     4.0945495    4.2705646    0.0714065 
C     4.9840893   -1.6362244   -2.0955343 
C     3.9593574    3.6919450   -2.2858690 
C     4.5802369   -2.5990522   -3.0562679 
C     4.3813094    4.5682741   -1.2505434 
C    -3.3530640    2.0186770   -2.1435309 
C    -0.3812585    3.1784778    0.6861854 
C    -0.0607165    0.3235110    4.0108142 
C     0.5831122   -2.9297062   -0.0307457 
C    -1.7139371    1.4841449   -3.8491812 
C     0.1683364    3.6162917   -1.6373979 
C     1.3551603   -1.6452594    3.9801755 
C     2.7098394   -2.3670326    0.9948991 
C    -4.2383004    2.4526877   -3.1323874 
C     0.0790817    4.4557321    1.0308245 
C    -0.0339322    0.3238346    5.4086502 
C     1.1592851   -4.0767906   -0.5890585 
C    -2.6140799    1.9112283   -4.8340097 
C     0.6302838    4.8852188   -1.2832254 
C     1.3642939   -1.6440904    5.3814518 
C     3.2750917   -3.5157543    0.4357456 
C    -3.8949928    2.3889679   -4.4981412 
C     0.6020763    5.3267044    0.0570627 
C     0.6805431   -0.6617711    6.1218668 
C     2.5127831   -4.3919068   -0.3665668 
C    -4.8883374    2.7954874   -5.5607860 
C     1.1232250    6.6966932    0.4225299 
C     0.6621610   -0.6928790    7.6322068 
C     3.1515554   -5.6121476   -0.9864216 
H    -1.0527340   -1.0085756   -3.0934996 
H     2.0679979    1.4249702    3.1093509 
H     0.5981397   -2.5960985   -4.0186446 
H     3.4194989    3.4151245    2.5643406 
H     4.3853882   -0.0254331   -0.8028664 
H     2.9228614    1.8733595   -2.7895592 
H     2.9319566   -3.4101298   -4.1902950 
H     4.4205433    4.9393175    0.8754406 
H     6.0316764   -1.5908790   -1.7803500 
H     4.1930762    3.9328501   -3.3280715 
H     5.3177211   -3.2887064   -3.4798922 
H     4.9385165    5.4768463   -1.5014314 
H    -3.6459969    2.0722675   -1.0896727 
H    -0.7710544    2.5070010    1.4602318 
H    -0.6380869    1.0902228    3.4793975 
H    -0.4607514   -2.6750735   -0.2480608 
H    -0.7208125    1.1356532   -4.1490377 
H     0.2011101    3.3001867   -2.6849855 
H     1.8817154   -2.4370101    3.4402640 
H     3.3349514   -1.6828643    1.5790229 
H    -5.2230100    2.8331231   -2.8404298 
H     0.0420742    4.7758228    2.0779552 
H    -0.5848327    1.0961012    5.9576276 
H     0.5514437   -4.7275825   -1.2274897 
H    -2.3106325    1.8747227   -5.8864212 
H     1.0323267    5.5446377   -2.0600661 
H     1.9091044   -2.4344462    5.9095769 
H     4.3369094   -3.7264946    0.6041553 
H    -5.4178937    3.7231072   -5.2828614 
H    -4.4014074    2.9502657   -6.5373719 
H    -5.6553502    2.0077098   -5.6876759 
H     1.0935368    6.8666488    1.5110563 
H     2.1668452    6.8185363    0.0809585 
H     0.5263994    7.4896867   -0.0638581 
H     1.5409356   -1.2208034    8.0375424 
H     0.6368952    0.3242512    8.0581856 
H    -0.2396382   -1.2225033    7.9953823 
H     3.5851297   -6.2699627   -0.2118639 
H     2.4248306   -6.2001875   -1.5699888 
H     3.9746417   -5.3150442   -1.6611710 
