119
Energy =
C    -3.8580712    0.2344497    0.2934202 
C    -3.5302688   -0.0412960    1.6542451 
C    -2.7426568    0.8628683    2.4045653 
H    -3.7880962   -1.0203169    2.0772022 
Pd   -1.6432241    0.0874984    0.5428896 
P     0.5201302    0.1116537    1.5045170 
P    -0.8056844   -0.0351334   -1.6437857 
H    -3.9148147    1.2924336   -0.0030539 
H    -2.7068825    1.8996960    2.0385750 
C    -6.1973021   -2.4238781   -2.1520503 
C    -5.3043804   -2.9532280   -1.2031437 
C    -4.5391138   -2.0987958   -0.4036578 
C    -4.6449795   -0.6942698   -0.5399982 
C    -5.5348491   -0.1773840   -1.5061555 
C    -6.3105151   -1.0339824   -2.2979670 
H    -6.7973613   -3.0947858   -2.7754298 
H    -5.2026583   -4.0379161   -1.0928717 
H    -3.8231921   -2.5218566    0.3104154 
H    -5.6182691    0.9072753   -1.6339705 
H    -6.9992470   -0.6132644   -3.0379040 
C    -1.5929573    0.5189759    6.5306491 
C    -2.1661927   -0.5847080    5.8771404 
C    -2.5236601   -0.5009685    4.5291902 
C    -2.3272264    0.6980401    3.8045510 
C    -1.7373494    1.7966017    4.4728798 
C    -1.3735770    1.7085304    5.8211681 
H    -1.3163188    0.4482957    7.5876411 
H    -2.3324239   -1.5184933    6.4235895 
H    -2.9630484   -1.3747757    4.0391722 
H    -1.5700481    2.7306232    3.9268539 
H    -0.9244113    2.5732721    6.3203216 
C     1.6600784    1.3240648   -1.1186003 
C     2.2636502    0.0107209   -0.7209787 
C     0.3306676    1.4185739   -1.5514758 
C     1.9096898   -0.5913422    0.4982291 
C     2.4529531    2.5210002   -0.9797961 
C     3.2198083   -0.6253207   -1.5813479 
C     1.8514382    3.8053966   -1.2330224 
C     3.8093298   -1.8778817   -1.1828930 
C    -0.2693039    2.7061920   -1.7305636 
C     2.5431295   -1.8024324    0.9025043 
C     0.4710769    3.8614461   -1.5804228 
C     3.4676728   -2.4247274    0.0847079 
C     3.8242043    2.4818931   -0.5872645 
C     3.5709342   -0.0776988   -2.8517443 
C     0.1056831   -1.5529830   -2.1206181 
C    -1.8146016    0.2136072   -3.1610770 
C     1.1107669    1.7818275    1.9544939 
C     0.5113824   -0.9175601    3.0219721 
C     2.6400984    4.9841928   -1.1040437 
C     4.7095054   -2.5352781   -2.0709081 
C     4.5684209    3.6462119   -0.4800145 
C     4.4466340   -0.7432786   -3.6933196 
C     3.9757539    4.9082658   -0.7430737 
C     5.0186283   -1.9839247   -3.3033890 
C     0.1160613   -2.6701654   -1.2694248 
C    -2.8722926   -0.6955744   -3.3747849 
C     0.2766602    2.8987581    1.7709174 
C     1.0661200   -0.5095611    4.2465816 
C     0.7327303   -1.6442470   -3.3816913 
C    -1.4946584    1.1315072   -4.1826275 
C     2.4316391    1.9827715    2.4092663 
C    -0.0903070   -2.1938178    2.9392989 
C     0.7719175   -3.8466714   -1.6549499 
C    -3.6022936   -0.6660921   -4.5664839 
C     0.7462667    4.1880015    2.0492987 
C     1.0437973   -1.3727862    5.3509124 
C     1.3899125   -2.8181382   -3.7537096 
C    -2.2394652    1.1558305   -5.3693111 
C     2.8892634    3.2724980    2.6896475 
C    -0.0925081   -3.0525484    4.0411393 
C     1.4286823   -3.9386999   -2.8958758 
C    -3.3072992    0.2633992   -5.5843583 
C     2.0586464    4.3997960    2.5116084 
C     0.4784743   -2.6583130    5.2700599 
C     2.1646205   -5.1920024   -3.3077111 
C    -4.0932813    0.2733315   -6.8749818 
C     2.5884923    5.7900475    2.7699490 
C     0.4531886   -3.5851381    6.4629389 
H    -1.3308337    2.7735465   -1.9900775 
H     2.2882963   -2.2505518    1.8663888 
H    -0.0010536    4.8386800   -1.7286227 
H     3.9381893   -3.3607900    0.4042944 
H     4.2898881    1.5161684   -0.3732693 
H     3.1270111    0.8732907   -3.1608596 
H     2.1709544    5.9547222   -1.2988808 
H     5.1509691   -3.4890584   -1.7619300 
H     5.6219790    3.5922302   -0.1869432 
H     4.6996512   -0.3128995   -4.6677997 
H     4.5757434    5.8202778   -0.6578367 
H     5.7088950   -2.4996070   -3.9790463 
H    -0.3832189   -2.6105690   -0.2958748 
H    -3.1170417   -1.4436228   -2.6146070 
H    -0.7333971    2.7593316    1.3727229 
H     1.5028481    0.4875143    4.3513082 
H     0.7124943   -0.7918189   -4.0683480 
H    -0.6547509    1.8233676   -4.0692323 
H     3.1106323    1.1297132    2.5164020 
H    -0.5592175   -2.5129108    2.0005128 
H     0.7809537   -4.7047485   -0.9737550 
H    -4.4215248   -1.3803025   -4.7027626 
H     0.0872278    5.0475204    1.8839227 
H     1.4691022   -1.0310074    6.3008585 
H     1.8921860   -2.8652713   -4.7260425 
H    -1.9766332    1.8810056   -6.1479271 
H     3.9203812    3.4126296    3.0325395 
H    -0.5575345   -4.0411269    3.9525885 
H     3.2351667   -4.9736762   -3.4748760 
H     2.0896946   -5.9797184   -2.5405685 
H     1.7636309   -5.5950740   -4.2550741 
H    -3.7723489   -0.5579751   -7.5306936 
H    -5.1729348    0.1408917   -6.6875657 
H    -3.9489766    1.2135155   -7.4318950 
H     1.7830651    6.5421452    2.7582941 
H     3.1056493    5.8474204    3.7436189 
H     3.3234201    6.0669963    1.9914201 
H    -0.5818631   -3.8873514    6.7057213 
H     1.0196239   -4.5113067    6.2560911 
H     0.8903577   -3.1098929    7.3557426 
