119
Energy =
C    -3.6705255    0.6648338    0.2423988 
C    -3.5883504    0.0184947    1.4964882 
C    -2.7167245    0.4911793    2.5189648 
H    -4.1155626   -0.9319941    1.6392140 
Pd   -1.5362938   -0.0590567    0.6675350 
P     0.6350613    0.2724877    1.5694099 
P    -0.6984426   -0.3826115   -1.4836528 
H    -3.2807114    1.6933680    0.1881926 
H    -2.4717468    1.5619687    2.5129854 
C    -6.3687724   -0.1992197   -2.9862623 
C    -5.5189085    0.9156197   -3.0374978 
C    -4.6328460    1.1663544   -1.9855395 
C    -4.5711868    0.3088266   -0.8617938 
C    -5.4207695   -0.8225027   -0.8356394 
C    -6.3130477   -1.0677515   -1.8832131 
H    -7.0722795   -0.3933751   -3.8024575 
H    -5.5477584    1.5911473   -3.8981170 
H    -3.9795250    2.0451712   -2.0228825 
H    -5.3973175   -1.5091666    0.0165231 
H    -6.9738151   -1.9397473   -1.8393085 
C    -2.3095742   -1.3034148    6.4079460 
C    -1.7963590   -0.0234289    6.1490865 
C    -1.9203865    0.5383951    4.8743593 
C    -2.5578537   -0.1662448    3.8273459 
C    -3.0429367   -1.4680301    4.0968859 
C    -2.9278732   -2.0249616    5.3740874 
H    -2.2261947   -1.7387959    7.4091268 
H    -1.2986042    0.5403709    6.9443748 
H    -1.5208618    1.5395818    4.6786980 
H    -3.5194930   -2.0536658    3.3038762 
H    -3.3223994   -3.0283935    5.5655579 
C     1.6496606    1.2133960   -1.2629327 
C     2.3578962    0.0246507   -0.6839594 
C     0.3133607    1.1419827   -1.6784055 
C     2.0717528   -0.4187442    0.6196000 
C     2.3483449    2.4734479   -1.3275131 
C     3.3485301   -0.6583730   -1.4682549 
C     1.6373418    3.6595974   -1.7313736 
C     4.0424872   -1.7899669   -0.9091554 
C    -0.3884733    2.3362041   -2.0373898 
C     2.8058409   -1.5075642    1.1749634 
C     0.2545808    3.5569745   -2.0584254 
C     3.7648000   -2.1699805    0.4327255 
C     3.7279226    2.5956308   -0.9845265 
C     3.6328970   -0.2814714   -2.8152578 
C     0.3177184   -1.8829560   -1.7672003 
C    -1.8176592   -0.4848925   -2.9311028 
C     0.9906006    2.0678088    1.6712617 
C     0.8486918   -0.4179752    3.2514011 
C     2.3257165    4.9058211   -1.7746023 
C     4.9767128   -2.5015557   -1.7164838 
C     4.3741475    3.8198977   -1.0528024 
C     4.5441054   -0.9959407   -3.5752982 
C     3.6699750    4.9863672   -1.4483863 
C     5.2202453   -2.1174097   -3.0247630 
C     0.4448832   -2.8584800   -0.7642845 
C    -2.8019023   -1.4949468   -2.8699321 
C    -0.0231343    3.0149681    1.4375590 
C     0.3120267   -1.6997751    3.5008561 
C     0.9109093   -2.1099935   -3.0274777 
C    -1.6709625    0.2507495   -4.1217920 
C     2.2991623    2.5261382    1.9393463 
C     1.5358006    0.2433199    4.2854188 
C     1.1803254   -4.0264217   -1.0060517 
C    -3.6187293   -1.7550479   -3.9705389 
C     0.2606201    4.3858353    1.4794595 
C     0.4959326   -2.3166041    4.7398492 
C     1.6487617   -3.2727947   -3.2550205 
C    -2.5107959   -0.0068753   -5.2152962 
C     2.5708867    3.8953397    1.9863343 
C     1.7048051   -0.3800398    5.5290877 
C     1.8032575   -4.2498434   -2.2477871 
C    -3.4987298   -1.0070508   -5.1611203 
C     1.5596829    4.8519401    1.7535430 
C     1.1977593   -1.6687979    5.7783914 
C     2.6216252   -5.4928981   -2.5075836 
C    -4.4256604   -1.2645044   -6.3253363 
C     1.8804441    6.3274306    1.7844790 
C     1.3571030   -2.3323014    7.1254924 
H    -1.4526397    2.2788012   -2.2873334 
H     2.5994783   -1.8297927    2.1988857 
H    -0.2960799    4.4638743   -2.3304244 
H     4.3119944   -3.0111493    0.8717420 
H     4.2789957    1.7066373   -0.6663694 
H     3.1088848    0.5753831   -3.2488948 
H     1.7724944    5.8018968   -2.0764036 
H     5.4968301   -3.3631029   -1.2837414 
H     5.4360443    3.8885389   -0.7948315 
H     4.7440042   -0.6973014   -4.6095754 
H     4.1911799    5.9481518   -1.4950909 
H     5.9374781   -2.6736657   -3.6371983 
H    -0.0195905   -2.6930084    0.2147038 
H    -2.9172921   -2.0866174   -1.9546538 
H    -1.0331490    2.6759055    1.1845659 
H    -0.2605828   -2.2103902    2.7172624 
H     0.8024438   -1.3700931   -3.8273064 
H    -0.8933838    1.0153911   -4.2131873 
H     3.1139425    1.8069742    2.0761855 
H     1.9352755    1.2496821    4.1307955 
H     1.2813543   -4.7716261   -0.2092568 
H    -4.3752125   -2.5439335   -3.9020238 
H    -0.5395964    5.1061472    1.2765082 
H     0.0679382   -3.3096306    4.9140344 
H     2.1237661   -3.4233632   -4.2305269 
H    -2.3845853    0.5774364   -6.1338834 
H     3.5954914    4.2307347    2.1802992 
H     2.2399503    0.1510330    6.3242757 
H     2.6733440   -6.1402231   -1.6171437 
H     2.1923553   -6.0841670   -3.3367355 
H     3.6526704   -5.2235488   -2.8000647 
H    -5.4434167   -0.8964689   -6.0947923 
H    -4.0826471   -0.7564718   -7.2411826 
H    -4.5123036   -2.3445291   -6.5369529 
H     1.0116968    6.9391758    1.4921220 
H     2.1945882    6.6411498    2.7967173 
H     2.7136380    6.5578905    1.0970134 
H     0.3755141   -2.4261275    7.6261809 
H     1.7664312   -3.3527154    7.0220277 
H     2.0234867   -1.7566114    7.7878468 
