119
Energy =
C    -3.5900322    0.8002487    0.6680310 
C    -3.4682101   -0.1119150    1.7541744 
C    -2.5074172    0.0820344    2.7729245 
H    -4.0448076   -1.0442083    1.7388548 
Pd   -1.5112810   -0.0998944    0.7181052 
P     0.5964308   -0.9213458    1.2803430 
P    -0.7125465    0.8330117   -1.3142073 
H    -3.2767499    1.8375544    0.8490782 
H    -2.0799572    1.0928071    2.8645498 
C    -6.4364385    0.4521655   -2.5390271 
C    -6.2086561   -0.6461766   -1.6943067 
C    -5.2668760   -0.5601504   -0.6644123 
C    -4.5424694    0.6350628   -0.4430098 
C    -4.7708570    1.7252050   -1.3141626 
C    -5.7050193    1.6348250   -2.3509947 
H    -7.1792323    0.3847803   -3.3406616 
H    -6.7699618   -1.5751766   -1.8394771 
H    -5.1008020   -1.4323119   -0.0237046 
H    -4.2041590    2.6517542   -1.1699271 
H    -5.8643276    2.4910627   -3.0140392 
C    -2.0132950   -2.2035189    6.3764049 
C    -1.2817807   -1.0252189    6.1657067 
C    -1.4405735   -0.3084437    4.9757242 
C    -2.3291925   -0.7527624    3.9682833 
C    -3.0429285   -1.9547668    4.1877885 
C    -2.8907213   -2.6663012    5.3812349 
H    -1.9001414   -2.7622839    7.3111471 
H    -0.5869837   -0.6642441    6.9303693 
H    -0.8767604    0.6179966    4.8198923 
H    -3.7347021   -2.3308813    3.4273170 
H    -3.4623700   -3.5865154    5.5402193 
C     2.0630602    0.1997601   -1.3152616 
C     2.1750910    1.0276376   -0.0694738 
C     0.8504289    0.1284500   -2.0237359 
C     1.5942288    0.6185335    1.1383312 
C     3.2116486   -0.5176546   -1.7933263 
C     2.8387487    2.3059416   -0.1425872 
C     3.1099252   -1.3023306   -2.9968943 
C     2.8156317    3.1841700    0.9991055 
C     0.7828305   -0.6108886   -3.2409978 
C     1.5436515    1.5198621    2.2486071 
C     1.8818353   -1.3022981   -3.7138747 
C     2.1332606    2.7654678    2.1774997 
C     4.4473228   -0.5213330   -1.0789839 
C     3.5087541    2.7475795   -1.3223494 
C    -1.9086830    0.7206685   -2.6958409 
C    -0.3298055    2.6090081   -1.0696020 
C     0.9267533   -1.6393887    2.9338799 
C     1.2864939   -2.2507234    0.2220636 
C     4.2347990   -2.0637351   -3.4279417 
C     3.4554291    4.4540373    0.9165808 
C     5.5216645   -1.2746277   -1.5225080 
C     4.1364736    3.9825344   -1.3660166 
C     5.4157956   -2.0556850   -2.7042880 
C     4.1097025    4.8457097   -0.2403380 
C    -2.6257322   -0.4867887   -2.8384489 
C    -0.7063789    3.2675490    0.1152088 
C     0.1212649   -2.7436576    3.2878248 
C     2.5849140   -2.7475965    0.4649420 
C    -2.1227987    1.7517068   -3.6288491 
C     0.3901198    3.3302768   -2.0471945 
C     1.9891538   -1.2734140    3.7809934 
C     0.5017149   -2.8446371   -0.7802891 
C    -3.5037072   -0.6680393   -3.9093348 
C    -0.3820306    4.6154022    0.3142312 
C     0.3719464   -3.4559888    4.4606592 
C     3.0930832   -3.7889677   -0.3131099 
C    -3.0136964    1.5634334   -4.6936748 
C     0.7027534    4.6761327   -1.8429380 
C     2.2195858   -1.9855423    4.9675674 
C     1.0182062   -3.8958497   -1.5495105 
C    -3.7141236    0.3537285   -4.8589368 
C     0.3268995    5.3444823   -0.6581425 
C     1.4182943   -3.0830826    5.3313409 
C     2.3229551   -4.3785354   -1.3388954 
C    -4.6992824    0.1625307   -5.9872592 
C     0.6979487    6.7929756   -0.4459341 
C     1.6453400   -3.8336648    6.6221882 
C     2.8977580   -5.4920421   -2.1825621 
H    -0.1550415   -0.6406629   -3.8017649 
H     1.0190516    1.2191490    3.1611584 
H     1.8093053   -1.8745222   -4.6449702 
H     2.0829689    3.4474228    3.0331743 
H     4.5329072    0.0705750   -0.1628790 
H     3.5262474    2.0968139   -2.2006583 
H     4.1465563   -2.6611228   -4.3419166 
H     3.4254623    5.1157280    1.7891154 
H     6.4595962   -1.2716562   -0.9575590 
H     4.6535603    4.2969189   -2.2784922 
H     6.2725992   -2.6473898   -3.0428854 
H     4.6068108    5.8201178   -0.2886367 
H    -2.4982124   -1.2843636   -2.0966413 
H    -1.2244142    2.7108001    0.9030241 
H    -0.6998554   -3.0505712    2.6299297 
H     3.2010527   -2.3107464    1.2577038 
H    -1.6035750    2.7087760   -3.5264380 
H     0.7379953    2.8251713   -2.9548036 
H     2.6547419   -0.4459082    3.5167459 
H    -0.5106625   -2.4694717   -0.9696211 
H    -4.0534645   -1.6110302   -3.9993381 
H    -0.6695346    5.1039966    1.2517839 
H    -0.2648424   -4.3096710    4.7155542 
H     4.1118020   -4.1471641   -0.1290620 
H    -3.1698194    2.3782747   -5.4095928 
H     1.2751475    5.2139518   -2.6065266 
H     3.0495528   -1.6849237    5.6171036 
H     0.3986762   -4.3396675   -2.3366306 
H    -4.5707803   -0.8218689   -6.4697946 
H    -5.7352267    0.2023602   -5.6011044 
H    -4.5954863    0.9446595   -6.7565901 
H     0.2120596    7.4391058   -1.1995521 
H     0.3975928    7.1479580    0.5531409 
H     1.7887973    6.9328418   -0.5495615 
H     1.6686799   -4.9242992    6.4515771 
H     2.5895634   -3.5373628    7.1070285 
H     0.8213196   -3.6346546    7.3332450 
H     3.8305195   -5.1628906   -2.6751782 
H     3.1505840   -6.3702197   -1.5610317 
H     2.1913554   -5.8179535   -2.9631984 
