119
Energy =
C    -3.7207850   -0.1451154    0.1522438 
C    -3.4557252   -0.6572994    1.4636382 
C    -2.8523709    0.1669865    2.4403269 
H    -3.5593094   -1.7319690    1.6590004 
Pd   -1.5539452   -0.0046560    0.5714023 
P     0.5577702   -0.3468515    1.5030461 
P    -0.7627756    0.6745493   -1.5187531 
H    -3.9911448    0.9165827    0.0706224 
H    -2.9015550    1.2540672    2.2669886 
C    -4.8194857   -2.5191356   -3.2686637 
C    -5.0790904   -1.1415045   -3.2386767 
C    -4.7342967   -0.3828388   -2.1135730 
C    -4.1183406   -0.9851186   -0.9936317 
C    -3.8633296   -2.3772220   -1.0381277 
C    -4.2121062   -3.1338529   -2.1603286 
H    -5.0873113   -3.1130022   -4.1485540 
H    -5.5506327   -0.6512334   -4.0968071 
H    -4.9335832    0.6941303   -2.1000215 
H    -3.3677720   -2.8696357   -0.1935920 
H    -4.0042757   -4.2090363   -2.1764753 
C    -1.7148155   -0.8062984    6.4658119 
C    -1.4495908    0.4633237    5.9304614 
C    -1.8241704    0.7589959    4.6162091 
C    -2.4650186   -0.2086005    3.8059747 
C    -2.7159306   -1.4861262    4.3563689 
C    -2.3478901   -1.7772753    5.6731498 
H    -1.4313433   -1.0392175    7.4974149 
H    -0.9551120    1.2263341    6.5402961 
H    -1.6170553    1.7520760    4.2029585 
H    -3.2160985   -2.2539777    3.7591281 
H    -2.5579488   -2.7691828    6.0858715 
C     1.9131424    1.3066265   -0.8136666 
C     2.2029281   -0.1660741   -0.7918095 
C     0.6722727    1.8157739   -1.2349803 
C     1.7397485   -1.0043348    0.2358219 
C     2.9685082    2.2131670   -0.4403009 
C     3.0056297   -0.7136829   -1.8543618 
C     2.7303395    3.6335527   -0.4648096 
C     3.2794121   -2.1274529   -1.8819038 
C     0.4675124    3.2271732   -1.2852741 
C     2.0649407   -2.3933332    0.2180227 
C     1.4621291    4.1067480   -0.9019678 
C     2.7999147   -2.9388327   -0.8170438 
C     4.2572914    1.7501738   -0.0361216 
C     3.5262754    0.0973599   -2.9081743 
C    -0.2064119   -0.6241215   -2.6679080 
C    -2.0335737    1.6589663   -2.4083125 
C     1.3758307    1.0898107    2.2693896 
C     0.4228154   -1.6792137    2.7554135 
C     3.7719152    4.5242861   -0.0736662 
C     4.0320043   -2.6727778   -2.9624899 
C     5.2541859    2.6416772    0.3245731 
C     4.2664150   -0.4605942   -3.9375694 
C     5.0114516    4.0404268    0.3105807 
C     4.5172762   -1.8577170   -3.9715804 
C     0.4869283   -0.3130043   -3.8567025 
C    -2.3850638    1.4171296   -3.7491354 
C     2.7041721    1.0299134    2.7394930 
C     0.9842004   -1.6033415    4.0432723 
C    -0.4506477   -1.9715675   -2.3462891 
C    -2.7567095    2.6366826   -1.6881724 
C     0.6897452    2.3184515    2.3077506 
C    -0.3179163   -2.8296836    2.4048231 
C     0.9267096   -1.3379999   -4.6980128 
C    -3.4149207    2.1505644   -4.3547557 
C     3.3220085    2.1793330    3.2395240 
C     0.8370639   -2.6696498    4.9379097 
C     0.0007289   -2.9899826   -3.1933226 
C    -3.7764516    3.3694890   -2.3029948 
C     1.3212248    3.4654057    2.8014730 
C    -0.4417835   -3.8978889    3.3000845 
C     0.6999405   -2.6937160   -4.3791541 
C    -4.1284851    3.1387711   -3.6507181 
C     2.6479133    3.4185679    3.2720038 
C     0.1377535   -3.8402604    4.5826101 
C     1.1964646   -3.7888026   -5.2935584 
C    -5.2615085    3.8992646   -4.2995262 
C     3.3436944    4.6549039    3.7901545 
C     0.0000489   -4.9819694    5.5624190 
H    -0.4854968    3.6226611   -1.6452211 
H     1.7303435   -3.0376689    1.0345011 
H     1.2838361    5.1866492   -0.9481657 
H     3.0294791   -4.0099135   -0.8191113 
H     4.4517605    0.6745189   -0.0096306 
H     3.3292824    1.1728032   -2.9005170 
H     3.5765101    5.6020761   -0.0914397 
H     4.2252560   -3.7509892   -2.9768204 
H     6.2362677    2.2648629    0.6285203 
H     4.6571522    0.1798978   -4.7350718 
H     5.8077215    4.7342851    0.5995592 
H     5.0999676   -2.2864980   -4.7935096 
H     0.7076581    0.7300797   -4.1076706 
H    -1.8696075    0.6423778   -4.3234159 
H     3.2655502    0.0908602    2.6830703 
H     1.5249533   -0.7059470    4.3573851 
H    -0.9813311   -2.2171225   -1.4203130 
H    -2.5222528    2.8207983   -0.6322258 
H    -0.3303026    2.3781969    1.9106930 
H    -0.7962333   -2.8885343    1.4185818 
H     1.4827730   -1.0839179   -5.6068471 
H    -3.6718833    1.9419054   -5.3994405 
H     4.3602908    2.1229150    3.5844202 
H     1.2712397   -2.5853283    5.9404944 
H    -0.1819530   -4.0353493   -2.9211634 
H    -4.3160069    4.1290106   -1.7259475 
H     0.7824460    4.4193198    2.8014890 
H    -1.0114357   -4.7859227    3.0037248 
H     0.5735440   -3.8500331   -6.2054608 
H     2.2331320   -3.5910204   -5.6168109 
H     1.1677006   -4.7738241   -4.7997338 
H    -5.1357084    3.9557497   -5.3933286 
H    -6.2274471    3.3965059   -4.1023905 
H    -5.3389478    4.9252069   -3.9021679 
H     3.5028141    4.5880292    4.8823918 
H     4.3361688    4.7701220    3.3204363 
H     2.7571720    5.5656771    3.5878280 
H     0.9816768   -5.4493919    5.7622679 
H    -0.3905416   -4.6247480    6.5322041 
H    -0.6775736   -5.7644129    5.1840905 
