119
Energy =
C    -3.6939856    0.4600232    0.8829516 
C    -3.5087575   -0.8823036    1.2827830 
C    -2.6058498   -1.2296647    2.3300689 
H    -3.9441905   -1.6780645    0.6646180 
Pd   -1.4948916   -0.1462228    0.7204672 
P     0.6670517   -0.6212801    1.4964122 
P    -0.7337319    0.9524608   -1.2072691 
H    -3.3651860    1.2489583    1.5787837 
H    -2.4701796   -0.5019891    3.1420462 
C    -6.3851523    1.8287113   -2.1736139 
C    -6.5529834    0.5491992   -1.6222203 
C    -5.6754694    0.0877175   -0.6348241 
C    -4.6177108    0.9040803   -0.1728294 
C    -4.4691777    2.1957301   -0.7287686 
C    -5.3379469    2.6495200   -1.7249488 
H    -7.0728654    2.1893297   -2.9454744 
H    -7.3776102   -0.0889249   -1.9565960 
H    -5.8347772   -0.9025519   -0.1958256 
H    -3.6466590    2.8348763   -0.3875926 
H    -5.1982743    3.6459013   -2.1556122 
C    -1.5074147   -5.2593728    3.3780621 
C    -1.9786562   -4.9806293    2.0836570 
C    -2.3431719   -3.6780779    1.7325978 
C    -2.2460147   -2.6203810    2.6679681 
C    -1.7735386   -2.9169538    3.9654061 
C    -1.4089361   -4.2224930    4.3164501 
H    -1.2190897   -6.2799512    3.6501249 
H    -2.0544951   -5.7840011    1.3434116 
H    -2.6895125   -3.4759754    0.7128049 
H    -1.6879105   -2.1104786    4.7014872 
H    -1.0424337   -4.4274809    5.3277052 
C     1.9463654   -0.0136374   -1.3189143 
C     2.2935084    0.9445760   -0.2179023 
C     0.6693168   -0.0416155   -1.9036583 
C     1.8565410    0.7446581    1.1020570 
C     2.9695092   -0.9101655   -1.7940414 
C     3.1118840    2.0860927   -0.5338158 
C     2.6572032   -1.8620087   -2.8288261 
C     3.4269237    3.0419668    0.4961164 
C     0.3878049   -0.9726548   -2.9481094 
C     2.2218556    1.6761968    2.1190075 
C     1.3489128   -1.8623115   -3.3875220 
C     2.9722970    2.7968649    1.8210789 
C     4.2933715   -0.9028305   -1.2591254 
C     3.6036068    2.3254002   -1.8530323 
C    -1.9849594    0.9997235   -2.5494788 
C    -0.1376887    2.6644146   -0.9901765 
C     0.6872026   -0.7410622    3.3299907 
C     1.4071167   -2.1532110    0.8430537 
C     3.6641180   -2.7675601   -3.2729573 
C     4.1915283    4.1985863    0.1661348 
C     5.2546410   -1.7864365   -1.7218852 
C     4.3535849    3.4540229   -2.1402074 
C     4.9394751   -2.7306790   -2.7339977 
C     4.6460856    4.4038152   -1.1259371 
C    -2.8592304   -0.1028387   -2.6727191 
C    -0.3952293    3.3273474    0.2243629 
C    -0.0075018    0.2423506    4.0691373 
C     0.6282100   -2.9950194    0.0290862 
C    -2.1345184    2.0803855   -3.4378343 
C     0.5851979    3.3395931   -1.9971398 
C     1.3087080   -1.7921023    4.0281880 
C     2.7543866   -2.4904624    1.0928282 
C    -3.8299236   -0.1338468   -3.6755549 
C     0.0623512    4.6353524    0.4281718 
C    -0.0498255    0.1898502    5.4660237 
C     1.1855977   -4.1525189   -0.5254228 
C    -3.1180239    2.0440683   -4.4352885 
C     1.0279550    4.6478360   -1.7880491 
C     1.2570795   -1.8394111    5.4282238 
C     3.2980436   -3.6525773    0.5401084 
C    -3.9798478    0.9410497   -4.5768510 
C     0.7817665    5.3179234   -0.5710010 
C     0.5864044   -0.8521991    6.1748911 
C     2.5276294   -4.5016747   -0.2828856 
C    -5.0558037    0.9070646   -5.6358267 
C     1.2965968    6.7213059   -0.3537306 
C     0.5601884   -0.8961147    7.6848908 
C     3.1413092   -5.7420986   -0.8882102 
H    -0.6021724   -0.9793510   -3.4117610 
H     1.9085700    1.5021368    3.1511160 
H     1.1114872   -2.5736167   -4.1859824 
H     3.2331224    3.5069455    2.6133512 
H     4.5451194   -0.1900104   -0.4692175 
H     3.3753371    1.6073169   -2.6453228 
H     3.4116938   -3.4911957   -4.0556891 
H     4.4184792    4.9217216    0.9571604 
H     6.2644860   -1.7609676   -1.2994498 
H     4.7210192    3.6179109   -3.1585355 
H     5.7075761   -3.4257938   -3.0887164 
H     5.2370564    5.2934850   -1.3672174 
H    -2.7830503   -0.9359638   -1.9627361 
H    -0.9357037    2.8027269    1.0215027 
H    -0.5256544    1.0541817    3.5430537 
H    -0.4099645   -2.7229871   -0.1878717 
H    -1.4992127    2.9655283   -3.3474977 
H     0.8311498    2.8273635   -2.9332762 
H     1.8139270   -2.5943346    3.4834521 
H     3.3858452   -1.8265763    1.6932597 
H    -4.5022065   -0.9957646   -3.7460008 
H    -0.1313391    5.1300017    1.3863338 
H    -0.5937988    0.9650372    6.0174736 
H     0.5704556   -4.7888511   -1.1711181 
H    -3.2221581    2.8990874   -5.1126673 
H     1.6029414    5.1500607   -2.5734570 
H     1.7395404   -2.6740043    5.9492532 
H     4.3502752   -3.8931771    0.7269713 
H    -6.0546788    0.8225845   -5.1698859 
H    -5.0432170    1.8152865   -6.2595468 
H    -4.9323200    0.0317266   -6.2986832 
H     2.3888084    6.7622246   -0.5144409 
H     0.8348775    7.4262046   -1.0688820 
H     1.0829911    7.0805685    0.6659681 
H     0.6199321   -1.9312464    8.0602481 
H     1.4241503   -0.3439410    8.1010147 
H    -0.3538708   -0.4290767    8.0879558 
H     2.4555902   -6.2284473   -1.6008585 
H     4.0761276   -5.4938816   -1.4211206 
H     3.3965853   -6.4780321   -0.1036605 
