119
Energy =
C    -3.8851599   -0.1566520    0.3434146 
C    -3.4419965   -1.3135933    1.0494129 
C    -2.8144547   -1.1860295    2.3112190 
H    -3.4860309   -2.2935433    0.5556455 
Pd   -1.6614638   -0.0948879    0.6608669 
P     0.5170983   -0.5657760    1.4718842 
P    -0.8271110    1.1402869   -1.1492227 
H    -4.1726439    0.7134053    0.9538168 
H    -3.0106383   -0.2560877    2.8672765 
C    -5.7404696   -0.3254682   -3.5357903 
C    -6.2821234    0.4789659   -2.5227986 
C    -5.6691802    0.5339022   -1.2648096 
C    -4.5151050   -0.2310916   -0.9906158 
C    -3.9905201   -1.0506975   -2.0150583 
C    -4.5916530   -1.0917169   -3.2766182 
H    -6.2084853   -0.3549259   -4.5251693 
H    -7.1797770    1.0753979   -2.7164086 
H    -6.0882957    1.1756134   -0.4814910 
H    -3.0799780   -1.6302546   -1.8222792 
H    -4.1593545   -1.7149983   -4.0663876 
C    -1.4293205   -4.3874709    4.8261498 
C    -1.4795564   -4.5743666    3.4346256 
C    -1.9265215   -3.5453170    2.6009336 
C    -2.3212677   -2.2992091    3.1392889 
C    -2.2617863   -2.1248728    4.5402651 
C    -1.8276453   -3.1601641    5.3754682 
H    -1.0812498   -5.1960522    5.4772066 
H    -1.1678808   -5.5281286    2.9965042 
H    -1.9568773   -3.7102096    1.5208501 
H    -2.5612917   -1.1655043    4.9743370 
H    -1.7944787   -3.0050733    6.4587663 
C     1.7281275   -0.1140006   -1.3781677 
C     2.2454288    0.8010863   -0.3088697 
C     0.4105960   -0.0342789   -1.8489223 
C     1.8720821    0.6218304    1.0340732 
C     2.6083109   -1.1356589   -1.8906463 
C     3.1545898    1.8549747   -0.6631952 
C     2.1057774   -2.0975137   -2.8378759 
C     3.6755208    2.7192045    0.3646775 
C    -0.0843048   -1.0266960   -2.7533507 
C     2.4403350    1.4513886    2.0447892 
C     0.7397973   -2.0237338   -3.2340960 
C     3.3175800    2.4681213    1.7179644 
C     3.9698637   -1.2414890   -1.4771236 
C     3.5259676    2.1056758   -2.0183497 
C    -1.8859595    1.6483193   -2.5579935 
C    -0.0208532    2.7343911   -0.7315245 
C     0.5449949   -0.6191141    3.3052104 
C     1.1111935   -2.1818905    0.8560972 
C     2.9764414   -3.1085869   -3.3360303 
C     4.5285164    3.8003868   -0.0020529 
C     4.7953304   -2.2309453   -1.9875379 
C     4.3561498    3.1658314   -2.3424584 
C     4.2981466   -3.1726171   -2.9251654 
C     4.8595860    4.0237204   -1.3282938 
C    -3.0898571    2.3091910   -2.2430487 
C    -0.0418752    3.2184794    0.5874180 
C    -0.0722573    0.4440941    3.9971546 
C     0.2676497   -2.9838627    0.0672819 
C    -1.5106636    1.5316111   -3.9112957 
C     0.5725640    3.5208371   -1.7415961 
C     1.1409418   -1.6551870    4.0473544 
C     2.4322822   -2.6138037    1.1011225 
C    -3.9121670    2.8071896   -3.2556940 
C     0.5491225    4.4498742    0.8982073 
C    -0.0562172    0.4885209    5.3959641 
C     0.7261159   -4.2013791   -0.4495481 
C    -2.3488036    2.0243545   -4.9200042 
C     1.1643880    4.7439303   -1.4209206 
C     1.1396555   -1.6081122    5.4463721 
C     2.8796508   -3.8318682    0.5836032 
C    -3.5686448    2.6570501   -4.6147390 
C     1.1709151    5.2287103   -0.0953157 
C     0.5520230   -0.5366563    6.1477364 
C     2.0373647   -4.6484374   -0.2014479 
C    -4.5009051    3.1381743   -5.7012391 
C     1.8322713    6.5462488    0.2342960 
C     0.5421498   -0.5175031    7.6585191 
C     2.5505411   -5.9481547   -0.7748711 
H    -1.1316892   -0.9915869   -3.0677664 
H     2.1742559    1.2867262    3.0919936 
H     0.3462779   -2.7735747   -3.9289182 
H     3.7380580    3.1021328    2.5059761 
H     4.3622458   -0.5283946   -0.7473001 
H     3.1343286    1.4547682   -2.8055771 
H     2.5814402   -3.8359026   -4.0536966 
H     4.9161720    4.4552317    0.7858848 
H     5.8390880   -2.2889001   -1.6619476 
H     4.6252715    3.3473789   -3.3881543 
H     4.9607860   -3.9492354   -3.3210994 
H     5.5141833    4.8587367   -1.5988253 
H    -3.3823771    2.4329126   -1.1949311 
H    -0.5085363    2.6177024    1.3770122 
H    -0.5679527    1.2456067    3.4353450 
H    -0.7420859   -2.6292937   -0.1700256 
H    -0.5618196    1.0619458   -4.1883435 
H     0.5804597    3.1699200   -2.7785521 
H     1.5886598   -2.5132807    3.5385993 
H     3.1201436   -1.9801898    1.6714756 
H    -4.8485702    3.3081702   -2.9877645 
H     0.5366054    4.8055854    1.9343634 
H    -0.5330377    1.3283836    5.9138050 
H     0.0595909   -4.8048820   -1.0757162 
H    -2.0440246    1.9166878   -5.9671303 
H     1.6415290    5.3316411   -2.2126687 
H     1.5978833   -2.4314475    6.0057557 
H     3.9122470   -4.1463188    0.7707899 
H    -4.9125472    4.1348567   -5.4657853 
H    -3.9955924    3.1911515   -6.6793090 
H    -5.3590397    2.4465470   -5.8018135 
H     1.3387130    7.3806063   -0.2964846 
H     1.7972024    6.7605641    1.3147962 
H     2.8905186    6.5388233   -0.0832854 
H     0.1860638    0.4481941    8.0521406 
H    -0.1218457   -1.3096884    8.0527942 
H     1.5501604   -0.7086677    8.0663655 
H     1.7794136   -6.4632345   -1.3703234 
H     3.4233586   -5.7642939   -1.4269444 
H     2.8802168   -6.6325689    0.0275152 
