119
Energy =
C    -3.7063696   -0.3885316    0.0322140 
C    -3.4861393   -0.5263694    1.4408032 
C    -2.9935432    0.5635282    2.1938753 
H    -3.5329378   -1.5198358    1.9039502 
Pd   -1.5799130    0.0202815    0.4882044 
P     0.4902115    0.0898279    1.5615704 
P    -0.7128828    0.2014851   -1.6733645 
H    -4.0368761    0.5934929   -0.3328268 
H    -3.1004994    1.5632734    1.7429592 
C    -4.4491593   -3.6335903   -2.6995669 
C    -4.7961307   -2.3177942   -3.0377208 
C    -4.5672525   -1.2731413   -2.1340428 
C    -3.9822507   -1.5211041   -0.8720170 
C    -3.6386369   -2.8550761   -0.5439339 
C    -3.8716859   -3.8972410   -1.4456292 
H    -4.6259948   -4.4507993   -3.4063469 
H    -5.2456076   -2.0998866   -4.0121706 
H    -4.8344871   -0.2469272   -2.4082116 
H    -3.1645799   -3.0766948    0.4191407 
H    -3.5961327   -4.9219413   -1.1744865 
C    -2.0449554    0.7408463    6.3792812 
C    -2.5715448   -0.4438085    5.8397966 
C    -2.8746050   -0.5282314    4.4777296 
C    -2.6661232    0.5799279    3.6253766 
C    -2.1331476    1.7666417    4.1830498 
C    -1.8219809    1.8460151    5.5439286 
H    -1.8119371    0.8016657    7.4473737 
H    -2.7508924   -1.3080603    6.4872330 
H    -3.2923966   -1.4575309    4.0798456 
H    -1.9598668    2.6327289    3.5352601 
H    -1.4107401    2.7736271    5.9550316 
C     1.8703382    1.1952579   -1.0469142 
C     2.2513977   -0.1965051   -0.6329606 
C     0.6275889    1.4833378   -1.6375827 
C     1.7838272   -0.7776933    0.5572524 
C     2.8423334    2.2447957   -0.8776826 
C     3.1485273   -0.9334549   -1.4845142 
C     2.5184880    3.5885961   -1.2826072 
C     3.5157984   -2.2809617   -1.1327585 
C     0.3386251    2.8147473   -2.0624646 
C     2.1987335   -2.0954180    0.9132801 
C     1.2518388    3.8359541   -1.8809690 
C     3.0280503   -2.8280197    0.0859342 
C     4.1300675    2.0005198   -0.3113061 
C     3.6757954   -0.3809560   -2.6911998 
C    -0.0102955   -1.3011479   -2.4253384 
C    -1.9886481    0.8289370   -2.8371757 
C     1.1711334    1.7314633    1.9646297 
C     0.3640326   -0.8834724    3.1107062 
C     3.4781734    4.6257411   -1.0963803 
C     4.3665686   -3.0231052   -2.0026574 
C     5.0459943    3.0275595   -0.1537718 
C     4.5101678   -1.1238643   -3.5100313 
C     4.7194894    4.3525025   -0.5460027 
C     4.8551792   -2.4583828   -3.1690361 
C    -0.1927009   -2.5368828   -1.7791812 
C    -2.2532118    0.2221216   -4.0788413 
C     2.4678177    1.8918123    2.4957463 
C     0.8387109   -0.4357697    4.3572717 
C     0.7284343   -1.2528294   -3.6268750 
C    -2.8093217    1.9026034   -2.4236559 
C     0.4075162    2.8749254    1.6631615 
C    -0.2756064   -2.1409282    3.0402704 
C     0.3622757   -3.7025831   -2.3201259 
C    -3.2922447    0.6961945   -4.8917856 
C     2.9767665    3.1730393    2.7248999 
C     0.7093871   -1.2463368    5.4909853 
C     1.2723108   -2.4235498   -4.1603649 
C    -3.8374920    2.3747624   -3.2451270 
C     0.9306705    4.1533502    1.8872608 
C    -0.3819302   -2.9511594    4.1762144 
C     1.1069121   -3.6675142   -3.5143167 
C    -4.0985838    1.7813018   -4.4993564 
C     2.2237591    4.3263660    2.4181875 
C     0.1130745   -2.5211626    5.4229229 
C     1.7311841   -4.9161024   -4.0915748 
C    -5.1970720    2.3055081   -5.3942558 
C     2.8128745    5.7019159    2.6224960 
C    -0.0229468   -3.3742628    6.6623264 
H    -0.6137403    3.0310848   -2.5526831 
H     1.8586903   -2.5338215    1.8545606 
H     1.0098911    4.8507463   -2.2152806 
H     3.3271651   -3.8424252    0.3712317 
H     4.3884344    0.9860101    0.0042754 
H     3.4083530    0.6416450   -2.9708832 
H     3.2185184    5.6440450   -1.4057546 
H     4.6325637   -4.0495487   -1.7275005 
H     6.0288146    2.8174694    0.2806515 
H     4.9040839   -0.6805259   -4.4304313 
H     5.4533138    5.1549402   -0.4168684 
H     5.5129620   -3.0357395   -3.8270591 
H    -0.7606990   -2.5777025   -0.8437545 
H    -1.6655923   -0.6394629   -4.4077828 
H     3.0888087    1.0137727    2.7044254 
H     1.2997271    0.5517573    4.4499037 
H     0.8985459   -0.2946949   -4.1296554 
H    -2.6487201    2.3651913   -1.4418490 
H    -0.5878179    2.7562767    1.2194448 
H    -0.6856744   -2.4895974    2.0836709 
H     0.2224837   -4.6559598   -1.7988672 
H    -3.4853991    0.2001801   -5.8496626 
H     3.9898433    3.2834776    3.1270795 
H     1.0780434   -0.8751273    6.4538258 
H     1.8587380   -2.3695517   -5.0839975 
H    -4.4583370    3.2105866   -2.9032294 
H     0.3309652    5.0335388    1.6303625 
H    -0.8685334   -3.9298491    4.0962914 
H     1.3548703   -5.1118111   -5.1118889 
H     2.8277474   -4.8008283   -4.1648088 
H     1.5183992   -5.8019447   -3.4715390 
H    -4.8112700    3.1140551   -6.0437651 
H    -5.5939641    1.5151573   -6.0526681 
H    -6.0313884    2.7253055   -4.8076295 
H     2.0544657    6.4923064    2.5015639 
H     3.2618457    5.8001118    3.6263049 
H     3.6160572    5.8843030    1.8847454 
H    -0.7113093   -2.9008891    7.3872076 
H    -0.4148944   -4.3768503    6.4266997 
H     0.9492773   -3.4936596    7.1722753 
