119
Energy =
C    -3.6921697    0.4305940    0.8996460 
C    -3.4964756   -0.9128021    1.2911227 
C    -2.5878067   -1.2599937    2.3332408 
H    -3.9288645   -1.7079329    0.6700286 
Pd   -1.4903084   -0.1587625    0.7248787 
P     0.6774976   -0.6252263    1.4898889 
P    -0.7431831    0.9554961   -1.1991028 
H    -3.3661967    1.2176234    1.5989512 
H    -2.4533428   -0.5354874    3.1482393 
C    -6.4090521    1.7994602   -2.1341415 
C    -5.3660843    2.6252711   -1.6847518 
C    -4.4886040    2.1712057   -0.6963647 
C    -4.6241706    0.8745055   -0.1488940 
C    -5.6779582    0.0532390   -0.6113573 
C    -6.5640869    0.5148296   -1.5909832 
H    -7.1030288    2.1598671   -2.9004613 
H    -5.2364463    3.6257862   -2.1089315 
H    -3.6693857    2.8143537   -0.3547550 
H    -5.8274239   -0.9412845   -0.1785694 
H    -7.3853767   -0.1273917   -1.9257486 
C    -1.4576984   -5.2873047    3.3560242 
C    -1.3610571   -4.2542902    4.2988663 
C    -1.7360845   -2.9495570    3.9559329 
C    -2.2172049   -2.6498962    2.6623656 
C    -2.3123421   -3.7037460    1.7224597 
C    -1.9375491   -5.0055296    2.0654396 
H    -1.1613182   -6.3072559    3.6217084 
H    -0.9877981   -4.4616010    5.3071675 
H    -1.6520384   -2.1460135    4.6954021 
H    -2.6652671   -3.4991008    0.7054487 
H    -2.0120222   -5.8058663    1.3217772 
C     1.9406586    0.0016220   -1.3282125 
C     2.2889206    0.9560171   -0.2242101 
C     0.6609877   -0.0289585   -1.9071624 
C     1.8588966    0.7479308    1.0967452 
C     2.9653572   -0.8882957   -1.8124139 
C     3.1007367    2.1026914   -0.5383744 
C     2.6523522   -1.8363609   -2.8504671 
C     3.4159366    3.0552105    0.4946471 
C     0.3787221   -0.9559459   -2.9549864 
C     2.2249753    1.6759783    2.1165923 
C     1.3415607   -1.8393245   -3.4032452 
C     2.9689265    2.8014898    1.8205763 
C     4.2916011   -0.8780770   -1.2834767 
C     3.5853387    2.3505237   -1.8586417 
C    -2.0008810    1.0061605   -2.5350825 
C    -0.1528937    2.6685213   -0.9754546 
C     0.7049881   -0.7518295    3.3228529 
C     1.4225840   -2.1506616    0.8272330 
C     3.6609105   -2.7356995   -3.3034167 
C     4.1728909    4.2173787    0.1665161 
C     5.2543919   -1.7554656   -1.7548584 
C     4.3284719    3.4841683   -2.1439055 
C     4.9385041   -2.6962075   -2.7699789 
C     4.6205795    4.4308347   -1.1266220 
C    -2.1634459    2.0949116   -3.4112422 
C     0.5619001    3.3516773   -1.9827439 
C     0.0061700    0.2249889    4.0681686 
C     2.7723554   -2.4823354    1.0704243 
C    -2.8691259   -0.1005790   -2.6636542 
C    -0.4056695    3.3237266    0.2442893 
C     1.3354086   -1.8007401    4.0148697 
C     0.6453133   -2.9916113    0.0106878 
C    -3.1539458    2.0628253   -4.4018598 
C     1.0019065    4.6600817   -1.7686876 
C    -0.0317661    0.1669579    5.4642213 
C     3.3202691   -3.6381591    0.5085977 
C    -3.8466875   -0.1273188   -3.6598907 
C     0.0492105    4.6318381    0.4529949 
C     1.2887477   -1.8532922    5.4156772 
C     1.2069118   -4.1424839   -0.5530290 
C    -4.0099805    0.9560160   -4.5486521 
C     0.7608031    5.3223430   -0.5464221 
C     0.6136616   -0.8742631    6.1675748 
C     2.5516779   -4.4860217   -0.3172142 
C    -5.0903286    0.9243196   -5.6032252 
C     1.2685437    6.7277004   -0.3252884 
C     0.5833237   -0.9216631    7.6773447 
C     3.1684558   -5.7210900   -0.9302752 
H    -0.6132824   -0.9645266   -3.4142470 
H     1.9173329    1.4954546    3.1493012 
H     1.1034460   -2.5476307   -4.2041661 
H     3.2303689    3.5088722    2.6150558 
H     4.5439851   -0.1680606   -0.4912512 
H     3.3570206    1.6350226   -2.6532512 
H     3.4079310   -3.4566030   -4.0884855 
H     4.3994370    4.9382430    0.9597165 
H     6.2659993   -1.7278964   -1.3367894 
H     4.6905380    3.6545392   -3.1630947 
H     5.7077147   -3.3866726   -3.1312932 
H     5.2057902    5.3246957   -1.3664534 
H    -1.5336201    2.9834094   -3.3156671 
H     0.8042183    2.8454512   -2.9230929 
H    -0.5179984    1.0357530    3.5463647 
H     3.4026149   -1.8185400    1.6722169 
H    -2.7836799   -0.9400230   -1.9622229 
H    -0.9395243    2.7926826    1.0416529 
H     1.8446968   -2.5975401    3.4659798 
H    -0.3948276   -2.7234145   -0.2015434 
H    -3.2689898    2.9246399   -5.0687805 
H     1.5715218    5.1682548   -2.5541642 
H    -0.5786611    0.9369088    6.0202362 
H     4.3745077   -3.8740734    0.6899931 
H    -4.5148228   -0.9921567   -3.7337235 
H    -0.1397557    5.1200814    1.4153818 
H     1.7792996   -2.6857405    5.9323811 
H     0.5931376   -4.7775808   -1.2012376 
H    -6.0795746    0.7535056   -5.1412071 
H    -5.1329432    1.8672358   -6.1717042 
H    -4.9197105    0.0996077   -6.3189955 
H     0.7521592    7.4422352   -0.9923009 
H     1.1114386    7.0587023    0.7141125 
H     2.3477379    6.7913195   -0.5512613 
H     0.8564080   -1.9194576    8.0574234 
H     1.3002386   -0.1936276    8.1014226 
H    -0.4153048   -0.6599884    8.0675036 
H     3.3861053   -6.4780731   -0.1541725 
H     2.4997050   -6.1818816   -1.6753539 
H     4.1239637   -5.4758462   -1.4261299 
