119
Energy =
C    -3.7015477   -0.4060175   -0.0036163 
C    -3.4562858   -0.8853910    1.3238030 
C    -2.9538307   -0.0112070    2.3140310 
H    -3.4926210   -1.9626791    1.5285213 
Pd   -1.5686584   -0.1086905    0.5024371 
P     0.5209749   -0.2972339    1.5223826 
P    -0.7415963    0.6080701   -1.5607325 
H    -4.0413194    0.6334728   -0.1093354 
H    -3.0700286    1.0679778    2.1239419 
C    -4.4833845   -2.8818088   -3.4393313 
C    -4.8346041   -1.5242957   -3.4386319 
C    -4.5929046   -0.7334744   -2.3088409 
C    -3.9902617   -1.2823970   -1.1547526 
C    -3.6423765   -2.6549883   -1.1697410 
C    -3.8885664   -3.4440153   -2.2968284 
H    -4.6706622   -3.5006966   -4.3228174 
H    -5.2977566   -1.0747024   -4.3231691 
H    -4.8638612    0.3277603   -2.3181524 
H    -3.1550657   -3.1055323   -0.2974784 
H    -3.6100841   -4.5032053   -2.2896595 
C    -1.9370840   -0.8604093    6.3994631 
C    -1.7300636    0.4172566    5.8576149 
C    -2.0627889    0.6721536    4.5237243 
C    -2.6023379   -0.3447404    3.7001554 
C    -2.7947649   -1.6293030    4.2576661 
C    -2.4692415   -1.8800213    5.5938276 
H    -1.6866802   -1.0619787    7.4461233 
H    -1.3142638    1.2181635    6.4774954 
H    -1.9018362    1.6716336    4.1055310 
H    -3.2166609   -2.4351386    3.6501384 
H    -2.6333007   -2.8785041    6.0115175 
C     1.8545850    1.4233476   -0.7537826 
C     2.2412206   -0.0262828   -0.7058924 
C     0.6010927    1.8452215   -1.2302195 
C     1.7940845   -0.8855665    0.3112987 
C     2.8303850    2.4009631   -0.3454601 
C     3.1218024   -0.5267327   -1.7292151 
C     2.5004095    3.8020553   -0.3961164 
C     3.4904257   -1.9191030   -1.7306796 
C     0.3051274    3.2394341   -1.3030067 
C     2.2119996   -2.2495780    0.3217114 
C     1.2228143    4.1863497   -0.8896041 
C     3.0233877   -2.7524809   -0.6772730 
C     4.1277510    2.0275350    0.1192886 
C     3.6307226    0.3094893   -2.7689567 
C    -0.0536736   -0.6562707   -2.6765532 
C    -2.0386095    1.5011827   -2.5068388 
C     1.2098757    1.1958729    2.3078474 
C     0.4208912   -1.6240418    2.7840979 
C     3.4644947    4.7632814    0.0255775 
C     4.3213941   -2.4209799   -2.7742388 
C     5.0472393    2.9859706    0.5120946 
C     4.4484429   -0.2053782   -3.7614448 
C     4.7151522    4.3657208    0.4684380 
C     4.7925283   -1.5828793   -3.7710929 
C    -0.2191743   -2.0154210   -2.3537516 
C    -2.3239733    1.2264584   -3.8561661 
C     0.4395201    2.3741419    2.3151590 
C    -0.2252173   -2.8254783    2.4167645 
C     0.6653225   -0.3054250   -3.8386952 
C    -2.8537490    2.4314608   -1.8212263 
C     2.5154266    1.2256137    2.8401786 
C     0.9131409   -1.4955228    4.0957141 
C     0.3353632   -3.0055032   -3.1725284 
C    -3.3792415    1.8844749   -4.5054347 
C     0.9645732    3.5585226    2.8435572 
C    -0.3230599   -3.8878238    3.3218839 
C     1.2089496   -1.3029443   -4.6520086 
C    -3.8978359    3.0876952   -2.4780288 
C     3.0264793    2.4116605    3.3746050 
C     0.7924033   -2.5579898    4.9991330 
C     1.0623056   -2.6690150   -4.3307621 
C    -4.1814594    2.8273900   -3.8375225 
C     2.2666019    3.6004506    3.3795095 
C     0.1881575   -3.7759403    4.6298557 
C     1.6694822   -3.7333711   -5.2141602 
C    -5.3105967    3.5446442   -4.5397663 
C     2.8571106    4.8861647    3.9079106 
C     0.0804321   -4.9140892    5.6175305 
H    -0.6566657    3.5677361   -1.7048584 
H     1.8884634   -2.9082781    1.1311529 
H     0.9756066    5.2515732   -0.9547734 
H     3.3243699   -3.8055668   -0.6584994 
H     4.3905529    0.9672608    0.1672479 
H     3.3626181    1.3694057   -2.7801060 
H     3.2003716    5.8256923   -0.0152491 
H     4.5865121   -3.4838909   -2.7695866 
H     6.0374755    2.6776726    0.8631163 
H     4.8287169    0.4539089   -4.5486237 
H     5.4519981    5.1130768    0.7808247 
H     5.4357401   -1.9779358   -4.5643014 
H    -0.7704579   -2.2913743   -1.4485230 
H    -1.7399262    0.4811810   -4.4032857 
H    -0.5636666    2.3640352    1.8733812 
H    -0.6515386   -2.9279848    1.4103909 
H     0.8244032    0.7488324   -4.0897915 
H    -2.6738485    2.6336519   -0.7579250 
H     3.1411849    0.3268137    2.8127697 
H     1.3774146   -0.5603719    4.4216354 
H     0.2128343   -4.0592821   -2.8991101 
H    -3.5870953    1.6480504   -5.5549959 
H     0.3589661    4.4713686    2.8256565 
H    -0.8202375   -4.8143582    3.0131311 
H     1.7839899   -1.0167168   -5.5392187 
H    -4.5132187    3.8068422   -1.9255039 
H     4.0459719    2.4236672    3.7754885 
H     1.1698130   -2.4321455    6.0201205 
H     1.7085690   -4.7098210   -4.7041805 
H     1.0760227   -3.8597163   -6.1390033 
H     2.6942369   -3.4566753   -5.5164530 
H    -5.5077336    3.1149642   -5.5350847 
H    -6.2423291    3.4958203   -3.9490835 
H    -5.0675406    4.6149764   -4.6743910 
H     3.5908370    5.2900685    3.1856326 
H     2.0832732    5.6542205    4.0694378 
H     3.3907424    4.7218426    4.8599311 
H    -0.2821674   -4.5560514    6.5972506 
H    -0.6042384   -5.7003569    5.2599252 
H     1.0689384   -5.3794768    5.7884380 
