98
Energy =
C     2.5801593    0.5492951   -0.3549305 
C     2.4257400   -0.7743491   -0.9263735 
C     1.7966261   -1.0066320   -2.1443423 
H     2.8675840   -1.6195455   -0.3848933 
Pd    0.4375146    0.0877038   -0.0828158 
P    -1.4147018   -1.5104629    0.4378459 
P    -0.2867827    2.3443547    0.1316616 
H     2.6836592    1.3760008   -1.0656255 
H     1.4149659   -0.1326823   -2.6905267 
C     4.9432156    0.9758310    3.2287414 
C     4.0310814   -0.0858864    3.1118651 
C     3.2696711   -0.2325089    1.9481121 
C     3.3872919    0.6885612    0.8787515 
C     4.3263563    1.7377995    1.0050667 
C     5.0948681    1.8804883    2.1663010 
H     5.5404159    1.0908559    4.1389753 
H     3.9133890   -0.8014763    3.9322071 
H     2.5549887   -1.0584359    1.8742488 
H     4.4680016    2.4367928    0.1735681 
H     5.8204385    2.6970739    2.2402341 
C     1.4230547   -4.6828178   -4.3017313 
C     0.8455527   -3.5015014   -4.7933983 
C     0.9857257   -2.3082842   -4.0793315 
C     1.7014553   -2.2716156   -2.8555726 
C     2.2946798   -3.4712815   -2.3829446 
C     2.1515397   -4.6612275   -3.0980405 
H     1.3166627   -5.6188327   -4.8594807 
H     0.2882267   -3.5130303   -5.7353843 
H     0.5317196   -1.3868141   -4.4603526 
H     2.8708422   -3.4704122   -1.4530243 
H     2.6150163   -5.5795008   -2.7236862 
C    -2.1736081   -2.4109636   -1.0962712 
C    -0.5766665   -2.7554102    1.6595902 
C    -0.3094578    3.1766237   -1.6146567 
C     0.5297612    3.4963003    1.4350657 
C    -2.9488322   -1.1416561    1.4576781 
C    -2.0931441    2.3941755    0.5539510 
C    -3.9492671   -0.0537537    1.0009004 
C    -2.4833679    1.8210018    1.9252766 
C    -3.8860750    1.1961493    1.8946233 
C    -1.2696978   -3.5638959   -1.5697416 
C    -2.2306150   -1.3389152   -2.2080247 
C    -3.5921076   -2.9677847   -0.8507667 
C    -0.1802803   -1.9091746    2.8985175 
C     0.7185929   -3.3271202    1.0458635 
C    -1.4891545   -3.9200091    2.0945242 
C    -1.2875207    2.3544791   -2.4883803 
C    -0.7828548    4.6455410   -1.5668144 
C     1.0742061    3.1052715   -2.2944678 
C    -0.4029063    4.6401961    1.8927031 
C     1.8294405    4.1078831    0.8770693 
C     0.8740246    2.6003919    2.6497206 
H    -3.4635239   -2.1100152    1.5506106 
H    -2.5831776   -0.9019499    2.4694775 
H    -2.5579848    1.7884597   -0.2406394 
H    -2.4753833    3.4232405    0.4344611 
H    -3.7848891    0.2230797   -0.0565600 
H    -4.9712349   -0.4691454    1.0374704 
H    -1.7496684    1.0508786    2.2302775 
H    -2.4384564    2.6076577    2.6971162 
H    -4.6254709    1.9425394    1.5484516 
H    -4.1806563    0.9153228    2.9232900 
H    -0.2242695   -3.2472989   -1.6868016 
H    -1.6200191   -3.9125044   -2.5582234 
H    -1.3056390   -4.4252775   -0.8832831 
H    -2.6727507   -1.7751828   -3.1228024 
H    -2.8452397   -0.4692402   -1.9177555 
H    -1.2179514   -0.9758413   -2.4538112 
H    -3.9228348   -3.4920327   -1.7663037 
H    -4.3315753   -2.1774740   -0.6442537 
H    -3.6188083   -3.7006323   -0.0268382 
H     0.3741612   -0.9966045    2.6095276 
H    -1.0522984   -1.6026720    3.4994862 
H     0.4721365   -2.5124430    3.5555834 
H     1.3485796   -2.5205829    0.6373737 
H     0.5284571   -4.0508252    0.2413358 
H     1.2957107   -3.8445108    1.8338843 
H    -2.3977152   -3.5769645    2.6155970 
H    -1.7901629   -4.5510911    1.2419899 
H    -0.9331531   -4.5640739    2.8010591 
H    -1.1982680    2.6906260   -3.5374554 
H    -2.3406039    2.4866371   -2.1913245 
H    -1.0448149    1.2781654   -2.4518038 
H    -0.8896038    5.0153408   -2.6033763 
H    -1.7649037    4.7574158   -1.0777513 
H    -0.0594251    5.3021403   -1.0579693 
H     1.0153672    3.6152797   -3.2731562 
H     1.3666983    2.0600700   -2.4863023 
H     1.8714640    3.5925591   -1.7142671 
H    -0.7127307    5.2958590    1.0646176 
H    -1.3056832    4.2704528    2.4035563 
H     0.1485319    5.2643350    2.6199276 
H     1.6327144    4.8732764    0.1089056 
H     2.4921888    3.3403774    0.4551658 
H     2.3782988    4.5975394    1.7018509 
H    -0.0246904    2.1508041    3.1014643 
H     1.5648676    1.7890373    2.3729013 
H     1.3649829    3.2184790    3.4238130 
