98
Energy =
C     2.2677671    0.6044974   -2.1628618 
C     2.3069185   -0.3746211   -1.1811489 
C     1.4650594   -1.5620495   -1.2582562 
H     3.0881743   -0.3395668   -0.4100817 
Pd    0.1892998   -0.1993030   -0.2037694 
P    -1.7323179   -1.5585282   -0.3757183 
P    -0.2995004    1.8629476    1.1832047 
H     1.4888922    0.5038263   -2.9320947 
H     1.0419722   -1.7396472   -2.2564113 
C     4.8989438    3.9190133   -2.7658201 
C     5.2516580    2.9166759   -1.8432303 
C     4.4090471    1.8239912   -1.6377742 
C     3.1878749    1.7096901   -2.3531539 
C     2.8619182    2.7157196   -3.2985721 
C     3.7039084    3.8135279   -3.4960448 
H     5.5638694    4.7743188   -2.9240446 
H     6.1932151    2.9901716   -1.2899021 
H     4.7009247    1.0451665   -0.9265779 
H     1.9301484    2.6315274   -3.8684840 
H     3.4352377    4.5854546   -4.2240978 
C     2.9159281   -5.1943008    0.5699222 
C     2.8355256   -4.0155427    1.3292575 
C     2.3709066   -2.8322807    0.7446553 
C     1.9572946   -2.8041209   -0.6062341 
C     2.0646800   -3.9932938   -1.3634109 
C     2.5387741   -5.1756762   -0.7816192 
H     3.2790038   -6.1200627    1.0276209 
H     3.1362010   -4.0197652    2.3821526 
H     2.3082460   -1.9197011    1.3464611 
H     1.7777795   -3.9875623   -2.4208297 
H     2.6146005   -6.0856517   -1.3856912 
C    -2.1957354   -1.9510320   -2.2056509 
C    -1.8573255   -3.1000252    0.7850752 
C     0.6036959    3.3496299    0.3464334 
C     0.4555838    1.5241944    2.9195885 
C    -3.1756133   -0.5621633    0.2329506 
C    -1.9059257    2.7593179    1.6069670 
C    -3.3694887    0.8399037   -0.3650181 
C    -3.2415976    2.0439640    1.8945396 
C    -4.0734020    1.7736774    0.6310272 
C    -1.4532775   -3.1939549   -2.7413341 
C    -1.7658230   -0.7189896   -3.0402074 
C    -3.7151069   -2.1715431   -2.3802096 
C    -3.3172098   -3.5373366    1.0424236 
C    -1.2205840   -2.6474485    2.1176030 
C    -1.0688271   -4.3149872    0.2586593 
C     0.3066708    4.7437709    0.9454187 
C     2.1220645    3.1047926    0.3979656 
C     0.1092704    3.3342154   -1.1191353 
C     1.6757222    0.5965140    2.7360913 
C    -0.6212458    0.7593630    3.7222910 
C     0.8573747    2.7797425    3.7168486 
H    -4.0992682   -1.1538840    0.1222515 
H    -2.9826336   -0.4839789    1.3170563 
H    -2.0665831    3.4554321    0.7649317 
H    -1.6297458    3.3934058    2.4679285 
H    -2.3900915    1.2729046   -0.6460537 
H    -3.9597021    0.7747873   -1.2958318 
H    -3.0855998    1.1118518    2.4640658 
H    -3.8282109    2.6991508    2.5632907 
H    -4.2946610    2.7364368    0.1325473 
H    -5.0496280    1.3412192    0.9209018 
H    -0.3911889   -3.2104196   -2.4567765 
H    -1.5102199   -3.1931440   -3.8451287 
H    -1.9129670   -4.1290409   -2.3885326 
H    -2.0637985   -0.8794459   -4.0927820 
H    -2.2379497    0.2135775   -2.6945916 
H    -0.6730411   -0.5731778   -3.0129937 
H    -3.9131798   -2.4255839   -3.4377799 
H    -4.3044780   -1.2705337   -2.1455681 
H    -4.0883265   -3.0068568   -1.7656585 
H    -3.9096264   -2.7727205    1.5700131 
H    -3.8415427   -3.8128201    0.1125952 
H    -3.2977825   -4.4359148    1.6860529 
H    -1.7688557   -1.8057718    2.5726717 
H    -0.1676894   -2.3491290    1.9797490 
H    -1.2516071   -3.4864507    2.8362993 
H    -1.5900371   -4.8208951   -0.5670970 
H    -0.0564501   -4.0493373   -0.0709393 
H    -0.9694558   -5.0464681    1.0808766 
H     0.9314653    5.4837179    0.4116417 
H     0.5563832    4.8132564    2.0145369 
H    -0.7417631    5.0538824    0.8104435 
H     2.6339736    3.7690348   -0.3206083 
H     2.5353070    3.3140482    1.3978637 
H     2.3702277    2.0665821    0.1319755 
H     0.6244847    4.1268128   -1.6918669 
H    -0.9771784    3.5244565   -1.1864854 
H     0.3145735    2.3657570   -1.6064950 
H     1.3828009   -0.3131751    2.1776064 
H     2.5022391    1.0832223    2.1946482 
H     2.0578124    0.2810747    3.7245065 
H    -1.0254371   -0.0909209    3.1494897 
H    -1.4555227    1.4139347    4.0234895 
H    -0.1674490    0.3557787    4.6459125 
H     1.6956402    3.3245690    3.2549220 
H     0.0131617    3.4785826    3.8497833 
H     1.1824302    2.4697337    4.7273657 
