98
Energy =
C     2.2479684    0.6635840   -2.0371391 
C     2.3590383   -0.4301165   -1.1873630 
C     1.5164919   -1.6028145   -1.3466409 
H     3.1624234   -0.4594855   -0.4400185 
Pd    0.2556348   -0.2351154   -0.2313469 
P    -1.7087572   -1.5468171   -0.4162275 
P    -0.2429329    1.6971850    1.2662014 
H     1.4545481    0.6227123   -2.7968474 
H     1.0900646   -1.7213421   -2.3520684 
C     4.7901614    4.0851153   -2.3873558 
C     3.6093701    3.9907164   -3.1407874 
C     2.7943784    2.8613826   -3.0198077 
C     3.1386516    1.8066213   -2.1370531 
C     4.3443598    1.9119796   -1.3950981 
C     5.1562379    3.0397101   -1.5190866 
H     5.4325533    4.9665304   -2.4826029 
H     3.3285675    4.7972127   -3.8255268 
H     1.8716601    2.7878683   -3.6058121 
H     4.6461810    1.1033750   -0.7220763 
H     6.0853110    3.1073348   -0.9442161 
C     2.7836482   -5.3428423    0.3941732 
C     2.7286436   -4.1859435    1.1887915 
C     2.3240523   -2.9683271    0.6309431 
C     1.9507471   -2.8816580   -0.7297512 
C     2.0289525   -4.0504714   -1.5208552 
C     2.4407120   -5.2681605   -0.9644720 
H     3.0984118   -6.2959561    0.8309877 
H     2.9993342   -4.2350091    2.2486514 
H     2.2693458   -2.0746646    1.2620633 
H     1.7698395   -4.0008142   -2.5842686 
H     2.4952696   -6.1619779   -1.5944434 
C    -2.1843883   -1.8998647   -2.2517012 
C    -1.8972281   -3.1076200    0.7091751 
C     0.3012547    3.3730443    0.4828447 
C     0.8078597    1.3699932    2.8606907 
C    -3.1082471   -0.4974250    0.2118461 
C    -1.9023051    2.1112887    2.0658438 
C    -3.3056729    0.8776137   -0.4483017 
C    -3.0446589    2.7852756    1.2645738 
C    -4.0102658    1.8685308    0.5002291 
C    -1.7165704   -0.6773504   -3.0799816 
C    -3.7087942   -2.0787733   -2.4294860 
C    -1.4733728   -3.1577548   -2.7958206 
C    -1.1144478   -4.3265473    0.1812241 
C    -3.3703808   -3.5219024    0.9226703 
C    -1.2850062   -2.6949032    2.0645964 
C     1.8399822    3.4040603    0.4189886 
C    -0.2470343    3.3741489   -0.9650085 
C    -0.1862464    4.6346686    1.2296712 
C     2.1645959    0.7575841    2.4463386 
C     0.0518486    0.3016965    3.6838366 
C     1.0351698    2.6055644    3.7537174 
H    -4.0483603   -1.0716378    0.1567378 
H    -2.8812550   -0.3755226    1.2849414 
H    -2.2679903    1.1822690    2.5352600 
H    -1.6252497    2.7811740    2.8988909 
H    -2.3297721    1.2959465   -0.7607819 
H    -3.8960707    0.7526177   -1.3718118 
H    -3.6322525    3.3812433    1.9865207 
H    -2.6278404    3.5173916    0.5542228 
H    -4.6978373    2.5146670   -0.0737311 
H    -4.6465115    1.3076341    1.2121126 
H    -2.1632599    0.2679768   -2.7371292 
H    -2.0125737   -0.8282985   -4.1344733 
H    -0.6202927   -0.5640711   -3.0471324 
H    -3.9140985   -2.2993080   -3.4932022 
H    -4.1006812   -2.9212636   -1.8374900 
H    -4.2776262   -1.1719782   -2.1687672 
H    -1.5240642   -3.1445808   -3.8998148 
H    -1.9606852   -4.0832813   -2.4552293 
H    -0.4138486   -3.2052283   -2.5049362 
H    -1.6258344   -4.8160481   -0.6600550 
H    -0.0926464   -4.0691904   -0.1265231 
H    -1.0396354   -5.0691179    0.9960342 
H    -3.8756751   -3.7761024   -0.0232446 
H    -3.9623910   -2.7535193    1.4454612 
H    -3.3832465   -4.4289182    1.5545196 
H    -0.2145042   -2.4522751    1.9566079 
H    -1.8036874   -1.8294857    2.5105248 
H    -1.3769941   -3.5364164    2.7751554 
H     2.1668851    4.1928210   -0.2821633 
H     2.2429772    2.4506656    0.0518369 
H     2.2922799    3.6212459    1.3992122 
H     0.1336867    4.2642073   -1.4990151 
H     0.0814883    2.4749032   -1.5154598 
H    -1.3483886    3.4094309   -0.9995602 
H     0.2295221    5.5215327    0.7163009 
H     0.1640588    4.6660692    2.2723343 
H    -1.2808459    4.7446686    1.2297069 
H     2.0049096   -0.1414608    1.8224791 
H     2.8021629    1.4555645    1.8847265 
H     2.7178100    0.4476540    3.3519964 
H    -0.2053172   -0.5702579    3.0643272 
H    -0.8681126    0.6946781    4.1466628 
H     0.7063238   -0.0474957    4.5032886 
H     1.6696830    3.3664942    3.2738435 
H     0.0882568    3.0808390    4.0626650 
H     1.5505448    2.2826239    4.6772573 
