98
Energy =
C     2.4347947    0.5897313   -0.9354175 
C     2.1521594   -0.7594061   -1.3394099 
C     1.2992009   -1.0596728   -2.4040679 
H     2.6776294   -1.5780409   -0.8335727 
Pd    0.3439833    0.0694526   -0.2934890 
P    -1.3814911   -1.5097913    0.4292689 
P    -0.3531290    2.2813763    0.5351407 
H     2.3243183    1.3555702   -1.7131670 
H     0.8443739   -0.2168956   -2.9438671 
C     5.6565913    1.2835112    1.8438155 
C     4.7938666    0.1900690    2.0273815 
C     3.7438754   -0.0347873    1.1325150 
C     3.5253989    0.8296193    0.0332794 
C     4.4139776    1.9145761   -0.1472481 
C     5.4656460    2.1404630    0.7492534 
H     6.4771944    1.4613620    2.5462338 
H     4.9380747   -0.4854172    2.8770408 
H     3.0598451   -0.8728333    1.3059406 
H     4.2897491    2.5772978   -1.0105262 
H     6.1442017    2.9845095    0.5881291 
C     0.8788745   -4.8254780   -4.4042458 
C     1.7697633   -4.7125100   -3.3214547 
C     1.9129547   -3.4959502   -2.6526285 
C     1.1618806   -2.3592850   -3.0513108 
C     0.2869788   -2.4859798   -4.1585647 
C     0.1418956   -3.7070461   -4.8238722 
H     0.7706295   -5.7815786   -4.9264122 
H     2.3583947   -5.5793036   -3.0047825 
H     2.6142268   -3.4257474   -1.8156811 
H    -0.2821884   -1.6123585   -4.4939194 
H    -0.5405992   -3.7867329   -5.6759393 
C    -2.1796316   -2.7865203   -0.7832229 
C    -0.5414849   -2.4653158    1.8843655 
C     0.0366165    3.5890515   -0.8376759 
C     0.3410815    2.8764605    2.2425249 
C    -2.8567121   -0.7144009    1.2555061 
C    -2.1743919    2.5911129    0.8639424 
C    -3.8974038   -0.0346797    0.3351808 
C    -3.2157964    2.3955380   -0.2457413 
C    -3.3883711    0.9556731   -0.7344254 
C    -2.4881870   -2.0353510   -2.1004501 
C    -3.4782900   -3.4315346   -0.2473926 
C    -1.1743707   -3.9154989   -1.0868617 
C     0.8115896   -3.0421079    1.4073209 
C    -1.4085307   -3.5844566    2.4936864 
C    -0.2262596   -1.4244435    2.9804343 
C    -0.8173919    4.8747704   -0.7386095 
C     1.5254121    3.9872292   -0.7931721 
C    -0.2603309    2.9034918   -2.1942660 
C    -0.4851530    2.1951490    3.3609556 
C     0.2544665    4.4014839    2.4620410 
C     1.8002490    2.4081898    2.3666560 
H    -3.3665243   -1.4823269    1.8646185 
H    -2.4255242    0.0113061    1.9639991 
H    -2.2201248    3.6307454    1.2346757 
H    -2.4389253    1.9552905    1.7219961 
H    -4.4761443   -0.8239575   -0.1714482 
H    -4.6287646    0.4822816    0.9866849 
H    -4.1839441    2.7546483    0.1539581 
H    -2.9927218    3.0470270   -1.1075603 
H    -2.4342523    0.5970674   -1.1666395 
H    -4.1153757    0.9675299   -1.5661654 
H    -3.3643386   -1.3762364   -2.0112536 
H    -2.7071921   -2.7726160   -2.8940133 
H    -1.6294500   -1.4268538   -2.4283394 
H    -3.8484082   -4.1409669   -1.0107576 
H    -3.3163916   -4.0019655    0.6788716 
H    -4.2829945   -2.7021360   -0.0686999 
H    -1.5509947   -4.5115848   -1.9375914 
H    -1.0523445   -4.6012615   -0.2334839 
H    -0.1880296   -3.5264560   -1.3710722 
H     0.7055019   -3.8510381    0.6716209 
H     1.4336543   -2.2481805    0.9591279 
H     1.3555192   -3.4494089    2.2792388 
H    -1.5646523   -4.4218092    1.7957148 
H    -2.3931115   -3.2174422    2.8301246 
H    -0.8897193   -3.9907886    3.3816183 
H     0.3834440   -0.5970178    2.5760271 
H    -1.1362988   -1.0078971    3.4427697 
H     0.3560356   -1.9118156    3.7835892 
H    -0.4943936    5.5603342   -1.5436722 
H    -0.6807169    5.4041853    0.2152617 
H    -1.8924624    4.6895272   -0.8857276 
H     1.7813776    4.5349437   -1.7186296 
H     1.7540292    4.6497138    0.0558760 
H     2.1839212    3.1133182   -0.7223080 
H    -0.0640241    3.6199562   -3.0131200 
H    -1.3084168    2.5733777   -2.2801232 
H     0.3822833    2.0210872   -2.3496163 
H    -1.4743052    2.6613029    3.4976369 
H    -0.6228784    1.1190281    3.1796464 
H     0.0622894    2.3028310    4.3146576 
H    -0.7762407    4.7846875    2.3712105 
H     0.9061663    4.9700521    1.7815105 
H     0.5902330    4.6185124    3.4928231 
H     1.8702635    1.3116484    2.2967541 
H     2.4535301    2.8348154    1.5909300 
H     2.2012358    2.7139770    3.3500610 
