98
Energy =
C     1.5112191   -1.6176709   -1.1244484 
C     2.3412588   -0.4488204   -0.8672310 
C     2.9264847   -0.2295001    0.3749018 
H     2.6276125    0.1839141   -1.7176363 
Pd    0.1329839   -0.1944985   -0.2262944 
P    -0.5360130    2.1915054    0.2301835 
P    -1.5340238   -1.8011282    0.4348749 
H     1.6736520   -2.4561526   -0.4362524 
H     2.6301417   -0.9064447    1.1876098 
C     0.9891233   -2.8671049   -5.2248477 
C     1.3879629   -3.7875956   -4.2433709 
C     1.5498700   -3.3750883   -2.9156345 
C     1.3151063   -2.0331662   -2.5357116 
C     0.9379957   -1.1145712   -3.5438005 
C     0.7695057   -1.5262650   -4.8695363 
H     0.8577440   -3.1905873   -6.2624048 
H     1.5800637   -4.8308274   -4.5145569 
H     1.8798757   -4.0989838   -2.1626050 
H     0.7412830   -0.0723383   -3.2758897 
H     0.4629633   -0.7997613   -5.6291482 
C     6.0104674    2.5141408    1.4884895 
C     5.3228973    1.7751100    2.4655353 
C     4.3217749    0.8795443    2.0833123 
C     3.9739390    0.7145198    0.7167583 
C     4.6949797    1.4548256   -0.2578362 
C     5.6983430    2.3447822    0.1272439 
H     6.8000890    3.2121978    1.7849346 
H     5.5746726    1.8957729    3.5238207 
H     3.7846654    0.3019476    2.8437059 
H     4.4778927    1.3158973   -1.3212261 
H     6.2511903    2.9041806   -0.6340211 
C    -0.1903767    2.7643787    2.0295359 
C     0.4404446    3.2929522   -1.0210511 
C    -0.9432129   -2.5736597    2.1125737 
C    -2.0379318   -3.2032484   -0.7890456 
C    -2.2579714    2.8550914   -0.1129518 
C    -3.1941652   -1.1066094    0.9570901 
C    -3.4410065    1.9302481    0.1829961 
C    -4.1185806   -0.5040110   -0.1181891 
C    -3.5363984    0.7424507   -0.7920365 
C    -1.3724463    2.2689528    2.8940175 
C    -0.0631836    4.2897196    2.2117043 
C     1.1048037    2.0750054    2.5048637 
C     1.9312029    3.2999324   -0.6479473 
C    -0.0660999    4.7461267   -1.1565529 
C     0.2725832    2.5830588   -2.3831347 
C    -1.8447794   -3.7224089    2.6118000 
C     0.5110298   -3.0754146    1.9928807 
C    -0.9454931   -1.4436054    3.1663404 
C    -0.9574354   -4.3024022   -0.8196917 
C    -2.1346547   -2.5439033   -2.1857199 
C    -3.3912581   -3.8717438   -0.4496073 
H    -2.3457217    3.8087936    0.4379871 
H    -2.2720680    3.1147327   -1.1856539 
H    -2.9618930   -0.3374105    1.7125641 
H    -3.7184840   -1.9189886    1.4899903 
H    -3.3797373    1.5659002    1.2216662 
H    -4.3722827    2.5240344    0.1345624 
H    -4.3754322   -1.2607613   -0.8764119 
H    -5.0734403   -0.2419180    0.3772655 
H    -4.1513127    1.0217658   -1.6662383 
H    -2.5288323    0.4991798   -1.1866496 
H    -2.2892800    2.8543104    2.7133975 
H    -1.1117914    2.3830678    3.9621719 
H    -1.5937561    1.2043771    2.7166721 
H     0.0359957    4.5111939    3.2905495 
H     0.8272105    4.6997409    1.7093163 
H    -0.9544032    4.8306515    1.8492987 
H     1.2730251    2.2971661    3.5747880 
H     1.9886040    2.4205916    1.9479367 
H     1.0396113    0.9786041    2.3865768 
H     2.1403832    3.9138651    0.2428434 
H     2.2897660    2.2802653   -0.4514841 
H     2.5244033    3.7164586   -1.4827365 
H    -0.0133180    5.3083797   -0.2132555 
H    -1.0968687    4.8047614   -1.5406803 
H     0.5801457    5.2666519   -1.8877383 
H     0.7115441    1.5709354   -2.3506776 
H    -0.7855849    2.4837116   -2.6836397 
H     0.7936773    3.1578261   -3.1708231 
H    -1.5020890   -4.0236679    3.6188779 
H    -1.7870237   -4.6130318    1.9669446 
H    -2.9016139   -3.4214512    2.7050665 
H     0.8266102   -3.4922785    2.9666452 
H     0.6395477   -3.8636571    1.2367203 
H     1.1893375   -2.2405758    1.7504942 
H    -0.4769986   -1.8192173    4.0943313 
H    -1.9610717   -1.1045929    3.4276383 
H    -0.3579202   -0.5768244    2.8189127 
H     0.0503086   -3.8857473   -0.9379840 
H    -0.9779528   -4.9274834    0.0877114 
H    -1.1430248   -4.9646998   -1.6845029 
H    -1.1857059   -2.0731419   -2.4800337 
H    -2.9256915   -1.7786265   -2.2324385 
H    -2.3763202   -3.3203503   -2.9344785 
H    -3.3990637   -4.3428991    0.5444443 
H    -4.2433050   -3.1782440   -0.5132088 
H    -3.5689741   -4.6701412   -1.1935303 
