98
Energy =
C     2.4454541   -1.9189633    0.1191642 
C     2.3643710   -0.9435324   -0.8633456 
C     2.4983737    0.4760814   -0.5764414 
H     2.3138712   -1.2486989   -1.9162172 
Pd    0.4148342    0.0884805   -0.1074904 
P     0.0346490    2.0216139    1.1801141 
P    -1.8155850   -1.1191469   -0.3519528 
H     2.5605879   -1.5751698    1.1566749 
H     3.0262218    0.7181472    0.3541410 
C     2.5858536   -6.1744011   -0.2959177 
C     2.6095424   -5.5757480    0.9743236 
C     2.5703324   -4.1842712    1.0883339 
C     2.5025889   -3.3584559   -0.0639702 
C     2.5035842   -3.9809039   -1.3397634 
C     2.5382192   -5.3720361   -1.4503511 
H     2.6170417   -7.2648473   -0.3888876 
H     2.6603767   -6.1975129    1.8737036 
H     2.5801963   -3.7166677    2.0792004 
H     2.4903547   -3.3722301   -2.2485068 
H     2.5399299   -5.8387004   -2.4405303 
C     3.5351583    3.1048424   -3.8423279 
C     4.1863050    3.2138944   -2.6041482 
C     3.8428080    2.3582292   -1.5507076 
C     2.8365963    1.3776608   -1.7060689 
C     2.2148764    1.2601509   -2.9721267 
C     2.5530875    2.1172593   -4.0240081 
H     3.7992251    3.7771573   -4.6649205 
H     4.9707612    3.9641207   -2.4603547 
H     4.3746200    2.4370710   -0.5962867 
H     1.4411220    0.5017603   -3.1274196 
H     2.0486906    2.0162887   -4.9905668 
C     0.6842266    1.6859626    2.9645168 
C     0.5625581    3.7626127    0.5624247 
C    -2.0049323   -2.6628218    0.7815099 
C    -1.6904489   -1.6343931   -2.2120099 
C    -1.7909622    2.1862134    1.4514596 
C    -3.5897661   -0.4685573   -0.3982404 
C    -2.6170481    2.4024516    0.1738769 
C    -4.2033090    0.4547495    0.6781936 
C    -4.0727700    1.9496994    0.3509321 
C    -0.0804534    0.4499202    3.4948197 
C     0.4517242    2.8746890    3.9207648 
C     2.1824482    1.3137339    2.9379951 
C    -0.2875964    4.8936487    1.1850330 
C     0.3624601    3.7678873   -0.9721881 
C     2.0485442    4.0211060    0.8795571 
C    -2.6390316   -2.1818820    2.1077199 
C    -2.8840883   -3.7827900    0.1907200 
C    -0.6030099   -3.2185558    1.0805669 
C    -1.3559203   -0.3133974   -2.9471885 
C    -2.9611352   -2.2397656   -2.8471041 
C    -0.5216445   -2.6221622   -2.3800164 
H    -2.0727789    1.2250234    1.9104218 
H    -1.9991308    2.9725939    2.1986258 
H    -3.6871535    0.0280251   -1.3796896 
H    -4.1890148   -1.3928155   -0.4724635 
H    -2.5945688    3.4648881   -0.1228126 
H    -2.1545605    1.8388647   -0.6602071 
H    -5.2772491    0.2073618    0.7534612 
H    -3.7872293    0.2441806    1.6773473 
H    -4.5559927    2.5413357    1.1510469 
H    -4.6307035    2.1679831   -0.5792940 
H    -1.1443199    0.6599884    3.6927071 
H     0.3742413    0.1303935    4.4499604 
H    -0.0101976   -0.3933587    2.7839673 
H     0.7413302    2.5690131    4.9431554 
H     1.0633224    3.7514656    3.6554818 
H    -0.6071368    3.1814077    3.9577149 
H     2.5215999    1.1266495    3.9730553 
H     2.8208491    2.1038720    2.5165144 
H     2.3428628    0.3873800    2.3615508 
H    -1.3494529    4.8295336    0.8982280 
H    -0.2224040    4.9250808    2.2834537 
H     0.0930529    5.8588132    0.8030507 
H    -0.6913395    3.6200593   -1.2550624 
H     0.9629163    2.9899481   -1.4648905 
H     0.6817684    4.7486432   -1.3697839 
H     2.2211840    4.1887929    1.9550549 
H     2.6878562    3.1942084    0.5410217 
H     2.3764257    4.9303141    0.3439073 
H    -2.5588783   -2.9924806    2.8551378 
H    -3.7091405   -1.9441361    1.9952229 
H    -2.1210019   -1.2989221    2.5189321 
H    -3.0159247   -4.5705904    0.9554014 
H    -3.8919310   -3.4290011   -0.0871346 
H    -2.4201373   -4.2549327   -0.6900648 
H    -0.6797631   -4.0650060    1.7873394 
H     0.0427938   -2.4488881    1.5385910 
H    -0.1002501   -3.5877560    0.1748739 
H    -2.1876457    0.4115694   -2.9013407 
H    -0.4661793    0.1785223   -2.5080032 
H    -1.1522915   -0.5200040   -4.0140592 
H    -3.8133264   -1.5417831   -2.8461826 
H    -3.2757901   -3.1769298   -2.3653800 
H    -2.7374369   -2.4720773   -3.9050619 
H     0.3802623   -2.2568134   -1.8641356 
H    -0.7600305   -3.6224156   -1.9833390 
H    -0.2813992   -2.7378220   -3.4530087 
