98
Energy =
C     2.4940605   -1.9434088   -0.0337927 
C     2.3415428   -0.9239317   -0.9616736 
C     2.4982404    0.4807769   -0.6210202 
H     2.2181955   -1.1822222   -2.0211166 
Pd    0.4432288    0.0627187   -0.0507230 
P     0.0328513    2.0029376    1.2207081 
P    -1.7714458   -1.1464371   -0.1378592 
H     2.6861503   -1.6472950    1.0071362 
H     3.0688803    0.6805349    0.2955483 
C     2.6488745   -6.1721534   -0.6657104 
C     2.7712782   -5.6342697    0.6257448 
C     2.7239521   -4.2505425    0.8104720 
C     2.5498456   -3.3721619   -0.2904509 
C     2.4512549   -3.9331577   -1.5906545 
C     2.4943670   -5.3166174   -1.7715795 
H     2.6856616   -7.2562782   -0.8140503 
H     2.9050866   -6.2970875    1.4864472 
H     2.8113495   -3.8306439    1.8187238 
H     2.3529809   -3.2824183   -2.4643145 
H     2.4186863   -5.7355261   -2.7800934 
C     3.3857314    3.2385351   -3.8239384 
C     4.0898778    3.3026410   -2.6120589 
C     3.7964050    2.4045529   -1.5787991 
C     2.7873870    1.4263032   -1.7279292 
C     2.1092075    1.3563046   -2.9685768 
C     2.3990034    2.2544924   -4.0003110 
H     3.6114511    3.9433171   -4.6306157 
H     4.8772612    4.0508138   -2.4734008 
H     4.3685265    2.4501250   -0.6457966 
H     1.3268097    0.6049967   -3.1171438 
H     1.8518737    2.1896589   -4.9465336 
C     0.6237938    1.6341069    3.0173481 
C     0.6191806    3.7480514    0.6626685 
C    -1.8574578   -2.7577339    0.9392729 
C    -1.8488062   -1.5899644   -2.0135376 
C    -1.8075129    2.1821680    1.3901417 
C    -3.5151802   -0.5191563    0.2291709 
C    -2.5181261    2.5047679    0.0605958 
C    -4.1940390    0.6375529   -0.5395110 
C    -3.9890112    2.0504544    0.0245608 
C     0.4164499    2.8168930    3.9857959 
C     2.1063540    1.1992708    3.0091696 
C    -0.1988260    0.4261568    3.5169932 
C     2.1095561    3.9344602    1.0127291 
C    -0.1984261    4.8868795    1.3141228 
C     0.4490672    3.8287744   -0.8737301 
C    -2.3845436   -2.3809167    2.3463067 
C    -2.7732527   -3.8576302    0.3637327 
C    -0.4299478   -3.3068478    1.0893067 
C    -0.7462458   -2.6237681   -2.3204228 
C    -1.4975144   -0.2813182   -2.7652781 
C    -3.2103083   -2.1118235   -2.5174924 
H    -2.1461709    1.2085481    1.7772522 
H    -2.0528002    2.9357687    2.1601762 
H    -4.1264017   -1.4295298    0.0978400 
H    -3.5396197   -0.2984376    1.3093372 
H    -2.4629165    3.5912844   -0.1193653 
H    -1.9725127    2.0272851   -0.7766314 
H    -3.8993514    0.6309643   -1.6026670 
H    -5.2783681    0.4228980   -0.5357863 
H    -4.4282561    2.1194464    1.0389973 
H    -4.5695446    2.7476782   -0.6054613 
H     1.0688562    3.6726282    3.7517881 
H     0.6673963    2.4831326    5.0096320 
H    -0.6304582    3.1647142    4.0011504 
H     2.4140816    0.9613975    4.0436983 
H     2.2390580    0.2885692    2.3999390 
H     2.7862177    1.9755593    2.6293393 
H     0.2009768    0.0969843    4.4932361 
H    -0.1162488   -0.4197719    2.8121385 
H    -1.2646919    0.6677932    3.6625256 
H     2.2710382    4.0550958    2.0960740 
H     2.7211960    3.0948273    0.6541139 
H     2.4818679    4.8489021    0.5168816 
H    -0.1262801    4.8969465    2.4118400 
H    -1.2634870    4.8545342    1.0333088 
H     0.2032743    5.8492989    0.9468466 
H     0.9404521    2.9909076   -1.3870142 
H    -0.6087265    3.8469183   -1.1751499 
H     0.9131441    4.7652147   -1.2331081 
H    -2.1897415   -3.2270591    3.0301120 
H    -3.4713366   -2.1997022    2.3555191 
H    -1.8767922   -1.4964456    2.7615998 
H    -2.8227764   -4.6887296    1.0913557 
H    -3.8071387   -3.5066445    0.2032718 
H    -2.3908579   -4.2732313   -0.5817216 
H    -0.4406723   -4.2055284    1.7327576 
H     0.2375176   -2.5607915    1.5552298 
H     0.0073889   -3.5969453    0.1234413 
H     0.2233598   -2.2980663   -1.9094455 
H    -0.9730308   -3.6214705   -1.9126411 
H    -0.6356783   -2.7288426   -3.4154266 
H    -0.5557041    0.1584882   -2.3821303 
H    -2.2805698    0.4874948   -2.6682900 
H    -1.3702180   -0.4970804   -3.8422235 
H    -3.5008254   -3.0630106   -2.0486039 
H    -4.0245512   -1.3857459   -2.3661051 
H    -3.1338773   -2.2911811   -3.6062116 
