98
Energy =
C     2.0383766    0.6374802   -2.0127733 
C     2.2754865   -0.5058584   -1.2466048 
C     1.5025897   -1.7077822   -1.3961588 
H     3.1258145   -0.5133680   -0.5542261 
Pd    0.2450365   -0.1773253   -0.3355563 
P    -1.8798367   -1.4170513   -0.2738250 
P    -0.0486887    1.7644465    1.1247648 
H     1.2273350    0.5926126   -2.7535123 
H     1.0299221   -1.8530426   -2.3754912 
C     4.6043172    4.0394759   -2.4579824 
C     3.3874765    3.9660309   -3.1536960 
C     2.5587528    2.8513244   -2.9944147 
C     2.9223957    1.7913628   -2.1272969 
C     4.1652208    1.8742082   -1.4462563 
C     4.9923992    2.9862441   -1.6100117 
H     5.2571984    4.9091638   -2.5842479 
H     3.0894780    4.7761635   -3.8267605 
H     1.6140051    2.7920413   -3.5454477 
H     4.4856561    1.0624896   -0.7862706 
H     5.9492025    3.0345830   -1.0805869 
C     2.9227608   -5.3210533    0.4784273 
C     3.0077279   -4.0958698    1.1605757 
C     2.5418204   -2.9229692    0.5596524 
C     1.9741935   -2.9439817   -0.7367531 
C     1.9124735   -4.1825036   -1.4162206 
C     2.3789008   -5.3577202   -0.8145332 
H     3.2855624   -6.2400036    0.9498642 
H     3.4337656   -4.0581212    2.1685694 
H     2.5860955   -1.9799245    1.1156786 
H     1.5117277   -4.2208807   -2.4349127 
H     2.3253544   -6.3050486   -1.3608619 
C    -2.2651165   -2.0452413   -2.0634542 
C    -2.0510790   -2.8687049    0.9965488 
C     0.4363641    3.5481527    0.5607468 
C     0.9651909    1.3065101    2.7050922 
C    -3.4530045   -0.4921521    0.1628320 
C    -1.7806547    1.9759906    1.7939905 
C    -3.8983845    0.7272506   -0.6548793 
C    -2.8403437    2.5642254    0.8333232 
C    -2.9732906    1.9435619   -0.5739930 
C    -1.4659200   -3.3285161   -2.3656846 
C    -1.8050319   -0.9263753   -3.0303076 
C    -3.7638995   -2.3302762   -2.3181185 
C    -0.7023537   -3.6014698    1.0860512 
C    -3.1757707   -3.8708424    0.6622029 
C    -2.3660187   -2.2581061    2.3841743 
C    -0.0802439    3.7260015   -0.8869090 
C    -0.1479673    4.6677538    1.4522679 
C     1.9713528    3.6923045    0.5543294 
C     2.4052203    0.9174532    2.2978619 
C     0.3108906    0.0438368    3.3064984 
C     0.9990422    2.4109847    3.7795645 
H    -4.2458404   -1.2610571    0.1411314 
H    -3.3483300   -0.1997582    1.2182320 
H    -2.0756065    0.9706594    2.1359039 
H    -1.7265318    2.6106814    2.6969021 
H    -4.0443488    0.4526726   -1.7132027 
H    -4.9004194    1.0161488   -0.2829260 
H    -3.8203113    2.5080377    1.3460512 
H    -2.6404912    3.6420553    0.7191055 
H    -1.9756632    1.6735896   -0.9706368 
H    -3.3737774    2.7165632   -1.2541649 
H    -0.4125226   -3.2355799   -2.0759030 
H    -1.5057171   -3.5326659   -3.4513803 
H    -1.8801146   -4.2082121   -1.8492674 
H    -2.0182967   -1.2352221   -4.0701905 
H    -2.3255330    0.0281200   -2.8494239 
H    -0.7218646   -0.7380883   -2.9442588 
H    -3.8670091   -2.7099760   -3.3514320 
H    -4.3921089   -1.4296273   -2.2419808 
H    -4.1711722   -3.0990514   -1.6458662 
H    -0.3945489   -4.0485907    0.1290200 
H     0.0980011   -2.9173345    1.4081713 
H    -0.7759330   -4.4154260    1.8299884 
H    -2.9804509   -4.4428034   -0.2574213 
H    -4.1633970   -3.3862992    0.5773420 
H    -3.2430636   -4.5990024    1.4915111 
H    -1.7118737   -1.4064662    2.6218435 
H    -3.4157028   -1.9349423    2.4736615 
H    -2.1947455   -3.0323066    3.1537322 
H     0.3868537    4.6244032   -1.3294915 
H    -1.1705210    3.8665247   -0.9281027 
H     0.1812627    2.8605298   -1.5177500 
H     0.1915232    5.6397038    1.0484119 
H    -1.2484568    4.6877263    1.4572613 
H     0.2014408    4.6053862    2.4932706 
H     2.2421196    4.6227998    0.0235847 
H     2.4624935    2.8621326    0.0304557 
H     2.3844866    3.7621112    1.5729378 
H     2.3885229    0.1318922    1.5228581 
H     2.9939043    1.7628276    1.9163780 
H     2.9309812    0.5124037    3.1818891 
H     0.2559631   -0.7669292    2.5585722 
H    -0.6999741    0.2379929    3.7014290 
H     0.9286590   -0.3157016    4.1495826 
H     1.5667181    3.2966347    3.4538040 
H    -0.0115702    2.7324384    4.0841605 
H     1.5014643    2.0135411    4.6809375 
