98
Energy =
C    -0.7701673   -2.7370883   -1.2359892 
C    -1.6770544   -1.8650342   -0.6450644 
C    -2.0591067   -0.6224910   -1.2952687 
H    -2.2252115   -2.1795965    0.2525995 
Pd   -0.2607655   -0.0983006   -0.2012390 
P    -0.0122996    2.1217371   -1.0702665 
P     1.4425057   -0.4626040    1.5608411 
H    -0.2793512   -2.3906902   -2.1567988 
H    -1.8346100   -0.5907807   -2.3700728 
C     0.1483764   -6.7822811   -0.1989351 
C    -0.9125323   -6.1263598    0.4529734 
C    -1.2279306   -4.8071150    0.1277198 
C    -0.4840375   -4.1096421   -0.8607052 
C     0.5657941   -4.7949168   -1.5241291 
C     0.8837344   -6.1145930   -1.1915082 
H     0.3913338   -7.8181014    0.0593716 
H    -1.4974666   -6.6549233    1.2122831 
H    -2.0628446   -4.3132292    0.6343172 
H     1.1370048   -4.2744478   -2.3005390 
H     1.7000385   -6.6279781   -1.7092933 
C    -5.8768347    1.1250410   -0.2997752 
C    -4.9906435    0.7506879    0.7237406 
C    -3.7540678    0.1783047    0.4082428 
C    -3.3663798   -0.0187772   -0.9373710 
C    -4.2785945    0.3428217   -1.9554763 
C    -5.5195473    0.9098188   -1.6397080 
H    -6.8440414    1.5746089   -0.0533078 
H    -5.2650283    0.9081694    1.7720168 
H    -3.0649905   -0.0998674    1.2127618 
H    -4.0123054    0.1729821   -3.0044651 
H    -6.2116848    1.1829141   -2.4429075 
C     0.5810555   -0.2969654    3.2820596 
C     2.2797431   -2.1939725    1.4355024 
C    -1.2400364    3.4637640   -0.3822802 
C     0.0387463    2.1408140   -3.0020516 
C     2.8817509    0.7139843    1.7605433 
C     1.6155816    2.9183450   -0.5739337 
C     3.9306483    0.7367342    0.6344876 
C     2.9700993    2.4086885   -1.1045615 
C     3.4049954    0.9699954   -0.7906306 
C     1.3399689   -0.9391729    4.4604164 
C    -0.8390420   -0.8951993    3.1681851 
C     0.4408262    1.2131753    3.5768700 
C     1.2343924   -3.2564262    1.8302611 
C     3.5426795   -2.3638046    2.3077984 
C     2.6674492   -2.4090066   -0.0470077 
C    -0.7329633    4.9167027   -0.5291578 
C    -2.6280914    3.3707940   -1.0458387 
C    -1.3934999    3.1471349    1.1187561 
C     0.8807642    0.9115823   -3.4251935 
C     0.6671609    3.4338291   -3.5688371 
C    -1.3677649    1.9884025   -3.6227016 
H     2.4328110    1.7128002    1.8817910 
H     3.3747154    0.4757168    2.7206723 
H     1.5264101    3.9725590   -0.8821322 
H     1.5962934    2.9210201    0.5296638 
H     4.6691375    1.5245674    0.8785725 
H     4.4982710   -0.2094072    0.6512401 
H     2.9910076    2.5489010   -2.1984370 
H     3.7402309    3.1017151   -0.7130443 
H     4.2183760    0.7097214   -1.4919467 
H     2.5764317    0.2693139   -1.0096833 
H     0.8068986   -0.6901564    5.3967661 
H     2.3664849   -0.5461229    4.5564189 
H     1.3869776   -2.0369670    4.3945701 
H    -0.8328396   -1.9766414    2.9631107 
H    -1.3845401   -0.7341506    4.1161986 
H    -1.4034157   -0.3942327    2.3604991 
H    -0.2548074    1.3513506    4.4245292 
H     0.0274901    1.7536109    2.7137018 
H     1.4007060    1.6747366    3.8606728 
H     1.5688267   -4.2537378    1.4925125 
H     1.0821748   -3.3061194    2.9197445 
H     0.2640346   -3.0545374    1.3536710 
H     3.3383222   -2.2476703    3.3817734 
H     4.3472684   -1.6641912    2.0297121 
H     3.9352024   -3.3864255    2.1552793 
H     1.8212040   -2.1961523   -0.7216501 
H     3.5166266   -1.7795882   -0.3539011 
H     2.9641698   -3.4636947   -0.1919080 
H    -1.5353754    5.5914021   -0.1787645 
H    -0.5138948    5.1865741   -1.5749902 
H     0.1562109    5.1280565    0.0862730 
H    -2.9906649    2.3385822   -1.1256140 
H    -3.3495928    3.9285214   -0.4221103 
H    -2.6377381    3.8295896   -2.0454635 
H    -1.7716363    2.1233651    1.2795533 
H    -2.1131524    3.8554456    1.5683540 
H    -0.4388379    3.2650083    1.6575235 
H     0.9059424    0.8578738   -4.5290397 
H     1.9210120    0.9598016   -3.0713937 
H     0.4375820   -0.0259276   -3.0442461 
H     1.7052299    3.5973009   -3.2405398 
H     0.0737248    4.3246634   -3.3072799 
H     0.6802896    3.3612271   -4.6720346 
H    -1.9793727    1.2368219   -3.1071377 
H    -1.9246999    2.9358529   -3.6226305 
H    -1.2552506    1.6719570   -4.6755896 
