98
Energy =
C    -1.1585846   -2.4017158   -0.1088593 
C    -1.9834352   -1.5115520   -0.8782352 
C    -1.6425591   -1.1043935   -2.1700165 
H    -2.9483626   -1.1994889   -0.4608613 
Pd   -0.1725307   -0.3822252   -0.1635628 
P    -0.2213188    2.0591007   -0.3044940 
P     1.9437340   -0.9669334    0.9510299 
H    -0.5063119   -3.0675764   -0.6874039 
H    -0.7046451   -1.4916207   -2.5927745 
C    -2.7851741   -4.1412129    3.4847219 
C    -3.0358089   -2.7924748    3.1817317 
C    -2.5043902   -2.2221541    2.0214245 
C    -1.7045665   -2.9831975    1.1357498 
C    -1.4763862   -4.3436126    1.4469396 
C    -2.0083826   -4.9151907    2.6092406 
H    -3.1999058   -4.5874840    4.3942196 
H    -3.6433147   -2.1824195    3.8583284 
H    -2.6818417   -1.1611870    1.8138051 
H    -0.8916012   -4.9648044    0.7598520 
H    -1.8228425   -5.9718093    2.8281528 
C    -4.1809927    0.7994424   -5.0486694 
C    -4.6923596    0.4835457   -3.7767349 
C    -3.8774574   -0.1289269   -2.8235462 
C    -2.5241580   -0.4377597   -3.1208052 
C    -2.0334130   -0.1330342   -4.4147468 
C    -2.8506200    0.4842862   -5.3664172 
H    -4.8243641    1.2791756   -5.7932880 
H    -5.7347317    0.7130232   -3.5340510 
H    -4.2941320   -0.3727359   -1.8416243 
H    -0.9984861   -0.3867281   -4.6681196 
H    -2.4538207    0.7136065   -6.3604219 
C     1.9227145   -1.2291747    2.8701755 
C     2.6760615   -2.5273037    0.0708994 
C    -1.4945339    2.5724062    1.0561905 
C    -0.6565049    2.9725346   -1.9510495 
C     3.3753197    0.2429208    0.8600106 
C     1.3469320    2.9039540    0.2600562 
C     3.9239313    0.7077159   -0.4955478 
C     2.5451978    2.8893530   -0.7175927 
C     2.9590230    1.5399472   -1.3430767 
C     3.1212321   -2.0378930    3.4095530 
C     0.6045318   -1.9215825    3.2537186 
C     1.9567258    0.1631996    3.5467634 
C     2.3661256   -2.3656544   -1.4377509 
C     1.9894131   -3.8068964    0.5885086 
C     4.2045946   -2.6861210    0.2458955 
C    -1.7645991    4.0877996    1.1334137 
C    -2.8204728    1.8075755    0.8367498 
C    -0.9194259    2.0967648    2.4079004 
C     0.1158561    2.2603215   -3.0870260 
C    -0.2912742    4.4747115   -1.9504103 
C    -2.1675481    2.8454417   -2.2298460 
H     3.0650935    1.1220266    1.4444413 
H     4.1842082   -0.2345688    1.4415908 
H     1.1027291    3.9521045    0.5098223 
H     1.6086641    2.4096487    1.2097755 
H     4.8279104    1.3122161   -0.2873140 
H     4.2758684   -0.1540301   -1.0877177 
H     2.3316787    3.5984941   -1.5338836 
H     3.4142315    3.3210353   -0.1839237 
H     3.4528476    1.7465532   -2.3094751 
H     2.0624437    0.9354933   -1.5798042 
H     3.0568899   -2.0501685    4.5132281 
H     4.0915928   -1.5823107    3.1480615 
H     3.1180013   -3.0854612    3.0724202 
H     0.4954936   -2.9161879    2.7959025 
H     0.5628419   -2.0493688    4.3506920 
H    -0.2632639   -1.3163866    2.9485287 
H     1.6734306    0.0427833    4.6079476 
H     1.2419163    0.8646167    3.0921399 
H     2.9607553    0.6169481    3.5263155 
H     2.7741857   -3.2340816   -1.9869427 
H     1.2800789   -2.3218210   -1.6235799 
H     2.8159551   -1.4552246   -1.8660872 
H     0.8981064   -3.7049035    0.6190819 
H     2.3292908   -4.0825757    1.5987017 
H     2.2362849   -4.6479062   -0.0850831 
H     4.7772477   -1.8637647   -0.2093327 
H     4.5048011   -2.7803831    1.2993597 
H     4.5108843   -3.6164059   -0.2671422 
H    -2.4125216    4.2883465    2.0067462 
H    -2.2909778    4.4662334    0.2432005 
H    -0.8397476    4.6733880    1.2714756 
H    -2.6337242    0.7220616    0.7643197 
H    -3.4825049    1.9815048    1.7047226 
H    -3.3617127    2.1234536   -0.0654990 
H    -0.7007262    1.0145553    2.3849174 
H    -1.6689217    2.2733395    3.2008198 
H    -0.0053385    2.6423753    2.6948014 
H    -0.2926577    2.5856878   -4.0609216 
H     1.1884620    2.5044131   -3.0809405 
H     0.0100173    1.1650056   -3.0219483 
H     0.7874444    4.6582512   -1.8303459 
H    -0.8268787    5.0401629   -1.1738469 
H    -0.5846226    4.8991843   -2.9285828 
H    -2.5209640    1.8108540   -2.1305112 
H    -2.7659671    3.4890888   -1.5657589 
H    -2.3693629    3.1637602   -3.2684702 
