98
Energy =
C    -1.0076199   -2.7274135   -1.3081940 
C    -1.7931518   -1.8011406   -0.6382250 
C    -2.1060878   -0.5037810   -1.2241925 
H    -2.3167044   -2.0963271    0.2810574 
Pd   -0.2721203   -0.0824306   -0.1960339 
P     0.0256360    2.0388661   -1.1889267 
P     1.5376413   -0.5220803    1.5240124 
H    -0.5335959   -2.3923654   -2.2416426 
H    -1.9252862   -0.4512798   -2.3064799 
C    -0.2962687   -6.8361691   -0.3663653 
C     0.4559062   -6.1907234   -1.3614561 
C     0.2004057   -4.8515214   -1.6685266 
C    -0.7991591   -4.1234797   -0.9734093 
C    -1.5615441   -4.7978631    0.0165978 
C    -1.3106248   -6.1375906    0.3143446 
H    -0.1033318   -7.8875208   -0.1294080 
H     1.2358785   -6.7369058   -1.9012767 
H     0.7851401   -4.3477115   -2.4460270 
H    -2.3615688   -4.2695622    0.5442399 
H    -1.9099143   -6.6482228    1.0747587 
C    -5.8204728    1.3836525   -0.0941288 
C    -4.9136034    0.9790779    0.8990465 
C    -3.7091194    0.3626195    0.5428890 
C    -3.3744128    0.1539452   -0.8140257 
C    -4.3067191    0.5474311   -1.8013160 
C    -5.5168035    1.1557923   -1.4451281 
H    -6.7626329    1.8664188    0.1845028 
H    -5.1471627    1.1453251    1.9558503 
H    -3.0064649    0.0551763    1.3242422 
H    -4.0808291    0.3692793   -2.8585255 
H    -6.2256940    1.4525454   -2.2249699 
C     0.7270013   -0.2036862    3.2388633 
C     2.0469206   -2.3771843    1.3662326 
C    -1.0574275    3.5036740   -0.5418885 
C     0.0980854    1.9488255   -3.1137420 
C     3.2711960    0.1884635    1.7561085 
C     1.7189991    2.6381253   -0.7196093 
C     3.6404747    1.6630479    1.4964501 
C     2.8973215    1.6807593   -0.9574012 
C     4.0358488    1.9469020    0.0388668 
C     1.3537885   -0.9763899    4.4150751 
C    -0.7760630   -0.5359029    3.1239787 
C     0.8712433    1.3100422    3.5157901 
C     0.8376888   -3.2600039    1.7224544 
C     3.2538244   -2.8221465    2.2243952 
C     2.4189074   -2.5551924   -0.1245550 
C    -2.4810248    3.5063421   -1.1323240 
C    -1.1666169    3.2750782    0.9818923 
C    -0.4141822    4.8837168   -0.8054922 
C     0.9754217    3.0716785   -3.7117631 
C    -1.3053623    2.0275968   -3.7517887 
C     0.7277583    0.5782693   -3.4656464 
H     3.5246312   -0.0810565    2.7966759 
H     3.9175270   -0.4415078    1.1201388 
H     1.9116668    3.6072932   -1.2089312 
H     1.6181639    2.8474269    0.3594755 
H     2.8347434    2.3438955    1.8206100 
H     4.5028401    1.9043175    2.1435130 
H     2.5606914    0.6305658   -0.8593677 
H     3.2717429    1.7922368   -1.9900074 
H     4.3716139    2.9972523   -0.0512856 
H     4.9061601    1.3176069   -0.2274620 
H     0.8767913   -0.6404748    5.3545016 
H     2.4357055   -0.7811594    4.5146536 
H     1.1980319   -2.0638774    4.3381197 
H    -0.9626766   -1.6072867    2.9495609 
H    -1.2951269   -0.2488730    4.0570632 
H    -1.2297961    0.0356149    2.2918704 
H     0.2396717    1.5827965    4.3810996 
H     0.5378954    1.9122093    2.6554357 
H     1.9086330    1.5882615    3.7640613 
H     1.0043592   -4.2894529    1.3588997 
H     0.6784062   -3.3128939    2.8115262 
H    -0.0853977   -2.8841480    1.2563602 
H     3.0998815   -2.6550290    3.3007147 
H     4.1953258   -2.3341677    1.9260126 
H     3.3945171   -3.9088399    2.0758101 
H     1.5840995   -2.2712747   -0.7876595 
H     3.2963755   -1.9439202   -0.4032797 
H     2.6721869   -3.6132641   -0.3189487 
H    -3.1031636    4.1948637   -0.5325822 
H    -2.9534192    2.5166890   -1.0946164 
H    -2.5000626    3.8696328   -2.1700290 
H    -0.1821534    3.3109717    1.4775777 
H    -1.7857075    4.0767842    1.4237631 
H    -1.6416386    2.3059186    1.2102268 
H     0.5465935    5.0186717   -0.2833078 
H    -1.1028218    5.6614086   -0.4272551 
H    -0.2639096    5.0760300   -1.8806350 
H     0.9467102    2.9891109   -4.8138702 
H     0.6063649    4.0758903   -3.4472448 
H     2.0313710    2.9929670   -3.4066088 
H    -1.6849261    3.0599159   -3.7778578 
H    -2.0468979    1.4073045   -3.2271317 
H    -1.2412682    1.6719654   -4.7962763 
H     1.7223508    0.4399857   -3.0139122 
H     0.0887279   -0.2574146   -3.1353290 
H     0.8416676    0.5089975   -4.5632534 
