98
Energy =
C    -2.8713298   -0.4743322    0.3072412 
C    -2.1927668   -1.4627787   -0.4053598 
C    -1.2386736   -2.3474740    0.2209273 
H    -2.4167845   -1.6076402   -1.4694352 
Pd   -0.2991283   -0.3452437    0.1031020 
P     1.4919404   -0.7085170    1.6922647 
P     0.1150757    1.8032029   -1.0284613 
H    -2.6811624   -0.4160119    1.3878543 
H    -1.4127315   -2.5839743    1.2777680 
C    -6.1027666    2.0230959   -0.9741603 
C    -5.5996018    2.1157502    0.3331707 
C    -4.5459828    1.2896060    0.7336309 
C    -3.9691714    0.3569819   -0.1657704 
C    -4.5073570    0.2584609   -1.4747834 
C    -5.5575575    1.0877141   -1.8725457 
H    -6.9274512    2.6693191   -1.2916252 
H    -6.0319119    2.8318849    1.0390627 
H    -4.1505177    1.3638314    1.7526174 
H    -4.1050112   -0.4726252   -2.1816306 
H    -5.9634756    1.0023808   -2.8855277 
C     0.4478487   -5.5409412   -2.1382593 
C     0.2726343   -4.2660422   -2.7010825 
C    -0.2813196   -3.2328091   -1.9392190 
C    -0.6604336   -3.4417213   -0.5906860 
C    -0.4992246   -4.7373043   -0.0487157 
C     0.0498476   -5.7738525   -0.8127433 
H     0.8823169   -6.3506401   -2.7332426 
H     0.5707967   -4.0775535   -3.7376632 
H    -0.4011087   -2.2401604   -2.3860069 
H    -0.8228484   -4.9372479    0.9781793 
H     0.1613590   -6.7706744   -0.3736965 
C    -0.0351376    1.4314029   -2.9178369 
C    -1.0232983    3.3114587   -0.5474612 
C     2.4231786   -2.3942963    1.7199557 
C     0.7305685   -0.3622573    3.4424890 
C     1.7817908    2.6486394   -0.8416056 
C     2.8630899    0.5673240    1.6773818 
C     3.0844596    2.0102325   -1.3541110 
C     3.9339062    0.5050470    0.5730357 
C     3.4445292    0.5963807   -0.8793615 
C     0.9688042    0.2992171   -3.2539721 
C     0.2576824    2.6682395   -3.7893169 
C    -1.4390109    0.8728807   -3.2420046 
C    -2.3848543    3.2467448   -1.2635901 
C    -0.4072431    4.7014185   -0.8294597 
C    -1.2512579    3.1793484    0.9721948 
C     2.7087040   -2.7661330    0.2444892 
C     3.7548645   -2.3735965    2.5061846 
C     1.5149962   -3.4709938    2.3477221 
C     1.6741924   -0.7109013    4.6122551 
C    -0.5999805   -1.1267595    3.6078666 
C     0.4045868    1.1465564    3.5012687 
H     1.6831700    3.6236030   -1.3430172 
H     1.8491618    2.8716124    0.2386723 
H     2.3469862    1.5402355    1.6548276 
H     3.3605792    0.5004312    2.6620268 
H     3.0681065    2.0267581   -2.4572746 
H     3.9061174    2.6965057   -1.0706821 
H     4.6505161    1.3273525    0.7641586 
H     4.5191400   -0.4215162    0.6893037 
H     2.5899855   -0.0883317   -1.0310062 
H     4.2540128    0.2223696   -1.5319184 
H     0.7445341   -0.0832728   -4.2663494 
H     0.8792948   -0.5443130   -2.5459678 
H     2.0140070    0.6358694   -3.2567700 
H     1.2580065    3.0916500   -3.5966065 
H     0.2245591    2.3756189   -4.8553507 
H    -0.4915016    3.4635299   -3.6433159 
H    -1.4363918    0.4878655   -4.2780673 
H    -2.2380725    1.6211382   -3.1682028 
H    -1.6870206    0.0339982   -2.5714426 
H    -3.0694682    3.9718375   -0.7875267 
H    -2.3033167    3.5218723   -2.3273937 
H    -2.8519729    2.2565816   -1.1872006 
H    -0.1234272    4.8359345   -1.8864683 
H     0.4679115    4.9197376   -0.1968241 
H    -1.1719928    5.4650318   -0.5963351 
H    -1.7330587    2.2190415    1.2226407 
H    -0.3042300    3.2536693    1.5335214 
H    -1.9088930    3.9970864    1.3206252 
H     3.1083676   -3.7956526    0.2039969 
H     3.4586534   -2.1024420   -0.2131206 
H     1.7960543   -2.7345568   -0.3702384 
H     3.6178711   -2.1428296    3.5724142 
H     4.2007233   -3.3834197    2.4427187 
H     4.4918984   -1.6700367    2.0910513 
H     1.4386312   -3.3601876    3.4413744 
H     1.9441333   -4.4682010    2.1428679 
H     0.5046809   -3.4536218    1.9210691 
H     1.2091709   -0.3578305    5.5512321 
H     1.8368929   -1.7948916    4.7159850 
H     2.6546711   -0.2124826    4.5285017 
H    -0.4843784   -2.2188279    3.5451744 
H    -1.3295310   -0.8081575    2.8447671 
H    -1.0270758   -0.8923388    4.5999406 
H    -0.1962665    1.3488567    4.4066239 
H     1.3075112    1.7759593    3.5607424 
H    -0.1868240    1.4541264    2.6255158 
