98
Energy =
C    -2.3289102   -0.3852505   -1.0294813 
C    -2.0372782   -1.6366307   -0.3531878 
C    -2.2205068   -1.7996029    1.0160625 
H    -1.7587445   -2.5047336   -0.9650565 
Pd   -0.3596929   -0.0587748   -0.1111454 
P     1.8367631   -0.7860467    0.7867845 
P    -0.2380685    2.3018324   -0.3680410 
H    -3.0434240    0.2687500   -0.5133904 
H    -2.5412711   -0.9151385    1.5839029 
C    -2.8410020   -0.4391358   -5.3176459 
C    -3.7603162    0.2318113   -4.4969878 
C    -3.5847118    0.2464622   -3.1080048 
C    -2.4834994   -0.4036355   -2.5051302 
C    -1.5807095   -1.0955651   -3.3468659 
C    -1.7531165   -1.1091823   -4.7345766 
H    -2.9755339   -0.4476829   -6.4040471 
H    -4.6231356    0.7399126   -4.9400043 
H    -4.3215369    0.7552710   -2.4767208 
H    -0.7161693   -1.6041206   -2.9096924 
H    -1.0339786   -1.6414569   -5.3657962 
C    -2.1974686   -5.3919143    3.3426604 
C    -2.3759573   -4.1413235    3.9563462 
C    -2.3790849   -2.9796637    3.1805787 
C    -2.1945938   -3.0395337    1.7747396 
C    -2.0373852   -4.3145874    1.1703144 
C    -2.0349872   -5.4737476    1.9479120 
H    -2.1981631   -6.3045016    3.9474982 
H    -2.5167121   -4.0760517    5.0398344 
H    -2.5168910   -2.0038029    3.6591049 
H    -1.9325500   -4.3980491    0.0843483 
H    -1.9174940   -6.4502525    1.4675215 
C    -0.8418851    3.1805064   -1.9726612 
C    -1.1549980    3.0554079    1.1622110 
C     2.1554292   -2.4807273   -0.0806799 
C     1.9825431   -0.9834420    2.7020748 
C     1.5033090    2.9402158   -0.1271273 
C     3.4097399    0.1689932    0.4377529 
C     2.5245700    2.7452574   -1.2697684 
C     3.7777551    0.4870716   -1.0201963 
C     2.7530939    1.3166754   -1.8057178 
C    -2.3831495    3.2307401   -1.9873808 
C    -0.3561588    2.3281571   -3.1693118 
C    -0.3035328    4.6217554   -2.1298418 
C    -0.3636297    2.6467766    2.4221586 
C    -2.5622562    2.4322121    1.2944496 
C    -1.2613646    4.5940870    1.1241042 
C     3.6194428   -2.9642880   -0.0405755 
C     1.2269986   -3.5397466    0.5430606 
C     1.7249909   -2.2965127   -1.5554365 
C     3.0471045   -2.0009088    3.1626661 
C     0.5973387   -1.3996799    3.2331019 
C     2.3607893    0.3920387    3.3029477 
H     1.4267328    4.0190933    0.1010572 
H     1.8530858    2.4490649    0.7949883 
H     3.3243523    1.1093429    1.0049918 
H     4.2298863   -0.3992144    0.9133409 
H     2.2314064    3.3919484   -2.1128019 
H     3.4906753    3.1553276   -0.9160452 
H     4.7390010    1.0360836   -1.0006440 
H     3.9847729   -0.4472386   -1.5704877 
H     1.7894390    0.7731368   -1.8629287 
H     3.1177541    1.3968344   -2.8453972 
H    -2.7214313    3.5333798   -2.9945506 
H    -2.7820487    3.9646210   -1.2689044 
H    -2.8262006    2.2490874   -1.7749913 
H    -0.6500246    1.2729483   -3.0681274 
H    -0.8157619    2.7190394   -4.0951802 
H     0.7356722    2.3753897   -3.2989152 
H    -0.6950235    5.0273400   -3.0810416 
H     0.7948874    4.6657776   -2.1897793 
H    -0.6346884    5.2943997   -1.3257582 
H    -0.9379242    2.9436597    3.3185933 
H    -0.2220826    1.5533065    2.4583413 
H     0.6200236    3.1401474    2.4854059 
H    -2.4892324    1.3415880    1.4455246 
H    -3.2078284    2.6219942    0.4249058 
H    -3.0605787    2.8632227    2.1819256 
H    -0.2785590    5.0807730    1.0051551 
H    -1.9312262    4.9520047    0.3271748 
H    -1.6828562    4.9393102    2.0861398 
H     3.6826291   -3.9278810   -0.5796515 
H     3.9847146   -3.1362327    0.9820486 
H     4.3078184   -2.2667133   -0.5443749 
H     0.1889283   -3.1764586    0.5795793 
H     1.2452354   -4.4553286   -0.0762995 
H     1.5260923   -3.8259832    1.5633138 
H     0.6780154   -1.9454793   -1.6126710 
H     1.7913361   -3.2671158   -2.0810966 
H     2.3510585   -1.5745294   -2.1020750 
H     3.1024584   -1.9734874    4.2667445 
H     2.8024665   -3.0348541    2.8740447 
H     4.0522894   -1.7543134    2.7805570 
H     0.2842806   -2.3816205    2.8491677 
H    -0.1765857   -0.6644466    2.9495450 
H     0.6242835   -1.4636883    4.3364616 
H     3.4258240    0.6316961    3.1516426 
H     1.7548318    1.2123336    2.8901910 
H     2.1821008    0.3634901    4.3932166 
