98
Energy =
C    -1.0221696   -2.7239699   -1.3066053 
C    -1.7952305   -1.8111388   -0.6044817 
C    -2.1363124   -0.5108776   -1.1679281 
H    -2.2889218   -2.1201021    0.3267180 
Pd   -0.2770425   -0.0830195   -0.1892320 
P    -0.0257837    2.0507149   -1.1688810 
P     1.5853708   -0.5233114    1.4739476 
H    -0.5787914   -2.3757865   -2.2502310 
H    -1.9873329   -0.4457841   -2.2543542 
C    -0.2490785   -6.8353362   -0.4268455 
C    -1.2484477   -6.1520081    0.2905277 
C    -1.5191446   -4.8116778    0.0135637 
C    -0.7921787   -4.1212959   -0.9919125 
C     0.1922576   -4.8340626   -1.7235146 
C     0.4678212   -6.1739259   -1.4373864 
H    -0.0405567   -7.8872522   -0.2061448 
H    -1.8205754   -6.6749978    1.0633565 
H    -2.3074082   -4.2953441    0.5700039 
H     0.7493556   -4.3178024   -2.5130367 
H     1.2358623   -6.7082188   -2.0054736 
C    -5.8313056    1.3336437    0.0893094 
C    -4.8931434    0.9254229    1.0514485 
C    -3.6947629    0.3225075    0.6539571 
C    -3.3976044    0.1315507   -0.7142821 
C    -4.3610210    0.5282624   -1.6699220 
C    -5.5649767    1.1229785   -1.2723212 
H    -6.7686942    1.8058270    0.4002952 
H    -5.0974303    1.0782101    2.1163243 
H    -2.9676320    0.0121199    1.4113963 
H    -4.1642380    0.3637300   -2.7351297 
H    -6.2982671    1.4226485   -2.0281108 
C     0.8219451   -0.2274878    3.2143195 
C     2.1040598   -2.3727836    1.2838446 
C    -1.1016578    3.4998232   -0.4761060 
C    -0.0081770    1.9807339   -3.0958554 
C     3.3194166    0.1987647    1.6622786 
C     1.6756081    2.6593330   -0.7423235 
C     3.6697209    1.6785871    1.4061938 
C     2.8540161    1.7141866   -1.0244473 
C     4.0194604    1.9795809   -0.0596126 
C     0.9629169    1.2845627    3.5019794 
C     1.4877257   -1.0067395    4.3644700 
C    -0.6813058   -0.5698509    3.1388035 
C     3.3382371   -2.8164664    2.1029944 
C     2.4344977   -2.5338971   -0.2186165 
C     0.9120807   -3.2682391    1.6656911 
C    -1.1617737    3.2574841    1.0482886 
C    -0.4796564    4.8879838   -0.7475153 
C    -2.5428808    3.4937358   -1.0219414 
C    -1.4301017    2.0539405   -3.6922370 
C     0.6225982    0.6194490   -3.4803425 
C     0.8421409    3.1170981   -3.7072901 
H     3.6053173   -0.0784614    2.6923596 
H     3.9516501   -0.4201298    1.0017148 
H     1.8462950    3.6350745   -1.2267732 
H     1.6044811    2.8566339    0.3413413 
H     2.8688926    2.3499414    1.7607581 
H     4.5491551    1.9203158    2.0297009 
H     2.5287959    0.6602930   -0.9273178 
H     3.1968182    1.8390822   -2.0664477 
H     4.3444549    3.0333605   -0.1492071 
H     4.8862553    1.3597999   -0.3578719 
H     0.3546761    1.5439699    4.3878722 
H     0.6002935    1.8924892    2.6576579 
H     2.0049636    1.5683987    3.7229840 
H     2.5704970   -0.8038782    4.4353592 
H     1.0349796   -0.6839452    5.3203398 
H     1.3382590   -2.0946263    4.2809349 
H    -1.1757949   -0.2956274    4.0889426 
H    -0.8651072   -1.6409250    2.9593699 
H    -1.1624266    0.0061506    2.3253879 
H     3.4830527   -3.9004654    1.9395325 
H     4.2670782   -2.3179954    1.7830446 
H     3.2135928   -2.6612357    3.1848693 
H     3.2993006   -1.9136615   -0.5163543 
H     1.5789935   -2.2498653   -0.8548287 
H     2.6894203   -3.5882163   -0.4304208 
H     0.7838238   -3.3323409    2.7582566 
H    -0.0264599   -2.8952753    1.2290801 
H     1.0762725   -4.2929993    1.2880489 
H    -1.7748492    4.0492362    1.5157342 
H    -0.1630684    3.2990469    1.5140625 
H    -1.6203407    2.2818080    1.2825828 
H    -0.3663085    5.0913129   -1.8251253 
H    -1.1624162    5.6558947   -0.3397857 
H     0.4964701    5.0270059   -0.2556962 
H    -2.5975604    3.8638488   -2.0559258 
H    -3.1520726    4.1724847   -0.3982545 
H    -3.0049432    2.4995721   -0.9765307 
H    -1.3930820    1.7103901   -4.7420486 
H    -2.1507638    1.4212543   -3.1534839 
H    -1.8191198    3.0830643   -3.6957681 
H     0.0012697   -0.2253517   -3.1397093 
H     1.6315587    0.4858160   -3.0600901 
H     0.7041648    0.5622271   -4.5814959 
H     0.7828219    3.0449167   -4.8089079 
H     0.4722293    4.1154025   -3.4224669 
H     1.9069920    3.0447059   -3.4330542 
