98
Energy =
C    -1.0155672   -2.6920083   -1.1674214 
C    -1.8923920   -1.8084290   -0.5500337 
C    -2.2437562   -0.5382240   -1.1619638 
H    -2.4118410   -2.1095230    0.3689224 
Pd   -0.3539056   -0.1111951   -0.1890465 
P    -0.0762019    2.0255708   -1.1729690 
P     1.4834749   -0.4444685    1.4669132 
H    -0.5549566   -2.3574068   -2.1076813 
H    -2.0887493   -0.5006622   -2.2487598 
C    -0.0690561   -6.7323086   -0.1314796 
C     0.6071311   -6.0844568   -1.1774802 
C     0.2787388   -4.7665014   -1.5082806 
C    -0.7259494   -4.0655247   -0.7942052 
C    -1.4100243   -4.7417010    0.2499233 
C    -1.0815952   -6.0578216    0.5761376 
H     0.1826969   -7.7659205    0.1271463 
H     1.3867867   -6.6109735   -1.7369800 
H     0.8070453   -4.2597312   -2.3233286 
H    -2.2055591   -4.2328107    0.8031341 
H    -1.6195248   -6.5697914    1.3803390 
C    -5.8579039    1.4613465    0.0884460 
C    -4.9193807    1.0501206    1.0490868 
C    -3.7478111    0.3962619    0.6525362 
C    -3.4797404    0.1514899   -0.7136894 
C    -4.4424380    0.5546158   -1.6670421 
C    -5.6187838    1.2030426   -1.2699644 
H    -6.7736955    1.9748042    0.3983332 
H    -5.1010458    1.2432535    2.1114924 
H    -3.0145213    0.0931081    1.4076006 
H    -4.2678410    0.3516158   -2.7294580 
H    -6.3523383    1.5067582   -2.0238949 
C     0.6058867   -0.4312678    3.1942599 
C     2.3654387   -2.1407414    1.2174660 
C    -1.1032756    3.5088685   -0.4789999 
C    -0.0920557    1.9583025   -3.1007208 
C     2.9102292    0.7359386    1.8346986 
C     1.6515896    2.5741828   -0.7613183 
C     4.1363251    0.8466822    0.8939082 
C     2.7994604    1.6329019   -1.1647591 
C     4.0432872    1.8365594   -0.2760778 
C     1.4198331   -1.0605511    4.3421794 
C    -0.7610233   -1.1392840    3.0626973 
C     0.3275836    1.0487455    3.5447160 
C     2.6784671   -2.2499074   -0.2947445 
C     1.3772574   -3.2617586    1.5915520 
C     3.6620637   -2.3321228    2.0354305 
C    -2.5579862    3.5226478   -0.9899000 
C    -1.1355447    3.2880406    1.0482277 
C    -0.4602938    4.8805291   -0.7815659 
C     0.7634939    3.0833391   -3.7256654 
C    -1.5258536    2.0579305   -3.6647532 
C     0.4993439    0.5859048   -3.5084562 
H     2.4639415    1.7327092    1.9909977 
H     3.2661669    0.4062762    2.8267246 
H     1.8285734    3.5760642   -1.1874621 
H     1.6310017    2.7016037    0.3346815 
H     4.9970007    1.1362789    1.5239889 
H     4.3935308   -0.1454148    0.4887303 
H     2.4697368    0.5781773   -1.1017775 
H     3.0569023    1.8112094   -2.2226246 
H     4.0582020    2.8766199    0.1035043 
H     4.9603108    1.7235610   -0.8811098 
H     0.8718289   -0.9031462    5.2896075 
H     2.4112041   -0.5904558    4.4614604 
H     1.5584814   -2.1459992    4.2209444 
H    -0.6736635   -2.2154172    2.8537540 
H    -1.3261573   -1.0225365    4.0056990 
H    -1.3554143   -0.6776826    2.2521548 
H    -0.3375900    1.0881202    4.4266022 
H    -0.1800059    1.5658342    2.7171284 
H     1.2442893    1.6034450    3.8030910 
H     3.0789736   -3.2570434   -0.5127568 
H     1.7676569   -2.1023010   -0.9014087 
H     3.4288564   -1.5129277   -0.6249667 
H     0.3811202   -3.0724882    1.1688566 
H     1.2781238   -3.3811135    2.6817990 
H     1.7330595   -4.2236627    1.1809415 
H     4.4613647   -1.6308947    1.7529430 
H     3.4915976   -2.2435175    3.1189325 
H     4.0428235   -3.3528373    1.8451060 
H    -3.1421021    4.2101440   -0.3519582 
H    -3.0327607    2.5346209   -0.9324952 
H    -2.6330828    3.8931078   -2.0222788 
H    -0.1249893    3.2782517    1.4904152 
H    -1.6946589    4.1151691    1.5221752 
H    -1.6439380    2.3417564    1.2992140 
H     0.5301813    5.0044901   -0.3147954 
H    -1.1171249    5.6665559   -0.3658014 
H    -0.3690755    5.0706927   -1.8633887 
H     0.6945580    3.0055668   -4.8263721 
H     0.4038224    4.0857886   -3.4436915 
H     1.8299081    3.0057221   -3.4597155 
H    -1.8961965    3.0937615   -3.6608057 
H    -2.2446916    1.4383228   -3.1087239 
H    -1.5186669    1.7133289   -4.7148127 
H    -0.1316590   -0.2460927   -3.1547562 
H     0.5463552    0.5330384   -4.6117706 
H     1.5166835    0.4258440   -3.1204862 
