98
Energy =
C    -3.1028965   -0.5736261    0.1556943 
C    -2.2307126   -1.4184372   -0.5145735 
C    -1.2816827   -2.2770207    0.1752817 
H    -2.3362934   -1.5415205   -1.6001262 
Pd   -0.2435029   -0.3693041    0.0808161 
P     1.4767085   -0.8318455    1.6223603 
P     0.3083834    1.9088736   -0.8576475 
H    -3.0136956   -0.5299704    1.2503499 
H    -1.5144110   -2.4816959    1.2287226 
C    -6.3739616    1.7122785   -1.3866648 
C    -6.0579342    1.7438051   -0.0186670 
C    -4.9902437    0.9850179    0.4664098 
C    -4.2110971    0.1800259   -0.4046892 
C    -4.5608051    0.1421701   -1.7799109 
C    -5.6255523    0.9050519   -2.2624800 
H    -7.2099852    2.3060666   -1.7702080 
H    -6.6473039    2.3604767    0.6672112 
H    -4.7379281    1.0156313    1.5321983 
H    -4.0041106   -0.4968581   -2.4714836 
H    -5.8847796    0.8654685   -3.3252663 
C     0.2138603   -5.7296549   -1.9448171 
C    -0.2084748   -5.8391217   -0.6112761 
C    -0.6915104   -4.7146290    0.0688195 
C    -0.7571704   -3.4524998   -0.5637052 
C    -0.3551760   -3.3675087   -1.9183986 
C     0.1303138   -4.4889399   -2.5981045 
H     0.5954408   -6.6074132   -2.4761541 
H    -0.1691773   -6.8067809   -0.1004299 
H    -1.0393045   -4.8174009    1.1024143 
H    -0.3996806   -2.4048587   -2.4380153 
H     0.4473600   -4.3962848   -3.6420389 
C     0.0317481    1.5847861   -2.7387661 
C    -0.8483058    3.3402579   -0.2440919 
C     2.4020027   -2.5179903    1.6629676 
C     0.7997165   -0.3913507    3.3717315 
C     1.9299536    2.8769925   -0.8212679 
C     2.8260104    0.4129224    1.3440862 
C     3.2491572    2.3701775   -1.4480172 
C     3.5433571    0.2480399   -0.0105969 
C     4.1730173    1.5518226   -0.5350213 
C     0.5433580    2.6905891   -3.6849628 
C    -1.4719766    1.3432278   -2.9811785 
C     0.7822491    0.2649851   -3.0479741 
C    -2.2033736    2.7252417    0.1400606 
C    -1.0689855    4.4651060   -1.2767231 
C    -0.2213572    3.9697333    1.0247723 
C     3.7934514   -2.4177073    2.3289890 
C     1.5542896   -3.5596462    2.4210082 
C     2.5833905   -2.9864506    0.1989043 
C     0.4359155    1.1094492    3.3441626 
C     1.8185524   -0.6389773    4.5030829 
C    -0.5076287   -1.1682610    3.6446922 
H     1.6512905    3.8242275   -1.3161326 
H     2.1084122    3.1356936    0.2358393 
H     2.3169263    1.3882925    1.3899279 
H     3.5501070    0.3902534    2.1784054 
H     3.0525236    1.7928191   -2.3672315 
H     3.8042272    3.2668945   -1.7792176 
H     4.3239204   -0.5241686    0.0906316 
H     2.8282589   -0.1354798   -0.7641171 
H     5.0822713    1.3092999   -1.1133531 
H     4.5111561    2.1747685    0.3161952 
H     0.3585567    2.3709877   -4.7275612 
H     1.6267769    2.8637600   -3.5876620 
H     0.0235999    3.6483294   -3.5388042 
H    -2.0708281    2.2631008   -2.8908672 
H    -1.6204898    0.9482977   -4.0030975 
H    -1.8712367    0.6034758   -2.2684548 
H     0.5428054   -0.0636886   -4.0762112 
H     0.4842571   -0.5374839   -2.3448403 
H     1.8764267    0.3718549   -2.9770650 
H    -2.8732439    3.5119231    0.5326517 
H    -2.7069857    2.2605426   -0.7192060 
H    -2.0845782    1.9553851    0.9226325 
H    -1.6309458    4.1236224   -2.1603134 
H    -0.1226117    4.9216978   -1.6141764 
H    -1.6630961    5.2664685   -0.7999380 
H     0.1076175    3.2104384    1.7509997 
H     0.6315419    4.6274611    0.7925026 
H    -0.9877775    4.5931116    1.5203213 
H     4.2522627   -3.4235369    2.3147768 
H     3.7474911   -2.0909928    3.3784413 
H     4.4745223   -1.7455681    1.7823395 
H     0.5220495   -3.5966813    2.0455842 
H     1.9967480   -4.5604867    2.2684751 
H     1.5314779   -3.3685888    3.5059333 
H     1.6324853   -2.9946469   -0.3515255 
H     2.9806305   -4.0176869    0.2034273 
H     3.2978686   -2.3587392   -0.3537790 
H    -0.0812726    1.3724594    4.2847973 
H     1.3218314    1.7609545    3.2628920 
H    -0.2485539    1.3290089    2.5061513 
H     2.7718288   -0.1120253    4.3279741 
H     2.0297554   -1.7092987    4.6534192 
H     1.3971765   -0.2516835    5.4491539 
H    -1.2750819   -0.9098238    2.8945493 
H    -0.3740794   -2.2597184    3.6459630 
H    -0.8952412   -0.8772731    4.6380897 
