98
Energy =
C    -0.8526700   -2.5335483   -1.2116939 
C    -1.8729857   -1.7313136   -0.6959506 
C    -2.2680090   -0.4959668   -1.3149925 
H    -2.4410532   -2.0875456    0.1718161 
Pd   -0.2950633   -0.1815486   -0.2918923 
P     0.1760463    2.1013537   -1.0814167 
P     1.3475577   -0.6583382    1.4589873 
H    -0.3492216   -2.1885062   -2.1260008 
H    -2.0651324   -0.4139662   -2.3900363 
C     0.0277799   -6.5979720   -0.1815370 
C     0.7801867   -5.9294590   -1.1599022 
C     0.4833208   -4.6017733   -1.4820234 
C    -0.5634114   -3.9091402   -0.8243821 
C    -1.3254610   -4.6068428    0.1491293 
C    -1.0301084   -5.9336800    0.4655179 
H     0.2548719   -7.6391980    0.0691146 
H     1.5937404   -6.4479643   -1.6769856 
H     1.0656899   -4.0852968   -2.2526454 
H    -2.1553209   -4.1079302    0.6586739 
H    -1.6290263   -6.4599695    1.2154705 
C    -5.9199055    1.3922941   -0.0173294 
C    -5.0551387    0.8128525    0.9260949 
C    -3.8669929    0.2050721    0.5103521 
C    -3.5089692    0.1649761   -0.8583915 
C    -4.3991933    0.7370046   -1.7963269 
C    -5.5895978    1.3457921   -1.3802866 
H    -6.8492902    1.8703980    0.3083018 
H    -5.3071494    0.8418829    1.9912962 
H    -3.1871367   -0.2150750    1.2596517 
H    -4.1640859    0.6871943   -2.8650175 
H    -6.2664080    1.7787266   -2.1241076 
C     0.3245010   -0.5324425    3.0940072 
C     2.3683517   -2.2991653    1.4805817 
C    -0.8048040    3.5657945   -0.2782540 
C    -0.0341650    2.1313572   -3.0053659 
C     2.6474408    0.6653042    1.6831730 
C     1.9088140    2.7891603   -0.8663046 
C     3.7934483    0.7081118    0.6454164 
C     3.1213597    2.0597786   -1.4596117 
C     3.4213462    0.6871656   -0.8529128 
C     1.1258355   -0.8547716    4.3705473 
C    -0.9146548   -1.4524657    2.9990555 
C    -0.1977876    0.9177734    3.1840380 
C     3.5878188   -2.2662408    2.4299492 
C     2.8544972   -2.5547790    0.0340256 
C     1.4596568   -3.4697888    1.9063552 
C    -2.2467735    3.1019946   -0.0143108 
C    -0.1436623    3.8980674    1.0818546 
C    -0.8116135    4.8585337   -1.1209892 
C     0.7444672    3.2715954   -3.7025638 
C    -1.5242610    2.2564262   -3.3810810 
C     0.5039424    0.7764429   -3.5279909 
H     2.0866361    1.6141658    1.6890425 
H     3.0834720    0.5532776    2.6920619 
H     1.8575460    3.8139656   -1.2757173 
H     2.0542867    2.9064324    0.2179138 
H     4.3968495    1.6128498    0.8545377 
H     4.4706248   -0.1380978    0.8459909 
H     3.0165042    1.9580070   -2.5530627 
H     3.9993855    2.7168159   -1.3063879 
H     4.2686052    0.2505253   -1.4114727 
H     2.5604436    0.0129137   -1.0253502 
H     0.4896811   -0.6460571    5.2506498 
H     2.0314328   -0.2319633    4.4671004 
H     1.4201872   -1.9145203    4.4248116 
H    -0.6649888   -2.5222317    3.0055679 
H    -1.5746595   -1.2558466    3.8638492 
H    -1.4864573   -1.2375682    2.0798008 
H    -0.8805313    1.0022723    4.0491568 
H    -0.7667112    1.1894590    2.2772034 
H     0.6119002    1.6509816    3.3338760 
H     4.0965064   -3.2462821    2.3686928 
H     4.3296901   -1.5006862    2.1557431 
H     3.3021996   -2.1102913    3.4805879 
H     3.6838137   -1.8912307   -0.2522662 
H     2.0382626   -2.4231134   -0.6950245 
H     3.2190718   -3.5948800   -0.0460743 
H     1.2313803   -3.4453075    2.9836672 
H     0.5155833   -3.4856660    1.3460161 
H     1.9809375   -4.4220037    1.7007376 
H    -2.8116596    3.9186105    0.4708528 
H    -2.2646777    2.2300921    0.6579633 
H    -2.7820837    2.8252463   -0.9349643 
H     0.7924832    4.4679834    0.9670670 
H    -0.8406462    4.5267128    1.6648846 
H     0.0620233    2.9955685    1.6759414 
H     0.2051808    5.2234743   -1.3452044 
H    -1.3161333    5.6473917   -0.5331257 
H    -1.3669982    4.7518638   -2.0650884 
H     0.5319081    3.2155988   -4.7861567 
H     0.4352624    4.2696453   -3.3604211 
H     1.8352072    3.1826530   -3.5836056 
H    -1.9130884    3.2723925   -3.2114025 
H    -2.1519187    1.5588226   -2.8138824 
H    -1.6465632    2.0307495   -4.4563341 
H     1.5634601    0.6150147   -3.2705186 
H    -0.0722831   -0.0708756   -3.1208191 
H     0.4172542    0.7527708   -4.6299446 
