98
Energy =
C    -2.9913421   -0.4993533    0.0913384 
C    -2.1632574   -1.3972473   -0.5743487 
C    -1.2330800   -2.2593984    0.1329232 
H    -2.2801255   -1.5358260   -1.6572264 
Pd   -0.2119498   -0.3156717    0.0452471 
P     1.5036972   -0.7444574    1.6344289 
P     0.2775665    1.9095866   -0.9407832 
H    -2.8700502   -0.4258820    1.1811211 
H    -1.4830551   -2.4518299    1.1842096 
C    -6.3311427    1.7269026   -1.3934944 
C    -5.9072966    1.8716942   -0.0624160 
C    -4.8145270    1.1370164    0.4035526 
C    -4.1141635    0.2472905   -0.4518832 
C    -4.5717585    0.0975921   -1.7874513 
C    -5.6638248    0.8332896   -2.2504899 
H    -7.1890829    2.2991747   -1.7610021 
H    -6.4338989    2.5555362    0.6106695 
H    -4.4822525    1.2510486    1.4412555 
H    -4.0784970   -0.6100028   -2.4606704 
H    -6.0079260    0.7047238   -3.2816069 
C     0.3302458   -5.7241644   -1.9171930 
C    -0.1696828   -5.8325531   -0.6105990 
C    -0.6720042   -4.7032900    0.0471950 
C    -0.6818952   -3.4370971   -0.5816307 
C    -0.1959949   -3.3522274   -1.9079086 
C     0.3084731   -4.4785625   -2.5656306 
H     0.7262539   -6.6060465   -2.4308769 
H    -0.1760075   -6.8030814   -0.1037430 
H    -1.0796253   -4.8053909    1.0589368 
H    -0.1861606   -2.3847647   -2.4188844 
H     0.6901256   -4.3849623   -3.5876091 
C    -0.2325836    1.7214206   -2.7927483 
C    -0.6140916    3.4333351   -0.1590736 
C     2.4142695   -2.4403452    1.7111932 
C     0.7402358   -0.3449702    3.3688319 
C     2.0246596    2.5756188   -1.0502772 
C     2.8862005    0.5104313    1.5230844 
C     3.1080702    1.7127373   -1.7162753 
C     3.9028015    0.3858803    0.3665405 
C     3.3604805    0.3405439   -1.0771771 
C     0.2766501    0.3304762   -3.2396969 
C     0.3450833    2.7955957   -3.7370371 
C    -1.7701412    1.7027235   -2.8844107 
C    -1.9793786    2.9529480    0.3695183 
C    -0.8148339    4.6225079   -1.1215040 
C     0.2395881    3.9347629    1.0309312 
C     3.7494259   -2.3930397    2.4903575 
C     1.4992940   -3.4895528    2.3746046 
C     2.6973742   -2.8721472    0.2523272 
C     1.6871731   -0.6527040    4.5473353 
C    -0.5913635   -1.1070349    3.5486139 
C     0.4010663    1.1601808    3.3882135 
H     1.9538218    3.5493796   -1.5683139 
H     2.3265185    2.8042805   -0.0159689 
H     2.3735451    1.4850107    1.4872198 
H     3.4341110    0.4789445    2.4827189 
H     2.8774545    1.5763325   -2.7870862 
H     4.0493614    2.2950170   -1.6898922 
H     4.6070293    1.2356780    0.4592890 
H     4.5163268   -0.5135602    0.5379122 
H     2.4384032   -0.2719843   -1.1182887 
H     4.1025352   -0.1859836   -1.7036698 
H    -0.0726763    0.1250000   -4.2684911 
H    -0.1222272   -0.4593291   -2.5769368 
H     1.3744703    0.2494985   -3.2344540 
H     1.4468941    2.7903906   -3.7578804 
H     0.0008836    2.5767855   -4.7650975 
H     0.0063003    3.8112770   -3.4871789 
H    -2.0741886    1.3853799   -3.8987688 
H    -2.2238896    2.6885537   -2.6979118 
H    -2.1958310    0.9878599   -2.1641323 
H    -2.4950732    3.7857726    0.8819516 
H    -2.6364888    2.6006500   -0.4389660 
H    -1.8599583    2.1256016    1.0912344 
H    -1.5046664    4.3913154   -1.9478959 
H     0.1384406    4.9815065   -1.5454078 
H    -1.2551362    5.4622460   -0.5525245 
H     0.5767981    3.1143677    1.6819565 
H     1.1227165    4.5034719    0.6971833 
H    -0.3762681    4.6151226    1.6466746 
H     4.1940640   -3.4049523    2.4610299 
H     3.6204752   -2.1223207    3.5481438 
H     4.4838733   -1.7059870    2.0427287 
H     0.4957398   -3.4961254    1.9298359 
H     1.9346697   -4.4929900    2.2193000 
H     1.4064814   -3.3325796    3.4611408 
H     1.7887351   -2.8467808   -0.3673369 
H     3.0746279   -3.9108223    0.2551754 
H     3.4642140   -2.2449143   -0.2266575 
H     1.2209371   -0.2790251    5.4776444 
H     1.8601586   -1.7318470    4.6797326 
H     2.6628939   -0.1479157    4.4462392 
H    -0.4790861   -2.2000007    3.5065030 
H    -1.3195459   -0.7992843    2.7787359 
H    -1.0169395   -0.8522014    4.5363701 
H     1.2993584    1.7991840    3.3872544 
H    -0.2343854    1.4293493    2.5275314 
H    -0.1632200    1.3892135    4.3105730 
