98
Energy =
C    -3.1030608   -0.5694309    0.1866603 
C    -2.2382400   -1.4134013   -0.4941105 
C    -1.2836642   -2.2751358    0.1840545 
H    -2.3548245   -1.5336704   -1.5788486 
Pd   -0.2432222   -0.3688966    0.0828994 
P     1.4917545   -0.8371069    1.6060277 
P     0.3023511    1.9095876   -0.8570773 
H    -3.0032258   -0.5282368    1.2804886 
H    -1.5058166   -2.4820616    1.2393265 
C    -6.3856587    1.7241488   -1.3193220 
C    -6.0560516    1.7528788    0.0455302 
C    -4.9848498    0.9915631    0.5187524 
C    -4.2156596    0.1867925   -0.3613718 
C    -4.5790640    0.1517769   -1.7331122 
C    -5.6472975    0.9171592   -2.2038465 
H    -7.2244994    2.3198848   -1.6935785 
H    -6.6375556    2.3693971    0.7382232 
H    -4.7218567    1.0200954    1.5820113 
H    -4.0303813   -0.4870851   -2.4312079 
H    -5.9171893    0.8796681   -3.2640479 
C     0.1881664   -5.7239475   -1.9587933 
C    -0.2193655   -5.8358302   -0.6208477 
C    -0.6952058   -4.7126779    0.0664664 
C    -0.7680233   -3.4493905   -0.5630092 
C    -0.3812951   -3.3620403   -1.9220038 
C     0.0968463   -4.4821778   -2.6090056 
H     0.5641241   -6.6006477   -2.4958513 
H    -0.1741213   -6.8043389   -0.1121106 
H    -1.0315361   -4.8173742    1.1036467 
H    -0.4319680   -2.3985893   -2.4395466 
H     0.4020337   -4.3876881   -3.6563063 
C     0.0062152    1.5894219   -2.7359220 
C    -0.8460278    3.3415000   -0.2291324 
C     2.4152012   -2.5246260    1.6338043 
C     0.8333252   -0.3992634    3.3631580 
C     1.9255600    2.8754528   -0.8353861 
C     2.8398348    0.4063787    1.3164758 
C     3.2376669    2.3679502   -1.4763222 
C     3.5432151    0.2428187   -0.0456743 
C     4.1695030    1.5465575   -0.5742142 
C    -1.5002177    1.3503652   -2.9635572 
C     0.7519140    0.2693011   -3.0552505 
C     0.5096472    2.6963581   -3.6851949 
C    -1.0754460    4.4686020   -1.2573742 
C    -0.2053016    3.9675388    1.0345286 
C    -2.1980871    2.7277654    0.1674772 
C     3.8136479   -2.4274834    2.2854255 
C     1.5740794   -3.5664710    2.3988890 
C     2.5805546   -2.9905742    0.1670049 
C     0.4709267    1.1019798    3.3422768 
C     1.8636164   -0.6501469    4.4833699 
C    -0.4720066   -1.1752241    3.6481770 
H     1.6432663    3.8239521   -1.3257616 
H     2.1150271    3.1320782    0.2203060 
H     2.3325796    1.3823403    1.3692407 
H     3.5723551    0.3811767    2.1433391 
H     3.0309639    1.7926286   -2.3946168 
H     3.7906714    3.2644894   -1.8114484 
H     4.3236074   -0.5307070    0.0463341 
H     2.8200228   -0.1383711   -0.7926102 
H     5.0724384    1.3036462   -1.1621990 
H     4.5172622    2.1674681    0.2746067 
H    -1.6596648    0.9576685   -3.9846859 
H    -2.0967829    2.2709082   -2.8653311 
H    -1.8933808    0.6098027   -2.2482742 
H     0.4611502   -0.5338769   -2.3498912 
H     0.5005915   -0.0577742   -4.0811544 
H     1.8469278    0.3751320   -2.9965799 
H     0.3143720    2.3786857   -4.7264718 
H     1.5941387    2.8682871   -3.5981557 
H    -0.0077079    3.6543550   -3.5323730 
H    -1.6632499    5.2700694   -0.7730119 
H    -0.1318414    4.9242292   -1.6037688 
H    -1.6470692    4.1296563   -2.1357257 
H     0.6457789    4.6249462    0.7948025 
H     0.1305035    3.2062955    1.7555732 
H    -0.9658864    4.5905230    1.5394635 
H    -2.7108017    2.2650418   -0.6874716 
H    -2.0727316    1.9565921    0.9477312 
H    -2.8629446    3.5147986    0.5678249 
H     4.2709746   -3.4338692    2.2643006 
H     3.7790814   -2.1029162    3.3359788 
H     4.4898312   -1.7550868    1.7330725 
H     0.5379881   -3.6017347    2.0340749 
H     2.0138441   -4.5675717    2.2403653 
H     1.5626898   -3.3770212    3.4842770 
H     1.6243309   -2.9937812   -0.3741959 
H     2.9738074   -4.0233419    0.1652540 
H     3.2920701   -2.3643494   -0.3912005 
H    -0.0361083    1.3637176    4.2887756 
H     1.3567152    1.7526143    3.2530384 
H    -0.2219910    1.3239328    2.5118649 
H     2.8155566   -0.1238109    4.2993593 
H     2.0752997   -1.7209644    4.6294439 
H     1.4525031   -0.2642955    5.4345236 
H    -1.2471565   -0.9139122    2.9070159 
H    -0.3400027   -2.2668551    3.6452868 
H    -0.8484932   -0.8862213    4.6464259 
