98
Energy =
C    -1.0124130   -2.6267456   -1.2369180 
C    -1.9194222   -1.7921153   -0.5945148 
C    -2.3047109   -0.5041724   -1.1429464 
H    -2.4353151   -2.1522563    0.3048807 
Pd   -0.3849350   -0.1030133   -0.1821475 
P    -0.0072837    2.0323666   -1.1520691 
P     1.4208486   -0.4760810    1.4754663 
H    -0.5476914   -2.2466490   -2.1573041 
H    -2.1710927   -0.4063941   -2.2281086 
C    -0.0103368   -6.6905761   -0.3500054 
C     0.6753188   -5.9871924   -1.3530745 
C     0.3294153   -4.6625299   -1.6356152 
C    -0.7011977   -4.0091380   -0.9135858 
C    -1.3944528   -4.7413479    0.0857109 
C    -1.0497332   -6.0645212    0.3628961 
H     0.2545001   -7.7298834   -0.1301744 
H     1.4752608   -6.4760548   -1.9180821 
H     0.8630692   -4.1143042   -2.4196880 
H    -2.2113323   -4.2712438    0.6420821 
H    -1.5958082   -6.6194848    1.1323132 
C    -5.8814260    1.4112158    0.3217070 
C    -4.9792318    0.8280333    1.2266696 
C    -3.8185219    0.2037709    0.7585438 
C    -3.5257905    0.1549780   -0.6252764 
C    -4.4521887    0.7318413   -1.5228004 
C    -5.6159189    1.3540948   -1.0551563 
H    -6.7896012    1.9007103    0.6877348 
H    -5.1808853    0.8642248    2.3023396 
H    -3.1123274   -0.2249705    1.4770543 
H    -4.2625379    0.6811919   -2.6007388 
H    -6.3216838    1.7921485   -1.7685066 
C     0.4836143   -0.4185406    3.1710724 
C     2.2899287   -2.1852880    1.2803451 
C    -0.9389774    3.5957483   -0.5101224 
C    -0.0720220    1.9528854   -3.0796527 
C     2.8583874    0.6916951    1.8492625 
C     1.7471854    2.5016454   -0.7753693 
C     4.1116367    0.7472214    0.9361048 
C     2.8563640    1.5208589   -1.1896289 
C     4.0934651    1.6818318   -0.2844401 
C     1.3137756   -0.8818731    4.3837739 
C    -0.8134374   -1.2559866    3.0836640 
C     0.0506277    1.0517839    3.3721649 
C     2.6501879   -2.3200854   -0.2189806 
C     1.2786681   -3.2901016    1.6416339 
C     3.5545967   -2.3811102    2.1465253 
C    -0.6895963    4.8515164   -1.3724177 
C    -2.4485069    3.3040070   -0.4284825 
C    -0.4316871    3.8859769    0.9218027 
C    -1.5146206    2.1594724   -3.5865140 
C     0.4043287    0.5413359   -3.5010102 
C     0.8580885    2.9939513   -3.7455342 
H     2.4293695    1.7003150    1.9759400 
H     3.1895272    0.3785079    2.8543736 
H     1.9518848    3.5076739   -1.1844880 
H     1.7498113    2.6086082    0.3202746 
H     4.9576826    1.0466722    1.5812490 
H     4.3607458   -0.2673028    0.5871981 
H     2.4862927    0.4791206   -1.1326871 
H     3.1300783    1.6934567   -2.2443357 
H     4.1675284    2.7368649    0.0432167 
H     5.0127443    1.4819711   -0.8632054 
H     0.7177613   -0.7268402    5.3021573 
H     2.2488903   -0.3091190    4.5052532 
H     1.5628598   -1.9538107    4.3324676 
H    -0.6337922   -2.3393319    3.1123029 
H    -1.4659433   -1.0012761    3.9387632 
H    -1.3658596   -1.0215275    2.1552435 
H    -0.5382852    1.1298069    4.3040722 
H    -0.5934396    1.3818771    2.5389666 
H     0.9009894    1.7473415    3.4615985 
H     3.0293106   -3.3401759   -0.4130657 
H     1.7643835   -2.1549443   -0.8563576 
H     3.4307895   -1.6077903   -0.5319821 
H     0.2909378   -3.0914277    1.2027605 
H     1.1641938   -3.3995277    2.7319893 
H     1.6299314   -4.2588161    1.2430922 
H     4.3764958   -1.7004280    1.8797190 
H     3.3469176   -2.2659109    3.2213243 
H     3.9230087   -3.4121626    1.9910952 
H    -1.1703093    5.7125288   -0.8725008 
H    -1.1321240    4.7712880   -2.3775443 
H     0.3827203    5.0907298   -1.4734328 
H    -2.6582499    2.4809872    0.2716395 
H    -2.9684400    4.2064652   -0.0587543 
H    -2.8879608    3.0424652   -1.4017724 
H    -0.4603682    2.9858458    1.5545878 
H    -1.0954067    4.6397238    1.3822261 
H     0.5908587    4.2975783    0.9356517 
H    -1.5494557    1.9393652   -4.6692018 
H    -2.2294438    1.4909715   -3.0836866 
H    -1.8620410    3.1955345   -3.4491534 
H     0.4142785    0.4821044   -4.6049880 
H    -0.2711973   -0.2437606   -3.1257054 
H     1.4205498    0.3139195   -3.1422056 
H     0.6000540    4.0299268   -3.4842851 
H     1.9187541    2.8244249   -3.5003980 
H     0.7583854    2.8952310   -4.8422959 
