41
Energy =
C     0.7721404    1.7223379    0.4046737 
C     0.3563671    1.2358488   -0.8669496 
C    -1.0320207    1.1478380   -1.1692414 
H     1.0882667    0.7646985   -1.5342887 
Pd   -0.5743769   -0.0341364    0.6675122 
P    -2.1673052   -1.7393585    0.6301724 
P     0.2098565   -1.0122608    2.6373713 
H     0.0941427    2.4285875    0.9104064 
H    -1.6967516    1.8591373   -0.6532028 
C     4.7766783    1.7665950    1.9691998 
C     3.7825824    2.5885965    2.5209229 
C     2.4830910    2.5618199    2.0007425 
C     2.1550978    1.7159662    0.9161187 
C     3.1659076    0.8865921    0.3745383 
C     4.4629757    0.9154994    0.8952060 
H     5.7938608    1.7871379    2.3732534 
H     4.0214541    3.2561799    3.3549528 
H     1.7110171    3.2109017    2.4297825 
H     2.9363356    0.2068901   -0.4532968 
H     5.2359793    0.2715872    0.4634177 
C    -2.8065035   -0.6502392   -4.6478861 
C    -3.5299762    0.2612489   -3.8642479 
C    -2.9381663    0.8374166   -2.7338493 
C    -1.6103311    0.5163479   -2.3692066 
C    -0.8952571   -0.4107098   -3.1640975 
C    -1.4879416   -0.9843412   -4.2928607 
H    -3.2666958   -1.1005893   -5.5331692 
H    -4.5558908    0.5281204   -4.1373801 
H    -3.5042348    1.5548207   -2.1284915 
H     0.1279815   -0.6939866   -2.8943445 
H    -0.9211976   -1.6967588   -4.9010428 
C    -1.5929552   -3.0356390    1.8567415 
C    -0.9929064   -2.3699045    3.1124063 
H    -2.4209879   -3.7127645    2.1271746 
H    -0.8295284   -3.6382386    1.3309808 
H    -1.7847954   -1.8816144    3.7099064 
H    -0.5043357   -3.1173231    3.7604358 
H    -2.4464353   -2.4841263   -0.5434025 
H    -3.4946541   -1.4590336    1.0494661 
H     1.4567092   -1.6825169    2.5350797 
H     0.4228037   -0.3206268    3.8564963 
