41
Energy =
C     0.1465641   -0.6319635   -1.8219381 
C     0.8750849    0.4222723   -1.2021088 
C     1.9055361    0.1143580   -0.2690298 
H     0.5262076    1.4570806   -1.3047128 
Pd   -0.0178836   -0.7905362    0.3984207 
P     0.1711186   -0.7803395    2.7259573 
P    -2.1084784   -1.7774140    0.7210557 
H     0.6721890   -1.5930122   -1.9409115 
H     2.4201627   -0.8510491   -0.4002960 
C    -3.3076386   -0.2334438   -4.3496440 
C    -2.5267498   -1.3984023   -4.3823221 
C    -1.4064281   -1.5144888   -3.5507506 
C    -1.0430088   -0.4647012   -2.6762635 
C    -1.8447270    0.7010645   -2.6473560 
C    -2.9632718    0.8145255   -3.4781252 
H    -4.1832980   -0.1401869   -4.9999476 
H    -2.7880389   -2.2166202   -5.0609747 
H    -0.7946742   -2.4233751   -3.5845481 
H    -1.5997022    1.5209073   -1.9631889 
H    -3.5726358    1.7235879   -3.4478232 
C     4.0778670    2.9052209    2.1759565 
C     4.5948245    1.6272953    1.9157243 
C     3.8743721    0.7286741    1.1197510 
C     2.6264282    1.0940889    0.5646688 
C     2.1130746    2.3833958    0.8423457 
C     2.8342340    3.2788680    1.6374753 
H     4.6402956    3.6097684    2.7969330 
H     5.5642213    1.3316293    2.3294446 
H     4.2852387   -0.2661515    0.9126585 
H     1.1385891    2.6857783    0.4434685 
H     2.4266219    4.2743862    1.8409050 
C    -1.2854894   -1.7386972    3.4151963 
C    -2.5356514   -1.5475780    2.5318638 
H    -0.9755579   -2.7999831    3.4262334 
H    -1.4902591   -1.4441156    4.4585681 
H    -3.3414193   -2.2377907    2.8345591 
H    -2.9273192   -0.5180504    2.6263287 
H     0.0657229    0.4920271    3.3458842 
H     1.2756091   -1.2955592    3.4502991 
H    -3.2666811   -1.3251749    0.0398260 
H    -2.2550493   -3.1762949    0.5264171 
