109
Energy =
C    -1.6767081    1.8861993   -1.6634423 
C    -0.3887362    1.9371860   -2.2379035 
C     0.2402993    0.7680198   -2.7591110 
H     0.1831074    2.8708414   -2.1799894 
Pd   -0.1461871    0.5241326   -0.5587276 
P     1.2599978   -1.2965806   -0.1382391 
P    -1.0438671    0.9421022    1.5704845 
H    -2.2953218    1.0104850   -1.9085266 
H    -0.4231816   -0.0297680   -3.1219179 
C    -3.9916585    5.2125276   -0.2398409 
C    -2.6488270    5.4083188   -0.6047000 
C    -1.8710249    4.3328316   -1.0396856 
C    -2.4251073    3.0342347   -1.1340753 
C    -3.7751926    2.8507418   -0.7530049 
C    -4.5498474    3.9278246   -0.3080226 
H    -4.5978771    6.0595390    0.0974891 
H    -2.2049312    6.4068427   -0.5450303 
H    -0.8266796    4.5094939   -1.3129255 
H    -4.2197966    1.8523795   -0.8141187 
H    -5.5943460    3.7644904   -0.0234735 
C     4.1234854    0.7494915   -4.6326421 
C     3.7829606    1.7840337   -3.7450813 
C     2.5318204    1.7967707   -3.1191262 
C     1.5802813    0.7826210   -3.3800908 
C     1.9311731   -0.2402594   -4.2911254 
C     3.1903633   -0.2625808   -4.9038981 
H     5.1062262    0.7383031   -5.1144380 
H     4.5022976    2.5820975   -3.5342667 
H     2.2989272    2.5982997   -2.4102220 
H     1.1983218   -1.0193820   -4.5286823 
H     3.4396728   -1.0664620   -5.6042613 
O    -2.3048297   -1.6116023    4.6493993 
N    -0.9961715   -1.9256482    2.8029091 
N    -3.0543779   -3.0271015    2.9949404 
C     0.9127132   -2.2996086    1.4074352 
C     1.1639461   -2.5710932   -1.5082093 
C     3.0784987   -0.8417486    0.0609012 
C     1.3350544   -1.6481311    2.7480822 
C     0.0529542   -1.0774814    3.3748205 
C    -0.5936383   -2.6354337    1.5917407 
C     1.9182047   -3.8956311   -1.2538888 
C    -0.2856278   -2.8789300   -1.9506566 
C     3.9355214   -1.0024442   -1.2144422 
C     3.1829290    0.6118675    0.5864008 
C     1.9396259   -4.7466488   -2.5388006 
C    -0.2875150   -3.7323220   -3.2328175 
C     5.3973230   -0.5943424   -0.9501264 
C     4.6425488    1.0127287    0.8571356 
C     0.5152528   -5.0308807   -3.0441587 
C     5.5059836    0.8367055   -0.4013024 
C    -0.2088941    0.4293351    3.1609026 
C    -2.1451246   -2.1627641    3.5566306 
C    -1.0113434    2.7650157    1.8389134 
C    -2.7777716    0.3642860    1.7269446 
C    -4.2906084   -3.3830084    3.6740683 
C     0.2239326    3.4072237    1.5968647 
C    -3.3475748   -0.3404310    0.6453674 
C    -2.1018318    3.5205845    2.3041358 
C    -3.5522542    0.5813588    2.8861240 
C     0.3722735    4.7765824    1.8499572 
C    -4.6767807   -0.7798007    0.6985290 
C    -1.9477036    4.8924982    2.5528295 
C    -4.8836869    0.1475686    2.9334642 
C    -0.7135731    5.5207337    2.3372061 
C    -5.4526441   -0.5192990    1.8383349 
H     1.4888033   -3.2274400    1.2581110 
H     1.6618031   -2.0412607   -2.3438813 
H     3.4747315   -1.5311761    0.8335388 
H     1.7251361   -2.4404685    3.4088254 
H     2.1316383   -0.8949744    2.6509461 
H     0.0570409   -1.2314290    4.4665717 
H    -1.1946359   -2.3033159    0.7190437 
H    -0.7418751   -3.7275423    1.7065190 
H     2.9472298   -3.7126967   -0.8975127 
H     1.4005237   -4.4655514   -0.4579222 
H    -0.8053450   -3.4376757   -1.1488338 
H    -0.8532170   -1.9420983   -2.1008736 
H     3.9094513   -2.0419200   -1.5791951 
H     3.5196055   -0.3703009   -2.0159547 
H     2.7440989    1.2829884   -0.1788467 
H     2.5727089    0.7441364    1.4986484 
H     2.5116699   -4.2059505   -3.3182654 
H     2.4774485   -5.6926329   -2.3496427 
H     0.1552873   -3.1421729   -4.0592918 
H    -1.3268477   -3.9602959   -3.5300263 
H     5.9723229   -0.6914310   -1.8885306 
H     5.8483263   -1.3014975   -0.2260167 
H     5.0453344    0.3848631    1.6762938 
H     4.6799727    2.0581399    1.2133328 
H    -0.0070064   -5.6747297   -2.3089435 
H     0.5500972   -5.5994697   -3.9902691 
H     6.5597293    1.0847275   -0.1824881 
H     5.1636400    1.5480881   -1.1770183 
H     0.7249508    1.0142924    3.2345723 
H    -0.8782592    0.7940226    3.9596939 
H    -2.9237952   -3.3427366    2.0382423 
H    -4.3001804   -2.8488020    4.6355360 
H    -4.3453076   -4.4706181    3.8618982 
H    -5.1714806   -3.0747602    3.0831592 
H     1.0716226    2.8285616    1.2087819 
H    -2.7360342   -0.5409936   -0.2428175 
H    -3.0777832    3.0522951    2.4548807 
H    -3.1205814    1.0680374    3.7649026 
H     1.3362998    5.2629960    1.6675042 
H    -5.1077680   -1.3204220   -0.1508913 
H    -2.8050038    5.4727284    2.9087936 
H    -5.4735826    0.3210694    3.8387937 
H    -0.5997801    6.5911471    2.5372045 
H    -6.4954444   -0.8506434    1.8803878 
