109
Energy =
C    -1.4997387    1.7393625   -1.9543042 
C    -0.1578559    1.8809169   -2.3579085 
C     0.6400421    0.7545741   -2.7404664 
H     0.3197297    2.8645988   -2.2740742 
Pd   -0.0100006    0.5499741   -0.6042212 
P     1.2169224   -1.3499163   -0.0423603 
P    -1.0420771    1.1330369    1.4260043 
H    -1.9956337    0.7852549   -2.1896500 
H     0.1145246   -0.0905129   -3.2067471 
C    -4.2758930    4.8742982   -1.0085575 
C    -4.6747182    3.5298636   -0.9727900 
C    -3.7530590    2.5195215   -1.2671486 
C    -2.4116460    2.8308635   -1.5934087 
C    -2.0217314    4.1910892   -1.6106252 
C    -2.9465020    5.1988501   -1.3277052 
H    -4.9971748    5.6685578   -0.7902613 
H    -5.7082963    3.2675430   -0.7250231 
H    -4.0726203    1.4728267   -1.2487628 
H    -0.9930023    4.4676338   -1.8579318 
H    -2.6294907    6.2459695   -1.3537629 
C     4.7297835    1.2512103   -4.0260610 
C     4.1805291    2.1304458   -3.0780166 
C     2.8640889    1.9610045   -2.6372997 
C     2.0545922    0.9173535   -3.1452274 
C     2.6195088    0.0494896   -4.1072379 
C     3.9428057    0.2091801   -4.5380400 
H     5.7621818    1.3818173   -4.3655863 
H     4.7871297    2.9465095   -2.6720743 
H     2.4607256    2.6449248   -1.8821485 
H     2.0027863   -0.7430895   -4.5449930 
H     4.3549572   -0.4730769   -5.2887762 
O    -2.0902697   -0.8654233    4.9456358 
N    -0.8090211   -1.5410816    3.1813818 
N    -2.8490203   -2.5994157    3.6354620 
C     0.9915537   -2.0398053    1.6844507 
C     0.7239906   -2.8433988   -1.1049378 
C     3.0672114   -1.1765975   -0.2604860 
C     1.4696693   -1.0872577    2.8122153 
C     0.2049253   -0.5341341    3.4914187 
C    -0.4841631   -2.3837290    2.0384223 
C    -0.7762734   -2.7940075   -1.4876376 
C     1.5839573   -3.0111007   -2.3764054 
C     3.6422528    0.1586923    0.2653402 
C     3.8972414   -2.3693258    0.2630155 
C    -1.2026575   -4.0235626   -2.3091037 
C     1.1495864   -4.2387086   -3.1989148 
C     5.1145191    0.3025814   -0.1597734 
C     5.3726369   -2.2221423   -0.1562463 
C    -0.3394067   -4.1813554   -3.5690120 
C     5.9598100   -0.8859704    0.3275430 
C    -0.2110057    0.8941862    3.0820762 
C    -1.9383830   -1.6324943    3.9892462 
C    -1.1643314    2.9719137    1.4653619 
C    -2.7308650    0.4474275    1.6240244 
C    -4.0421312   -2.8510787    4.4284095 
C     0.0248809    3.6827023    1.1873787 
C    -3.5414467    0.7234246    2.7459329 
C    -2.3318467    3.6825852    1.7940201 
C    -3.2265172   -0.3987826    0.6101655 
C     0.0513435    5.0803949    1.2708499 
C    -4.8325748    0.1859552    2.8267313 
C    -2.2994232    5.0827419    1.8751568 
C    -4.5139047   -0.9449695    0.7006659 
C    -1.1114575    5.7828716    1.6244090 
C    -5.3237740   -0.6409468    1.8050237 
H     1.5924229   -2.9647377    1.6934707 
H     0.8909084   -3.7256442   -0.4540027 
H     3.1565547   -1.1343168   -1.3644945 
H     2.0563030   -1.6650391    3.5453481 
H     2.1175176   -0.2769918    2.4471681 
H     0.3346350   -0.5020171    4.5865584 
H    -1.1729987   -2.1786335    1.1941822 
H    -0.5823875   -3.4567394    2.2959197 
H    -1.4087895   -2.7104704   -0.5880477 
H    -0.9569386   -1.8742336   -2.0788806 
H     1.4859913   -2.1019519   -2.9948028 
H     2.6521546   -3.1052765   -2.1220885 
H     3.0374957    1.0026685   -0.1114285 
H     3.5881019    0.1888419    1.3691000 
H     3.8378647   -2.3949273    1.3683879 
H     3.4905973   -3.3308945   -0.1005620 
H    -1.1068402   -4.9307199   -1.6804271 
H    -2.2714802   -3.9350089   -2.5752556 
H     1.3467293   -5.1559499   -2.6100246 
H     1.7752245   -4.3078029   -4.1068756 
H     5.5220562    1.2536899    0.2279476 
H     5.1621063    0.3623502   -1.2630285 
H     5.4389827   -2.2767816   -1.2607306 
H     5.9583478   -3.0706139    0.2403685 
H    -0.5172931   -3.3203288   -4.2440236 
H    -0.6334976   -5.0870611   -4.1280669 
H     7.0030131   -0.7802782   -0.0194443 
H     5.9939308   -0.8836882    1.4351181 
H     0.6601926    1.5728092    3.0949358 
H    -0.9327034    1.2752907    3.8255692 
H    -2.6776852   -3.1853336    2.8236235 
H    -3.9948359   -3.8320088    4.9366967 
H    -4.9461438   -2.8170618    3.7954567 
H    -4.1025637   -2.0579726    5.1882895 
H     0.9349573    3.1347480    0.9087723 
H    -3.1661009    1.3318878    3.5729162 
H    -3.2720080    3.1536492    1.9709783 
H    -2.5916385   -0.6223917   -0.2551772 
H     0.9803125    5.6215144    1.0624993 
H    -5.4509932    0.4032161    3.7031807 
H    -3.2149737    5.6268861    2.1282895 
H    -4.8860633   -1.6002434   -0.0941146 
H    -1.0926899    6.8753707    1.6935972 
H    -6.3337487   -1.0580676    1.8764468 
