109
Energy =
C    -1.9076405    1.8130468   -1.6533606 
C    -0.7658437    1.5795829   -2.4598470 
C    -0.4570381    0.2759763   -2.9265308 
H    -0.0539560    2.3945865   -2.6395366 
Pd   -0.4388419    0.3605962   -0.6504356 
P     1.1909181   -1.2399088   -0.0920808 
P    -1.1088621    0.9734793    1.5187206 
H    -2.7195972    1.0764570   -1.7274129 
H    -1.2947040   -0.4359548   -2.9843285 
C    -3.2541932    5.6609688   -0.2917763 
C    -4.0980439    4.5428663   -0.2277593 
C    -3.6358732    3.2900681   -0.6482878 
C    -2.3204239    3.1298010   -1.1418973 
C    -1.4716662    4.2614927   -1.1713933 
C    -1.9375622    5.5124457   -0.7595945 
H    -3.6159859    6.6438059    0.0273120 
H    -5.1233742    4.6465647    0.1419384 
H    -4.3029346    2.4228713   -0.6055629 
H    -0.4377163    4.1667694   -1.5171061 
H    -1.2680072    6.3774275   -0.7958466 
C     2.8041146   -0.7353296   -5.5514132 
C     2.9211323    0.3721802   -4.6938961 
C     1.8690967    0.7193569   -3.8406255 
C     0.6758641   -0.0396580   -3.8160980 
C     0.5659349   -1.1378053   -4.6984395 
C     1.6171223   -1.4822910   -5.5576502 
H     3.6295092   -1.0052768   -6.2178802 
H     3.8394223    0.9687993   -4.6924971 
H     1.9810882    1.5811382   -3.1760533 
H    -0.3606541   -1.7222443   -4.7100631 
H     1.5082343   -2.3356415   -6.2350860 
O    -2.7852186   -1.5900933    4.1560305 
N    -1.2973668   -1.8998433    2.4436636 
N    -3.3926044   -2.9555312    2.4052688 
C     0.7560339   -2.4043930    1.3223449 
C     1.6314337   -2.4209359   -1.4850694 
C     2.7015429   -0.2895007    0.4893114 
C     1.0345547   -1.9040349    2.7591874 
C    -0.2559186   -1.2151248    3.2273513 
C    -0.7603125   -2.7327401    1.3625176 
C     2.9057354   -3.2716859   -1.2923955 
C     0.4024967   -3.3123448   -1.7968057 
C     3.9253987   -1.0587366    1.0376738 
C     3.1439723    0.7512777   -0.5625806 
C     3.1282799   -4.2317272   -2.4776277 
C     0.6596445   -4.2786235   -2.9676728 
C     4.9231567   -0.0696811    1.6698892 
C     4.1855453    1.7210501    0.0267012 
C     1.9106917   -5.1332961   -2.7208048 
C     5.3829891    0.9774562    0.6413805 
C    -0.2924232    0.3238350    3.0675381 
C    -2.5281992   -2.1210707    3.0740202 
C    -0.7328319    2.7641649    1.7467196 
C    -2.9040831    0.7225544    1.7987980 
C    -4.7354450   -3.2124494    2.9044340 
C     0.5865686    3.1627622    1.4373135 
C    -3.5439622    1.1313245    2.9868250 
C    -1.6434153    3.7225062    2.2253826 
C    -3.6604461    0.0623726    0.8090376 
C     0.9979427    4.4857110    1.6362394 
C    -4.9224041    0.9402641    3.1479935 
C    -1.2279741    5.0483394    2.4202152 
C    -5.0378588   -0.1303459    0.9722601 
C     0.0900741    5.4316921    2.1375311 
C    -5.6738131    0.3229336    2.1382069 
H     1.3368473   -3.3207866    1.1230832 
H     1.7947483   -1.7498225   -2.3488967 
H     2.2626418    0.2792966    1.3359472 
H     1.2121257   -2.7897383    3.3936241 
H     1.9184854   -1.2581511    2.8603713 
H    -0.4392683   -1.4230554    4.2940074 
H    -1.2576990   -2.4963026    0.4007191 
H    -0.9172052   -3.8102618    1.5740392 
H     3.7836749   -2.6148185   -1.1968983 
H     2.8386787   -3.8591086   -0.3550802 
H     0.1557302   -3.9218708   -0.9059349 
H    -0.4778783   -2.6749743   -2.0045463 
H     3.6279926   -1.8325363    1.7660838 
H     4.4321826   -1.5845745    0.2120268 
H     3.5666328    0.2281724   -1.4412486 
H     2.2600204    1.3119008   -0.9214330 
H     3.3273287   -3.6329762   -3.3880592 
H     4.0333454   -4.8363130   -2.2890751 
H     0.7996770   -3.6987234   -3.8968878 
H    -0.2306868   -4.9159822   -3.1161318 
H     5.7904019   -0.6235571    2.0710301 
H     4.4443684    0.4375470    2.5313944 
H     3.6989553    2.3350648    0.8109439 
H     4.5247887    2.4224268   -0.7567320 
H     1.7498385   -5.7848372   -1.8386715 
H     2.0926047   -5.8034305   -3.5796154 
H     6.0789603    1.6967821    1.1081016 
H     5.9480857    0.4676592   -0.1635607 
H     0.7201859    0.7625859    3.1077608 
H    -0.8625688    0.7749904    3.8978722 
H    -3.1776971   -3.2341300    1.4516911 
H    -4.7801046   -2.8352324    3.9365016 
H    -4.9518701   -4.2946563    2.8985666 
H    -5.4998258   -2.6854313    2.3034662 
H     1.2938641    2.4299540    1.0316717 
H    -2.9723659    1.5877887    3.8003112 
H    -2.6826940    3.4504326    2.4251346 
H    -3.1561537   -0.3087103   -0.0905279 
H     2.0258951    4.7778608    1.3965500 
H    -5.4067664    1.2629583    4.0747727 
H    -1.9483551    5.7869678    2.7860105 
H    -5.6139377   -0.6389919    0.1920022 
H     0.4067669    6.4678316    2.2949304 
H    -6.7510537    0.1764968    2.2682954 
