109
Energy =
C    -1.6758369    1.8630856   -1.8400182 
C    -0.3884797    1.8527879   -2.4205463 
C     0.2097285    0.6330201   -2.8600169 
H     0.2056153    2.7745606   -2.4251933 
Pd   -0.1758304    0.5501352   -0.6531765 
P     1.2193256   -1.2665758   -0.2114812 
P    -1.0187737    1.0916018    1.4671450 
H    -2.3088598    0.9831489   -2.0285371 
H    -0.4775912   -0.1661953   -3.1746962 
C    -3.9484618    5.2922366   -0.6083652 
C    -4.5188002    4.0110815   -0.5945232 
C    -3.7563148    2.9016204   -0.9762906 
C    -2.4075067    3.0494189   -1.3772117 
C    -1.8399882    4.3452537   -1.3630250 
C    -2.6054513    5.4524614   -0.9895107 
H    -4.5451001    6.1640465   -0.3208229 
H    -5.5630296    3.8756348   -0.2947075 
H    -4.2091279    1.9047284   -0.9721828 
H    -0.7955868    4.4941721   -1.6524645 
H    -2.1519576    6.4484627   -0.9917963 
C     4.1450643    0.2944548   -4.5940878 
C     3.8378471    1.3900019   -3.7698198 
C     2.5664394    1.5136389   -3.1992663 
C     1.5623810    0.5495426   -3.4493417 
C     1.8790893   -0.5308208   -4.3065062 
C     3.1568148   -0.6633742   -4.8648092 
H     5.1431489    0.1979836   -5.0330117 
H     4.5969848    2.1531972   -3.5695974 
H     2.3565774    2.3664940   -2.5454927 
H     1.1038676   -1.2654695   -4.5519570 
H     3.3759884   -1.5093181   -5.5246553 
O    -2.1097725   -1.2525488    4.7413795 
N    -0.8626228   -1.7219880    2.8873549 
N    -2.9278251   -2.7767068    3.2220315 
C     0.9712684   -2.1615247    1.4086992 
C     0.9653713   -2.5605399   -1.5431762 
C     3.0335840   -0.7908348   -0.3109764 
C     1.4503495   -1.3679493    2.6534635 
C     0.1899636   -0.8100941    3.3352682 
C    -0.5283538   -2.4771978    1.6850036 
C     1.8341101   -3.8344532   -1.4783819 
C    -0.5236896   -2.9325162   -1.7321447 
C     3.2511115    0.6751411    0.1408352 
C     4.0415758   -1.7299599    0.3936878 
C     1.6280542   -4.6880531   -2.7469292 
C    -0.7211277   -3.7677409   -3.0096675 
C     4.7014897    1.1240741   -0.1037554 
C     5.4877059   -1.2723184    0.1221312 
C     0.1490031   -5.0347153   -2.9780674 
C     5.7090216    0.1803378    0.5721890 
C    -0.1321139    0.6745392    3.0574954 
C    -1.9894442   -1.8883664    3.6897999 
C    -1.0023397    2.9261278    1.6333368 
C    -2.7415474    0.5110414    1.7067936 
C    -4.1305465   -3.0883104    3.9784831 
C     0.2278906    3.5664694    1.3627087 
C    -3.4751816    0.7737498    2.8831037 
C    -2.1054319    3.6954797    2.0427670 
C    -3.3449860   -0.2398287    0.6760052 
C     0.3591539    4.9500046    1.5342614 
C    -4.7986122    0.3292075    2.9992852 
C    -1.9682914    5.0815803    2.2097927 
C    -4.6662510   -0.6894686    0.7983300 
C    -0.7391354    5.7095318    1.9670349 
C    -5.3999391   -0.3910456    1.9563516 
H     1.5440046   -3.0993571    1.3181108 
H     1.2836351   -1.9930037   -2.4376931 
H     3.2220519   -0.8264923   -1.4040599 
H     1.9567620   -2.0631484    3.3433407 
H     2.1707273   -0.5717325    2.4132556 
H     0.2744953   -0.8976560    4.4314261 
H    -1.1722810   -2.1687850    0.8353306 
H    -0.6778914   -3.5631855    1.8451534 
H     2.9014792   -3.5745408   -1.3881440 
H     1.5654824   -4.4301124   -0.5839746 
H    -0.8688573   -3.5288259   -0.8662438 
H    -1.1471893   -2.0179800   -1.7588049 
H     2.5410160    1.3334413   -0.3929853 
H     3.0154646    0.7729075    1.2187937 
H     3.8630842   -1.7149935    1.4843856 
H     3.9089787   -2.7745814    0.0679106 
H     2.0139016   -4.1231658   -3.6185420 
H     2.2346321   -5.6082803   -2.6741258 
H    -0.4511075   -3.1535747   -3.8916597 
H    -1.7879298   -4.0314048   -3.1237170 
H     4.8353729    2.1603791    0.2560814 
H     4.8876207    1.1360073   -1.1941113 
H     5.6972142   -1.3597556   -0.9620688 
H     6.1908710   -1.9501357    0.6381351 
H    -0.2036737   -5.6950675   -2.1611446 
H     0.0318317   -5.6053255   -3.9163236 
H     6.7419636    0.4989549    0.3459764 
H     5.5925037    0.2433251    1.6724401 
H     0.7852244    1.2890907    3.0789915 
H    -0.7920655    1.0516097    3.8581388 
H    -2.8061036   -3.2087224    2.3108656 
H    -4.1358221   -2.4378649    4.8655825 
H    -4.1410045   -4.1445370    4.3047642 
H    -5.0355614   -2.8875558    3.3785940 
H     1.0863464    2.9752593    1.0189100 
H    -3.0173776    1.3057213    3.7214475 
H    -3.0763600    3.2243830    2.2165056 
H    -2.7660904   -0.4689563   -0.2269963 
H     1.3193515    5.4356571    1.3308833 
H    -5.3567078    0.5369143    3.9175011 
H    -2.8345922    5.6723290    2.5241399 
H    -5.1235066   -1.2682227   -0.0112561 
H    -0.6386226    6.7911871    2.1035713 
H    -6.4358882   -0.7323432    2.0530874 
