109
Energy =
C    -1.4936248    1.7081052   -1.9869629 
C    -0.1461231    1.8791554   -2.3596387 
C     0.6838767    0.7709816   -2.7259010 
H     0.3084429    2.8725759   -2.2633872 
Pd   -0.0108728    0.5485144   -0.6043542 
P     1.2482515   -1.3211167   -0.0124148 
P    -1.1042997    1.1037917    1.4007248 
H    -1.9634267    0.7441809   -2.2354262 
H     0.1869674   -0.0844445   -3.2045923 
C    -4.3570956    4.7815151   -1.1010210 
C    -4.7281033    3.4288665   -1.0773033 
C    -3.7785997    2.4388812   -1.3517515 
C    -2.4367715    2.7792410   -1.6458012 
C    -2.0755165    4.1474637   -1.6514112 
C    -3.0277484    5.1348131   -1.3882519 
H    -5.0999237    5.5598487   -0.8981198 
H    -5.7614417    3.1441918   -0.8544666 
H    -4.0762359    1.3856362   -1.3427726 
H    -1.0473831    4.4463435   -1.8741309 
H    -2.7324313    6.1884432   -1.4048614 
C     4.7901830    1.3535672   -3.9187442 
C     4.2028759    2.2180988   -2.9800326 
C     2.8804111    2.0213860   -2.5696088 
C     2.1032304    0.9640429   -3.0991046 
C     2.7059409    0.1118181   -4.0521655 
C     4.0350980    0.2990157   -4.4526950 
H     5.8272306    1.5054547   -4.2344343 
H     4.7841887    3.0441696   -2.5576745 
H     2.4468071    2.6942968   -1.8213577 
H     2.1144429   -0.6904277   -4.5068343 
H     4.4770426   -0.3716906   -5.1968683 
O    -2.2023902   -0.9302307    4.8826657 
N    -0.8595835   -1.5689311    3.1507199 
N    -2.8858382   -2.6759100    3.5466155 
C     0.9942054   -2.0236140    1.7054903 
C     0.8240088   -2.8247135   -1.0903416 
C     3.0985522   -1.0969463   -0.1787133 
C     1.4191674   -1.0672354    2.8508081 
C     0.1238361   -0.5423750    3.4936831 
C    -0.4816311   -2.4043838    2.0187057 
C    -0.6651180   -2.8114756   -1.5171548 
C     1.7253136   -2.9699179   -2.3356866 
C     3.6205697    0.2541887    0.3620161 
C     3.9460611   -2.2660518    0.3695246 
C    -1.0366547   -4.0505135   -2.3508823 
C     1.3455069   -4.2068839   -3.1711227 
C     5.1003655    0.4387955   -0.0190775 
C     5.4285197   -2.0776506   -0.0061296 
C    -0.1329587   -4.1857303   -3.5848087 
C     5.9635030   -0.7257423    0.4942047 
C    -0.3099989    0.8783853    3.0765646 
C    -2.0075625   -1.6897657    3.9280570 
C    -1.2665789    2.9396163    1.4411669 
C    -2.7822706    0.3810030    1.5539908 
C    -4.0939855   -2.9580855    4.3058805 
C    -2.4562953    3.6246002    1.7437344 
C    -3.2321998   -0.4744746    0.5266922 
C    -0.0864263    3.6762121    1.1931976 
C    -3.6281632    0.6373382    2.6542666 
C    -2.4554312    5.0248846    1.8289598 
C    -4.5094425   -1.0483447    0.5821062 
C    -0.0915469    5.0739149    1.2804656 
C    -4.9090845    0.0719934    2.6999815 
C    -1.2769726    5.7506812    1.6080704 
C    -5.3550080   -0.7634259    1.6645750 
H     1.6164235   -2.9341893    1.7256760 
H     0.9929805   -3.7035775   -0.4353289 
H     3.2180232   -1.0524889   -1.2797949 
H     1.9938666   -1.6374995    3.5991517 
H     2.0625193   -0.2433127    2.5093846 
H     0.2206997   -0.5114886    4.5922692 
H    -1.1514753   -2.2176368    1.1551612 
H    -0.5598791   -3.4793093    2.2752317 
H    -1.3256784   -2.7439082   -0.6364461 
H    -0.8508764   -1.8960171   -2.1135185 
H     1.6241434   -2.0626904   -2.9563706 
H     2.7874295   -3.0386592   -2.0495265 
H     3.0040809    1.0806825   -0.0338984 
H     3.5322703    0.2839557    1.4636041 
H     3.8551219   -2.2937622    1.4727107 
H     3.5772086   -3.2384913   -0.0053438 
H    -0.9369069   -4.9555400   -1.7197422 
H    -2.0990299   -3.9882470   -2.6484103 
H     1.5477172   -5.1196643   -2.5770302 
H     1.9990110   -4.2596867   -4.0603812 
H     5.4695898    1.4009270    0.3796818 
H     5.1790993    0.4996015   -1.1205118 
H     5.5290819   -2.1300677   -1.1081356 
H     6.0256598   -2.9095556    0.4081227 
H    -0.3120878   -3.3286881   -4.2646003 
H    -0.3881151   -5.0978285   -4.1525111 
H     7.0132808   -0.5909021    0.1785762 
H     5.9643411   -0.7226910    1.6023241 
H     0.5466613    1.5744088    3.1123879 
H    -1.0577934    1.2433565    3.8021944 
H    -2.6803107   -3.2531627    2.7365305 
H    -4.0382462   -3.9401826    4.8110322 
H    -4.9810850   -2.9412639    3.6487756 
H    -4.1928805   -2.1702901    5.0672704 
H    -3.3890349    3.0754987    1.8969784 
H    -2.5696878   -0.6833130   -0.3214887 
H     0.8413616    3.1484045    0.9349030 
H    -3.2882803    1.2523205    3.4917089 
H    -3.3880266    5.5488352    2.0616432 
H    -4.8459162   -1.7102916   -0.2229890 
H     0.8303794    5.6351160    1.0952419 
H    -5.5551604    0.2743969    3.5598938 
H    -1.2829670    6.8431293    1.6802745 
H    -6.3573729   -1.2021576    1.7084372 
