109
Energy =
C    -1.6621765    1.8336707   -1.7365188 
C    -0.3667417    1.8742715   -2.2947141 
C     0.2737280    0.6939333   -2.7754135 
H     0.2006995    2.8115502   -2.2547540 
Pd   -0.1408427    0.5084631   -0.5748433 
P     1.2663879   -1.2946710   -0.0871517 
P    -1.0674835    0.9810492    1.5304856 
H    -2.2740053    0.9489240   -1.9657618 
H    -0.3819007   -0.1160505   -3.1253421 
C    -4.0085799    5.1874173   -0.4341543 
C    -4.5608174    3.8989773   -0.4747014 
C    -3.7762120    2.8135924   -0.8802773 
C    -2.4219254    2.9924396   -1.2484334 
C    -1.8741111    4.2954168   -1.1818709 
C    -2.6618106    5.3789802   -0.7865794 
H    -4.6225163    6.0406722   -0.1279466 
H    -5.6083543    3.7390084   -0.1995516 
H    -4.2159935    1.8120281   -0.9199645 
H    -0.8268210    4.4688941   -1.4456791 
H    -2.2226449    6.3806319   -0.7481528 
C     4.1806806    0.6424084   -4.5981706 
C     3.8247519    1.6984853   -3.7426071 
C     2.5656524    1.7223876   -3.1331600 
C     1.6216867    0.6974749   -3.3789953 
C     1.9883920   -0.3478027   -4.2578206 
C     3.2552456   -0.3806330   -4.8541375 
H     5.1694321    0.6229057   -5.0672314 
H     4.5381361    2.5049631   -3.5439183 
H     2.3204008    2.5415638   -2.4490427 
H     1.2618743   -1.1362781   -4.4836679 
H     3.5166055   -1.2015598   -5.5298960 
O    -2.3564391   -1.4958318    4.6640994 
N    -1.0252006   -1.8513895    2.8413585 
N    -3.0801343   -2.9578825    3.0387654 
C     0.9023723   -2.2563826    1.4806547 
C     1.1916289   -2.6062621   -1.4230129 
C     3.0808869   -0.8285438    0.1221682 
C     1.3056055   -1.5672403    2.8083064 
C     0.0138604   -0.9840837    3.4028680 
C    -0.6054080   -2.5913812    1.6543845 
C     1.9467883   -3.9208024   -1.1233657 
C    -0.2511129   -2.9311993   -1.8754351 
C     3.9547483   -1.0216174   -1.1371510 
C     3.1743945    0.6393696    0.6085046 
C     1.9877268   -4.8059041   -2.3846099 
C    -0.2337493   -3.8186857   -3.1341897 
C     5.4119253   -0.6023774   -0.8648943 
C     4.6292732    1.0522011    0.8868476 
C     0.5710133   -5.1087495   -2.9006625 
C     5.5097433    0.8436654   -0.3547366 
C    -0.2498419    0.5154250    3.1441778 
C    -2.1816968   -2.0742671    3.5879115 
C    -1.0456117    2.8107100    1.7494700 
C    -2.8008575    0.4005687    1.6822880 
C    -4.3231065   -3.3008181    3.7123003 
C    -2.1454228    3.5739777    2.1787643 
C    -3.3555559   -0.3351307    0.6135865 
C     0.1904136    3.4513179    1.5071158 
C    -3.5891813    0.6451416    2.8265589 
C    -2.0000675    4.9527687    2.3922602 
C    -4.6833238   -0.7791865    0.6639264 
C     0.3298008    4.8277213    1.7245130 
C    -4.9192095    0.2067585    2.8707816 
C    -0.7655524    5.5801911    2.1764703 
C    -5.4729460   -0.4919356    1.7877442 
H     1.4828268   -3.1862134    1.3642243 
H     1.6984026   -2.0975572   -2.2664296 
H     3.4691690   -1.4951408    0.9185279 
H     1.6895561   -2.3399597    3.4953590 
H     2.1010941   -0.8142858    2.7008351 
H     0.0044455   -1.1080614    4.4983718 
H    -1.1958488   -2.2835923    0.7656394 
H    -0.7527222   -3.6804669    1.7957368 
H     2.9704799   -3.7247677   -0.7586877 
H     1.4204515   -4.4708934   -0.3192262 
H    -0.7792900   -3.4699785   -1.0655808 
H    -0.8198605   -2.0007823   -2.0581128 
H     3.9359982   -2.0707202   -1.4736291 
H     3.5478203   -0.4127752   -1.9610253 
H     2.7435807    1.2876192   -0.1806360 
H     2.5520611    0.7948430    1.5088240 
H     2.5681359   -4.2841522   -3.1707577 
H     2.5260996   -5.7445653   -2.1632582 
H     0.2174610   -3.2491809   -3.9705370 
H    -1.2684328   -4.0585335   -3.4382169 
H     5.9997334   -0.7238503   -1.7924542 
H     5.8547915   -1.2879521   -0.1154606 
H     5.0229765    0.4487916    1.7285099 
H     4.6591496    2.1073073    1.2139812 
H     0.0413978   -5.7348189   -2.1554476 
H     0.6202059   -5.7020614   -3.8308060 
H     6.5598369    1.1007184   -0.1289423 
H     5.1760223    1.5321336   -1.1545078 
H     0.6813528    1.1052226    3.2124036 
H    -0.9294621    0.9000882    3.9247458 
H    -2.9395045   -3.2934984    2.0902968 
H    -4.3786900   -4.3844151    3.9215715 
H    -5.1983415   -3.0056072    3.1064924 
H    -4.3429240   -2.7470493    4.6624824 
H    -3.1215476    3.1057766    2.3287059 
H    -2.7333394   -0.5564100   -0.2621459 
H     1.0457975    2.8658468    1.1471146 
H    -3.1693523    1.1569603    3.6967644 
H    -2.8644128    5.5387510    2.7206905 
H    -5.1024243   -1.3444759   -0.1753160 
H     1.2942412    5.3131905    1.5417364 
H    -5.5200231    0.4019711    3.7644248 
H    -0.6586949    6.6561171    2.3488057 
H    -6.5147171   -0.8268317    1.8271376 
