109
Energy =
C    -1.5479651    1.8265684   -1.8403058 
C    -0.2234672    1.9519469   -2.3009440 
C     0.5336675    0.8174284   -2.7408733 
H     0.2765415    2.9247689   -2.2212653 
Pd   -0.0136874    0.5776302   -0.5857782 
P     1.1955654   -1.3666218   -0.1478074 
P    -0.9471415    1.1325466    1.5053622 
H    -2.0705587    0.8855999   -2.0705741 
H    -0.0304172   -0.0061500   -3.2006497 
C    -4.2192711    4.9837602   -0.6919326 
C    -4.6429605    3.6466110   -0.6773832 
C    -3.7545915    2.6283361   -1.0387984 
C    -2.4221643    2.9241805   -1.4128855 
C    -2.0065161    4.2769354   -1.4089875 
C    -2.8984689    5.2929298   -1.0587267 
H    -4.9146057    5.7845272   -0.4198630 
H    -5.6702567    3.3965779   -0.3934816 
H    -4.0934832    1.5875517   -1.0357238 
H    -0.9835717    4.5410610   -1.6912821 
H    -2.5623480    6.3343287   -1.0686748 
C     4.5679683    1.2702683   -4.2048524 
C     3.7384159    0.2553045   -4.7037580 
C     2.4340550    0.1080629   -4.2144911 
C     1.9313500    0.9622468   -3.2069437 
C     2.7841428    1.9769393   -2.7111583 
C     4.0812347    2.1342096   -3.2097142 
H     5.5855808    1.3909426   -4.5896632 
H     4.1019840   -0.4152569   -5.4893039 
H     1.7833711   -0.6635073   -4.6402571 
H     2.4298573    2.6473606   -1.9200706 
H     4.7222996    2.9277359   -2.8121704 
O    -1.8190511   -0.8936508    5.0483801 
N    -0.6157949   -1.5995819    3.2403215 
N    -2.6731575   -2.5957352    3.7560961 
C     1.0504046   -2.0538068    1.5859353 
C     0.5902259   -2.8262908   -1.1976480 
C     3.0332133   -1.2614136   -0.4807282 
C     1.6114869   -1.0952696    2.6724308 
C     0.4045222   -0.5797087    3.4755778 
C    -0.4144178   -2.3571702    2.0130443 
C    -0.9357372   -2.7502103   -1.4516188 
C     1.3355419   -2.9736020   -2.5420721 
C     3.7056087    0.0232637    0.0545987 
C     3.8387910   -2.5096406   -0.0570050 
C    -1.4462811   -3.9568603   -2.2591273 
C     0.8194955   -4.1800931   -3.3482941 
C     5.1495908    0.1193873   -0.4698125 
C     5.2882180   -2.4131743   -0.5713110 
C    -0.6945418   -4.0999776   -3.5900213 
C     5.9698804   -1.1233437   -0.0854505 
C    -0.0559717    0.8502412    3.1241144 
C    -1.7194289   -1.6612623    4.0856021 
C    -1.0461927    2.9713144    1.5919866 
C    -2.6354919    0.4641762    1.7639962 
C    -3.8200612   -2.8422812    4.6166954 
C     0.1368928    3.6762275    1.2761409 
C    -3.1945330   -0.3416073    0.7502767 
C    -2.1876524    3.6851221    1.9963739 
C    -3.3837358    0.7126375    2.9345628 
C     0.1851765    5.0705180    1.3982434 
C    -4.4813409   -0.8782711    0.8910633 
C    -2.1335769    5.0818590    2.1157245 
C    -4.6746891    0.1850766    3.0662688 
C    -0.9499261    5.7753717    1.8286468 
C    -5.2275172   -0.6047276    2.0468121 
H     1.6296162   -2.9922123    1.5762796 
H     0.7998134   -3.7254263   -0.5830632 
H     3.0526888   -1.1799968   -1.5859258 
H     2.2914307   -1.6544214    3.3355287 
H     2.1872400   -0.2591603    2.2482584 
H     0.6296934   -0.5611651    4.5553876 
H    -1.1450655   -2.0478760    1.2384457 
H    -0.5524660   -3.4421363    2.1866751 
H    -1.4905115   -2.6794020   -0.5016942 
H    -1.1517165   -1.8153174   -2.0069683 
H     1.1910324   -2.0509925   -3.1308802 
H     2.4211855   -3.0804243   -2.3853954 
H     3.1165829    0.9092510   -0.2424361 
H     3.7329170    0.0052005    1.1593086 
H     3.8520500   -2.5734842    1.0483537 
H     3.3644894   -3.4379767   -0.4244835 
H    -1.3107537   -4.8777691   -1.6583621 
H    -2.5324314   -3.8498899   -2.4322347 
H     1.0552372   -5.1107289   -2.7956265 
H     1.3653273   -4.2373018   -4.3071120 
H     5.6270615    1.0357631   -0.0783142 
H     5.1234438    0.2199066   -1.5706702 
H     5.2772417   -2.4306898   -1.6788971 
H     5.8585201   -3.3010453   -0.2445111 
H    -0.9179339   -3.2244933   -4.2320227 
H    -1.0458089   -4.9917090   -4.1385355 
H     6.9902006   -1.0516265   -0.5021678 
H     6.0812567   -1.1639214    1.0163110 
H     0.8061993    1.5404666    3.1248967 
H    -0.7530033    1.1959816    3.9070529 
H    -2.5016654   -3.2416646    2.9907121 
H    -4.7443969   -2.9011186    4.0167266 
H    -3.8931318   -1.9966725    5.3162585 
H    -3.7073753   -3.7760787    5.1992876 
H     1.0255869    3.1261489    0.9387977 
H    -2.6086090   -0.5436587   -0.1538699 
H    -3.1243584    3.1614494    2.2046944 
H    -2.9594355    1.2907455    3.7595763 
H     1.1097020    5.6069761    1.1602238 
H    -4.9019096   -1.5036516    0.0963788 
H    -3.0288461    5.6288329    2.4283311 
H    -5.2441309    0.3806445    3.9802197 
H    -0.9136589    6.8649981    1.9290709 
H    -6.2358162   -1.0166932    2.1595492 
