97
Energy =
C     0.2694298    0.6223470    2.8727102 
C     1.2162572    1.4508195    2.2266617 
C     0.7995209    2.4557539    1.3006341 
H     2.2820643    1.2012768    2.2991338 
Pd    0.0979162    0.4663202    0.6075690 
P    -0.3406217    0.9562343   -1.6221177 
P    -0.5758546   -1.7293291    0.1597243 
H    -0.7677113    0.9895282    2.9247747 
H    -0.1699377    2.9379038    1.4910855 
C     1.0845069   -2.6912982    5.4926721 
C    -0.2322346   -2.3743638    5.1219768 
C    -0.4806555   -1.2768529    4.2899541 
C     0.5809420   -0.4839785    3.7942523 
C     1.8988287   -0.7993835    4.1979208 
C     2.1455322   -1.8914162    5.0372370 
H     1.2820644   -3.5470028    6.1460384 
H    -1.0671458   -2.9797660    5.4898236 
H    -1.5108554   -1.0269485    4.0106179 
H     2.7407971   -0.1900826    3.8554616 
H     3.1723849   -2.1202163    5.3401965 
C     3.4429694    4.6820371   -1.2784672 
C     3.8451456    3.4343419   -0.7726034 
C     2.9998036    2.7102580    0.0753223 
C     1.7329908    3.2198386    0.4459620 
C     1.3492324    4.4824147   -0.0591223 
C     2.1924537    5.2039208   -0.9147870 
H     4.1030396    5.2449273   -1.9460760 
H     4.8202015    3.0195109   -1.0489096 
H     3.3148655    1.7236256    0.4310471 
H     0.3817152    4.9070888    0.2310667 
H     1.8746013    6.1814455   -1.2921162 
C    -1.5389071    2.3429781   -2.1101513 
C     1.0334838    1.5055746   -2.7824426 
C    -2.2443760   -2.2698469    0.8115963 
C     0.3099646   -3.3240145    0.6879562 
C    -0.7255430    3.2246512   -3.0910188 
C     0.2824048    2.3441326   -3.8386625 
C    -2.1723899   -3.8084603    0.7731362 
C    -0.8006434   -4.1941979    1.3433763 
C    -1.1137883   -0.5775832   -2.3719309 
C    -0.6040943   -1.8657525   -1.7098063 
C    -2.1874911    3.1186112   -0.9382436 
C     1.9565073    0.3871693   -3.3181468 
C    -3.5072464   -1.5731384    0.2323019 
C     1.5554695   -3.1501222    1.5893811 
C    -3.0705174    4.2671917   -1.4632085 
C    -2.9941908    2.2047743   -0.0048422 
C     2.9289537    0.9336438   -4.3822155 
C     2.7412237   -0.2849802   -2.1805408 
C    -4.5725208   -1.4128665    1.3335351 
C    -4.1046439   -2.2851280   -0.9944839 
C     2.6151141   -2.2240082    0.9779336 
C     2.1716491   -4.5194967    1.9337787 
H    -2.3421244    1.8256464   -2.6724645 
H     1.6404342    2.1942789   -2.1616284 
H    -2.1534493   -1.9660268    1.8736284 
H     0.6244960   -3.7875260   -0.2684797 
H    -1.3977374    3.7541631   -3.7868469 
H    -0.1750122    3.9906366   -2.5136706 
H     0.9871737    2.9584546   -4.4242778 
H    -0.2376682    1.6760131   -4.5537096 
H    -2.2729804   -4.1737109   -0.2659190 
H    -2.9957271   -4.2617556    1.3539128 
H    -0.7932791   -4.0040906    2.4333802 
H    -0.5869884   -5.2660949    1.1970119 
H    -0.9428913   -0.5883824   -3.4635097 
H    -2.2016986   -0.4676593   -2.2176988 
H    -1.2020935   -2.7425676   -2.0156010 
H     0.4404269   -2.0696968   -2.0062423 
H    -1.3621950    3.5662865   -0.3528076 
H     1.3212696   -0.3774657   -3.8101134 
H    -3.2070616   -0.5549253   -0.0753025 
H     1.2065192   -2.6941103    2.5319723 
H    -3.5461230    4.8007620   -0.6222527 
H    -3.8756284    3.8781057   -2.1135559 
H    -2.4906151    5.0052666   -2.0418226 
H    -2.3529514    1.4116144    0.4299217 
H    -3.4286235    2.7790115    0.8315780 
H    -3.8255531    1.7167993   -0.5460825 
H     3.5281188    1.7659232   -3.9690205 
H     3.6263666    0.1412004   -4.7042086 
H     2.4023105    1.2996777   -5.2790058 
H     2.0784596   -0.6078015   -1.3590964 
H     3.4727985    0.4189331   -1.7474276 
H     3.2933179   -1.1683150   -2.5448780 
H    -4.1872124   -0.8098753    2.1752307 
H    -5.4732679   -0.9099223    0.9406272 
H    -4.8836218   -2.3960878    1.7309611 
H    -3.3656749   -2.4481233   -1.7972937 
H    -4.9283285   -1.6838306   -1.4164210 
H    -4.5217170   -3.2701336   -0.7210631 
H     2.9877168   -2.6163617    0.0138892 
H     3.4780077   -2.1216693    1.6580023 
H     2.2056293   -1.2107350    0.8006770 
H     2.5018015   -5.0481228    1.0200548 
H     3.0529365   -4.3849316    2.5843455 
H     1.4617756   -5.1709366    2.4702619 
