97
Energy =
C    -0.0346516    0.6369569    2.9094016 
C     0.9674697    1.4385909    2.3123523 
C     0.6144256    2.4732646    1.3895180 
H     2.0222804    1.1543322    2.4176281 
Pd   -0.1132254    0.5137404    0.6424325 
P    -0.4624363    0.9495746   -1.6140903 
P    -0.6893998   -1.6994694    0.1924815 
H    -1.0562622    1.0490190    2.9237571 
H    -0.3412573    2.9889791    1.5628723 
C     0.4652667   -2.7600718    5.5046424 
C    -0.8144447   -2.3063052    5.1493794 
C    -0.9557807   -1.1849071    4.3231571 
C     0.1763062   -0.5013155    3.8205385 
C     1.4581537   -0.9536540    4.2118578 
C     1.5988376   -2.0708289    5.0423048 
H     0.5797842   -3.6340144    6.1538174 
H    -1.7044858   -2.8217836    5.5249571 
H    -1.9569400   -0.8235505    4.0614220 
H     2.3552921   -0.4280078    3.8695622 
H     2.5996243   -2.4047683    5.3348207 
C     3.4494812    4.6824314   -0.9948949 
C     3.7254321    3.3539874   -0.6313126 
C     2.8150647    2.6319473    0.1489250 
C     1.6078458    3.2242791    0.5908123 
C     1.3503477    4.5647057    0.2261407 
C     2.2595987    5.2851540   -0.5597439 
H     4.1599684    5.2445043   -1.6093505 
H     4.6518145    2.8752616   -0.9656867 
H     3.0299250    1.5865370    0.3973098 
H     0.4320807    5.0507877    0.5741192 
H     2.0406494    6.3240647   -0.8273792 
C    -1.2874213    2.5136419   -2.2863962 
C     1.0752798    1.1148009   -2.6720481 
C    -2.0860027   -2.5924039    1.0788098 
C     0.5882768   -3.0720948    0.4873211 
C    -0.1823292    3.1876894   -3.1389253 
C     0.6630339    2.0884701   -3.7949340 
C    -1.6664444   -4.0734688    0.9807595 
C    -0.1737195   -4.1297943    1.3277761 
C    -1.5359846   -0.4582593   -2.2191852 
C    -1.0735060   -1.8073421   -1.6451608 
C    -1.9470576    3.4313875   -1.2319492 
C     1.8319826   -0.1814091   -3.0731574 
C    -3.5206107   -2.2250417    0.6388035 
C     1.9160607   -2.5959636    1.1269998 
C    -2.5424479    4.6900050   -1.8904374 
C    -3.0085188    2.6891564   -0.4090857 
C     1.3121516   -0.8382684   -4.3638127 
C     3.3418631    0.1059088   -3.1807900 
C    -3.8257215   -0.7508661    0.9485081 
C    -4.5628994   -3.1428138    1.3069235 
C     2.6896185   -1.6176313    0.2320983 
C     2.8092964   -3.7911604    1.5095327 
H    -2.0772559    2.1318517   -2.9655386 
H     1.7305484    1.6792887   -1.9790439 
H    -1.9546463   -2.2801534    2.1343667 
H     0.8008789   -3.4899764   -0.5170085 
H    -0.6314793    3.8569505   -3.8917788 
H     0.4567020    3.8073941   -2.4818879 
H     1.5520999    2.5038108   -4.3014926 
H     0.0649481    1.5631874   -4.5627065 
H    -1.8493521   -4.4582003   -0.0420953 
H    -2.2585365   -4.6978263    1.6716500 
H    -0.0468903   -3.8916423    2.4011887 
H     0.2488681   -5.1348570    1.1623439 
H    -1.5669146   -0.4740297   -3.3228409 
H    -2.5554680   -0.2125306   -1.8682533 
H    -1.8251691   -2.5970484   -1.8225508 
H    -0.1420615   -2.1361668   -2.1373569 
H    -1.1442208    3.7555206   -0.5442018 
H     1.7033731   -0.9043591   -2.2475028 
H    -3.5992819   -2.3771127   -0.4567628 
H     1.6461636   -2.0657101    2.0588842 
H    -1.7707049    5.2999188   -2.3890647 
H    -3.0315352    5.3249304   -1.1314981 
H    -3.3050046    4.4183420   -2.6436572 
H    -2.5594460    1.8362895    0.1334446 
H    -3.4676605    3.3557142    0.3412463 
H    -3.8177534    2.2978840   -1.0532971 
H     1.5188166   -0.2075329   -5.2459022 
H     1.8169729   -1.8062867   -4.5254561 
H     0.2257178   -1.0292166   -4.3377380 
H     3.5471713    0.8683813   -3.9536844 
H     3.8970599   -0.8080449   -3.4548165 
H     3.7445135    0.4761114   -2.2219213 
H    -3.0718085   -0.0790258    0.5029806 
H    -4.8163340   -0.4555930    0.5629661 
H    -3.8192446   -0.5720000    2.0394520 
H    -4.4465766   -4.1953048    0.9996471 
H    -5.5833859   -2.8249859    1.0321770 
H    -4.4793028   -3.0942669    2.4084302 
H     3.0062602   -2.0982367   -0.7116035 
H     3.5983768   -1.2553658    0.7439983 
H     2.0713834   -0.7324274   -0.0187895 
H     3.0526631   -4.4049943    0.6224728 
H     3.7601024   -3.4326855    1.9408604 
H     2.3317490   -4.4439788    2.2589391 
