97
Energy =
C     0.1053494    0.5517074    2.8414034 
C     1.1631282    1.2783747    2.2380531 
C     0.8829403    2.3201266    1.3059747 
H     2.1946549    0.9236665    2.3524234 
Pd    0.0198384    0.3821850    0.5895923 
P    -0.2496845    0.7734809   -1.6945672 
P    -0.8477298   -1.7560487    0.2114111 
H    -0.8779661    1.0452813    2.8791936 
H    -0.0599764    2.8668524    1.4424987 
C     0.4099561   -2.8330456    5.4859580 
C     1.5781972   -2.2662163    4.9497673 
C     1.5013925   -1.1598054    4.0968986 
C     0.2508184   -0.5918469    3.7603945 
C    -0.9137894   -1.1555687    4.3321784 
C    -0.8374572   -2.2681052    5.1789118 
H     0.4742484   -3.6993812    6.1520009 
H     2.5564342   -2.6897339    5.1995111 
H     2.4253122   -0.7376084    3.6890549 
H    -1.8890639   -0.7082393    4.1086271 
H    -1.7525620   -2.6888663    5.6085280 
C     3.7590453    4.4089971   -1.1278309 
C     4.0928207    3.1633226   -0.5695680 
C     3.1733523    2.4768711    0.2306860 
C     1.8993673    3.0268019    0.5030851 
C     1.5838464    4.2885302   -0.0524898 
C     2.5006648    4.9700442   -0.8634353 
H     4.4781580    4.9394374   -1.7600055 
H     5.0740329    2.7201878   -0.7691817 
H     3.4398892    1.4913011    0.6270475 
H     0.6101745    4.7417454    0.1647897 
H     2.2348311    5.9458816   -1.2827681 
C    -1.7532589    1.7903367   -2.2000053 
C     0.9425941    1.7423262   -2.8033186 
C    -2.2408357   -2.5611811    1.1776212 
C     0.3184009   -3.2538133    0.3444747 
C    -1.4204213    2.0744705   -3.6791068 
C     0.0245988    2.5971543   -3.7364781 
C    -2.0297936   -4.0615410    0.8872551 
C    -0.5338029   -4.3478901    1.0529767 
C    -0.5492860   -0.9065731   -2.4724552 
C    -1.4451184   -1.7662811   -1.5661584 
C    -1.8924399    3.0650627   -1.3094044 
C     2.0132430    0.9038028   -3.5520248 
C    -3.6720539   -2.0274411    0.9445065 
C     1.6621607   -2.9993016    1.0746520 
C    -2.6859104    4.1890459   -2.0026722 
C    -2.5405589    2.7317087    0.0422248 
C     2.9548511    1.8251960   -4.3550464 
C     2.8503954    0.0437663   -2.5944924 
C    -3.7441524   -0.4996315    1.0735456 
C    -4.6642810   -2.7015029    1.9126902 
C     2.5472697   -1.9629681    0.3742291 
C     2.4460883   -4.3151317    1.2546518 
H    -2.6654287    1.1717894   -2.1026687 
H     1.4765908    2.4047203   -2.0973387 
H    -1.9591126   -2.3673230    2.2325450 
H     0.5273586   -3.5515049   -0.7021336 
H    -1.5063083    1.1409259   -4.2650257 
H    -2.1347891    2.7835431   -4.1298617 
H     0.0572770    3.6515601   -3.4120360 
H     0.3992894    2.5746888   -4.7724267 
H    -2.3736004   -4.2967471   -0.1386432 
H    -2.6254639   -4.6861464    1.5748961 
H    -0.2942952   -4.3232808    2.1323187 
H    -0.2643506   -5.3509481    0.6827875 
H     0.4367646   -1.3836541   -2.6063627 
H    -0.9949185   -0.7928212   -3.4758472 
H    -2.4737569   -1.3633184   -1.5514139 
H    -1.5073597   -2.8031138   -1.9409990 
H    -0.8716606    3.4491311   -1.1121248 
H     1.4882947    0.2378953   -4.2670989 
H    -3.9717120   -2.3025466   -0.0867757 
H     1.4103037   -2.6142830    2.0804111 
H    -2.1715653    4.5821545   -2.8952309 
H    -2.8270831    5.0332934   -1.3059180 
H    -3.6876553    3.8363872   -2.3089594 
H    -2.0122304    1.8998973    0.5463177 
H    -2.5207205    3.6058202    0.7161605 
H    -3.5948367    2.4304474   -0.0911365 
H     3.4752778    2.5243380   -3.6752505 
H     3.7184110    1.2247865   -4.8788779 
H     2.4218873    2.4208443   -5.1142711 
H     3.4195350    0.6847975   -1.9003269 
H     3.5692517   -0.5801826   -3.1527557 
H     2.2276620   -0.6262338   -1.9824505 
H    -3.1021678   -0.0011148    0.3284095 
H    -4.7755393   -0.1356128    0.9277394 
H    -3.4061522   -0.1684537    2.0725690 
H    -4.6989309   -3.7951449    1.7775614 
H    -5.6841312   -2.3125002    1.7505667 
H    -4.3857049   -2.4943402    2.9625427 
H     2.8643942   -2.3178544   -0.6227976 
H     3.4589781   -1.7645171    0.9645522 
H     2.0142431   -0.9984214    0.2445852 
H     2.6730390   -4.7754656    0.2750273 
H     3.4057554   -4.1174003    1.7628154 
H     1.8972488   -5.0540339    1.8611184 
