97
Energy =
C    -0.2749224    0.9196426    2.7507641 
C     0.9231576    1.4944403    2.2626369 
C     0.8893723    2.5004795    1.2538866 
H     1.8817006    1.0480417    2.5527865 
Pd   -0.1059492    0.6098700    0.5206010 
P    -0.4166467    0.8528419   -1.8026102 
P    -0.8541662   -1.5888152    0.2340817 
H    -1.1935737    1.5163579    2.6387510 
H     0.0015819    3.1463364    1.2304215 
C    -0.7242501   -2.3282926    5.5359154 
C    -1.7744589   -1.4276752    5.3054095 
C    -1.6032329   -0.3662135    4.4071203 
C    -0.3797719   -0.1810543    3.7230218 
C     0.6758843   -1.0866742    3.9801073 
C     0.5029807   -2.1484298    4.8734831 
H    -0.8555783   -3.1617778    6.2332936 
H    -2.7298047   -1.5511484    5.8256116 
H    -2.4260456    0.3349049    4.2301128 
H     1.6329193   -0.9728467    3.4635819 
H     1.3297086   -2.8428874    5.0561073 
C     4.3528483    4.1707936   -0.6980670 
C     3.0693549    4.6796829   -0.9517700 
C     1.9548927    4.1316501   -0.3060709 
C     2.0915518    3.0508873    0.5969166 
C     3.3913521    2.5465770    0.8363287 
C     4.5070581    3.1062010    0.2044529 
H     5.2270153    4.6047428   -1.1937840 
H     2.9380646    5.5172443   -1.6449101 
H     0.9610161    4.5496863   -0.4962063 
H     3.5407057    1.7070674    1.5223838 
H     5.5042574    2.7052765    0.4131149 
C    -1.9018216    1.8286417   -2.5100129 
C     0.8104731    1.5370687   -3.0484813 
C    -1.8254446   -2.6165320    1.4794773 
C     0.5008642   -2.8967122   -0.0177256 
C    -1.3397107    2.5473315   -3.7674601 
C    -0.0781453    1.8345356   -4.2754952 
C    -1.1654900   -4.0150903    1.4296308 
C     0.3393864   -3.8241781    1.2043845 
C    -0.8295871   -0.8713989   -2.4301483 
C    -1.7224438   -1.6114710   -1.4177896 
C    -2.7098679    2.7483503   -1.5616617 
C     2.0783573    0.6826472   -3.2862999 
C    -3.3643207   -2.5903209    1.3247490 
C     1.9307016   -2.4101338   -0.3584619 
C    -3.3828781    1.9448390   -0.4416942 
C    -1.8938631    3.9118962   -0.9822281 
C     2.8642506    1.1680378   -4.5198519 
C     2.9810217    0.7032899   -2.0432775 
C    -3.9195302   -1.1704553    1.5176694 
C    -4.0328517   -3.5621919    2.3165975 
C     2.7972897   -3.5831183   -0.8556137 
C     2.6215678   -1.6606053    0.7882208 
H    -2.5871829    1.0243209   -2.8362564 
H     1.1253746    2.5027653   -2.6002722 
H    -1.5681454   -2.1527655    2.4511914 
H     0.1291106   -3.4541001   -0.9012409 
H    -2.1195498    2.6115036   -4.5457147 
H    -1.0691443    3.5835235   -3.5001064 
H     0.4585932    2.4656153   -5.0041501 
H    -0.3324457    0.8916289   -4.7965673 
H    -1.5998628   -4.6050165    0.5988692 
H    -1.3665614   -4.5671030    2.3629993 
H     0.7890598   -3.3602755    2.1009090 
H     0.8528160   -4.7864732    1.0363438 
H     0.1210303   -1.4152969   -2.5731118 
H    -1.3176613   -0.8037024   -3.4180256 
H    -2.6987452   -1.1057473   -1.3069025 
H    -1.9160690   -2.6503102   -1.7398585 
H    -3.5114825    3.1786594   -2.1957044 
H     1.7624231   -0.3609821   -3.4872286 
H    -3.6108662   -2.9321950    0.2992844 
H     1.8313005   -1.6988379   -1.1995233 
H    -4.0278302    2.5866637    0.1824907 
H    -2.6137582    1.4940393    0.2194610 
H    -4.0066995    1.1281361   -0.8457536 
H    -1.4849537    4.5750787   -1.7626836 
H    -2.5175208    4.5307989   -0.3151999 
H    -1.0500306    3.5193966   -0.3911560 
H     3.1364136    2.2343674   -4.4147835 
H     3.7996878    0.5914187   -4.6228142 
H     2.2925625    1.0467513   -5.4550207 
H     3.4234803    1.7048316   -1.9098651 
H     3.8048401   -0.0251188   -2.1361652 
H     2.4176295    0.4739970   -1.1215603 
H    -3.4123747   -0.4396934    0.8668822 
H    -4.9998908   -1.1320033    1.2970857 
H    -3.7730899   -0.8393422    2.5603600 
H    -3.7537340   -4.6114823    2.1246601 
H    -5.1315395   -3.4893492    2.2404750 
H    -3.7465971   -3.3133746    3.3552745 
H     2.9792535   -4.3188857   -0.0521707 
H     3.7800494   -3.2163210   -1.1990220 
H     2.3176933   -4.1112673   -1.6989331 
H     2.8006776   -2.3183722    1.6565595 
H     3.5961530   -1.2627908    0.4592618 
H     2.0026073   -0.8040287    1.1156833 
