97
Energy =
C     0.1739752    0.6413685    2.7946335 
C     1.1184295    1.4634348    2.1374817 
C     0.7110945    2.4328111    1.1769391 
H     2.1877163    1.2567467    2.2652954 
Pd    0.0871414    0.4092405    0.4938775 
P    -0.0667936    0.8639709   -1.7929611 
P    -0.7761124   -1.7267953    0.0024710 
H    -0.8656029    0.9998010    2.8251634 
H    -0.3029767    2.8446654    1.2881563 
C     1.0384059   -2.3432729    5.7720263 
C    -0.2824031   -1.9469465    5.5130244 
C    -0.5454398   -0.9770573    4.5386669 
C     0.5030246   -0.3878372    3.7938790 
C     1.8293130   -0.7977731    4.0687803 
C     2.0916819   -1.7602269    5.0483022 
H     1.2478870   -3.0972565    6.5374748 
H    -1.1094256   -2.3875302    6.0792947 
H    -1.5762035   -0.6600903    4.3511615 
H     2.6675755   -0.3630189    3.5159823 
H     3.1255527   -2.0592497    5.2495610 
C     3.3348328    4.8842175   -1.2062784 
C     1.9882698    5.2359551   -1.0283930 
C     1.1519654    4.4395434   -0.2351723 
C     1.6393279    3.2700783    0.3915197 
C     3.0021278    2.9362214    0.2127702 
C     3.8390081    3.7350405   -0.5741704 
H     3.9902450    5.5045154   -1.8258121 
H     1.5885798    6.1376947   -1.5037676 
H     0.1043020    4.7273071   -0.0931991 
H     3.4101512    2.0335929    0.6787149 
H     4.8902510    3.4566240   -0.7013291 
C    -1.3878494    2.0682758   -2.4367701 
C     1.3454037    1.6160263   -2.7758490 
C    -2.1236628   -2.6866745    0.8873005 
C     0.3303541   -3.2351853   -0.2028017 
C    -0.5895766    3.0817640   -3.2953494 
C     0.6260944    2.3783433   -3.9096929 
C    -2.1096798   -4.0483967    0.1468442 
C    -0.6802966   -4.4183847   -0.3530135 
C    -0.4802471   -0.7574042   -2.6216636 
C    -1.4492171   -1.5623746   -1.7459701 
C    -2.3003460    2.7053970   -1.3626735 
C     2.4621838    0.6415879   -3.2142568 
C    -3.5086633   -1.9987353    0.9924193 
C     1.3981542   -3.4785630    0.8998537 
C    -3.2100444    3.7885313   -1.9733928 
C    -3.1376622    1.6457847   -0.6356054 
C     3.5667846    1.3933815   -3.9828066 
C     3.0613301   -0.1107285   -2.0156121 
C    -3.4682751   -0.8120225    1.9695077 
C    -4.6037589   -2.9938192    1.4263434 
C     0.8070547   -3.6950063    2.3006619 
C     2.4886035   -2.3975640    0.9087636 
H    -2.0207616    1.4517040   -3.1059083 
H     1.7841133    2.3579868   -2.0811169 
H    -1.7277158   -2.8218179    1.9111410 
H     0.8737710   -3.0752666   -1.1523896 
H    -1.2368270    3.5266800   -4.0698289 
H    -0.2378999    3.9045732   -2.6463446 
H     1.3056561    3.1067877   -4.3837246 
H     0.3088797    1.6674943   -4.6978407 
H    -2.8050495   -3.9896312   -0.7096544 
H    -2.5046306   -4.8353104    0.8107575 
H    -0.2897016   -5.2847885    0.2070348 
H    -0.7262786   -4.7371241   -1.4074248 
H     0.4664835   -1.3099987   -2.7569995 
H    -0.8987995   -0.5736217   -3.6271076 
H    -2.4262093   -1.0521768   -1.6740012 
H    -1.6308885   -2.5608224   -2.1789598 
H    -1.6404351    3.1933708   -0.6182947 
H     2.0152852   -0.0985421   -3.9084721 
H    -3.7842411   -1.6191333   -0.0120854 
H     1.8838014   -4.4289738    0.5974211 
H    -3.8805713    4.2045411   -1.2018130 
H    -3.8422061    3.3641483   -2.7750715 
H    -2.6325974    4.6252649   -2.4004745 
H    -2.4852556    0.8856073   -0.1668208 
H    -3.7493871    2.0962535    0.1643815 
H    -3.8214628    1.1302442   -1.3355850 
H     3.9957126    2.1963469   -3.3556809 
H     4.3819751    0.7018160   -4.2571034 
H     3.1880057    1.8487034   -4.9128327 
H     3.5568738    0.5932617   -1.3250024 
H     3.8111312   -0.8499981   -2.3457504 
H     2.2882139   -0.6447864   -1.4350741 
H    -2.6321778   -0.1272853    1.7469825 
H    -4.4058452   -0.2323605    1.9267773 
H    -3.3420697   -1.1757393    3.0046639 
H    -4.7606841   -3.7950377    0.6854817 
H    -5.5647674   -2.4668669    1.5561665 
H    -4.3446021   -3.4643048    2.3926812 
H     0.3501944   -2.7699743    2.6916460 
H     1.5995301   -3.9856495    3.0094841 
H     0.0436319   -4.4922618    2.3125805 
H     2.0538976   -1.3979620    1.1060256 
H     3.2338652   -2.6029317    1.6959749 
H     3.0174585   -2.3524258   -0.0581681 
