97
Energy =
C    -0.0470972    0.7423342    2.7766908 
C     0.9848423    1.5223457    2.1965734 
C     0.6905331    2.5178545    1.2182001 
H     2.0299188    1.2338385    2.3631316 
Pd   -0.0390466    0.5413629    0.5155678 
P    -0.2216582    0.9563803   -1.7781161 
P    -0.8361897   -1.6070028    0.0763701 
H    -1.0626487    1.1668836    2.7702237 
H    -0.2807875    3.0270576    1.2993198 
C     0.4101440   -2.6133584    5.4379411 
C    -0.8622370   -2.1133436    5.1217782 
C    -0.9892294   -1.0061777    4.2743352 
C     0.1481778   -0.3809910    3.7114536 
C     1.4235325   -0.8763727    4.0681348 
C     1.5513232   -1.9805223    4.9171070 
H     0.5143569   -3.4784210    6.1005880 
H    -1.7583054   -2.5820138    5.5419504 
H    -1.9845552   -0.6140824    4.0399732 
H     2.3271559   -0.3970894    3.6811153 
H     2.5487233   -2.3483487    5.1794733 
C     3.5810951    4.5761783   -1.2302718 
C     3.9340719    3.3740810   -0.5939465 
C     3.0102899    2.7054699    0.2166333 
C     1.7115009    3.2278398    0.4198845 
C     1.3769923    4.4460804   -0.2135431 
C     2.2989575    5.1106471   -1.0332744 
H     4.3029648    5.0937941   -1.8698984 
H     4.9333266    2.9504849   -0.7389042 
H     3.2943672    1.7536537    0.6776233 
H     0.3830216    4.8790588   -0.0550810 
H     2.0171206    6.0533483   -1.5137641 
C    -1.4565758    2.2765889   -2.3795817 
C     1.2033012    1.5737408   -2.8414359 
C    -1.9344302   -2.6719321    1.1764176 
C     0.4453588   -2.9720588   -0.1105529 
C    -0.6284685    3.1710241   -3.3390132 
C     0.4951006    2.3476123   -3.9731616 
C    -1.5325943   -4.1531261    0.8683696 
C    -0.4650287   -4.2095015   -0.2440060 
C    -0.8016591   -0.6466413   -2.5629988 
C    -1.6732314   -1.4647056   -1.5940892 
C    -2.2000664    3.0790947   -1.2848718 
C     2.2369117    0.5232238   -3.3078070 
C    -3.4582922   -2.3979590    1.1309192 
C     1.4064269   -2.9859822    1.1221418 
C    -3.0985907    4.1622468   -1.9143712 
C    -3.0188524    2.1753585   -0.3584746 
C     3.3752777    1.1982486   -4.0986121 
C     2.8066498   -0.2802373   -2.1315959 
C    -3.7940071   -0.9214287    1.3834165 
C    -4.1908661   -3.2815980    2.1609935 
C     2.4964817   -1.9122092    0.9872162 
C     2.0585228   -4.3634665    1.3442596 
H    -2.2069014    1.7066894   -2.9630519 
H     1.7156605    2.3017373   -2.1812466 
H    -1.5816792   -2.4061904    2.1911834 
H     1.0358455   -2.8149267   -1.0319865 
H    -1.2806639    3.6261348   -4.1031546 
H    -0.1806811    3.9958898   -2.7538829 
H     1.2070404    2.9990984   -4.5078521 
H     0.0880776    1.6331658   -4.7153601 
H    -2.4202016   -4.7337186    0.5665502 
H    -1.1473742   -4.6200604    1.7907144 
H     0.1151426   -5.1464301   -0.2067824 
H    -0.9522218   -4.1964794   -1.2354382 
H     0.1037756   -1.2178296   -2.8335427 
H    -1.3417774   -0.4316539   -3.5018306 
H    -2.6392099   -0.9581324   -1.4153653 
H    -1.9001832   -2.4611969   -2.0107663 
H    -1.4286310    3.5893825   -0.6759507 
H     1.7205088   -0.1772451   -3.9953081 
H    -3.8225454   -2.6739359    0.1202008 
H     0.8150248   -2.7514653    2.0296358 
H    -2.5198277    4.9009745   -2.4930668 
H    -3.6458204    4.7094377   -1.1275626 
H    -3.8462553    3.7071655   -2.5900479 
H    -2.3599936    1.4446414    0.1519189 
H    -3.5349700    2.7604592    0.4220531 
H    -3.7854522    1.6128316   -0.9226574 
H     3.8791633    1.9594280   -3.4752725 
H     4.1284951    0.4498250   -4.3994708 
H     3.0102264    1.6908395   -5.0149351 
H     3.3449840    0.3808424   -1.4310508 
H     3.5098877   -1.0551751   -2.4819640 
H     2.0083678   -0.7798242   -1.5574733 
H    -3.2857859   -0.2553931    0.6695940 
H    -4.8794588   -0.7428939    1.2984096 
H    -3.4817470   -0.6160371    2.3977617 
H    -4.0346582   -4.3578280    1.9799265 
H    -5.2772244   -3.0903100    2.1279556 
H    -3.8369159   -3.0540669    3.1836852 
H     3.1545814   -2.1267699    0.1268039 
H     3.1238854   -1.8818101    1.8929871 
H     2.0562533   -0.9063656    0.8381429 
H     2.6127361   -4.6929884    0.4462701 
H     2.7766298   -4.3041211    2.1800787 
H     1.3218637   -5.1429571    1.6007169 
