97
Energy =
C    -0.1531147    0.6803283    2.8519314 
C     0.9116785    1.4565394    2.3224687 
C     0.6482957    2.4707034    1.3556720 
H     1.9483752    1.1621092    2.5276060 
Pd   -0.0567654    0.4899307    0.6041479 
P    -0.1603241    0.8760571   -1.6948103 
P    -0.9323328   -1.6323260    0.1674253 
H    -1.1552860    1.1356332    2.8290697 
H    -0.3403295    2.9509087    1.4008910 
C     0.0792640   -2.7288822    5.4710011 
C     1.2494769   -2.2406762    4.8641577 
C     1.2000116   -1.1217140    4.0268817 
C    -0.0260797   -0.4659706    3.7685711 
C    -1.1909461   -0.9549053    4.4063923 
C    -1.1408541   -2.0746049    5.2464222 
H     0.1235560   -3.6049012    6.1259813 
H     2.2088106   -2.7347988    5.0500234 
H     2.1250962   -0.7597801    3.5689780 
H    -2.1449099   -0.4415790    4.2423028 
H    -2.0555713   -2.4330566    5.7299057 
C     3.5715820    4.7225545   -0.8732287 
C     3.9594909    3.5536669   -0.1977994 
C     3.0245701    2.8157159    0.5368206 
C     1.6779243    3.2359064    0.6242634 
C     1.3076350    4.4260332   -0.0442212 
C     2.2400210    5.1576428   -0.7900809 
H     4.3046604    5.2944776   -1.4509470 
H     4.9987097    3.2122024   -0.2486186 
H     3.3443230    1.8932863    1.0320327 
H     0.2753614    4.7853452    0.0316514 
H     1.9289387    6.0766474   -1.2977361 
C    -1.3833331    2.1629506   -2.3837055 
C     1.2893932    1.4661610   -2.7375956 
C    -2.0948296   -2.5466818    1.3362239 
C     0.2415024   -3.1031097   -0.0550766 
C    -0.5517772    2.9673338   -3.4187854 
C     0.5907264    2.0995902   -3.9589373 
C    -1.6280070   -4.0194413    1.2781754 
C    -0.1016723   -4.0200669    1.1381259 
C    -0.7498073   -0.7343693   -2.4592150 
C    -1.7319394   -1.4551061   -1.5144899 
C    -2.1084916    3.0509414   -1.3444769 
C     2.4032969    0.4279265   -3.0157426 
C    -3.6090779   -2.3029813    1.1375056 
C     1.7367936   -2.7930159   -0.3010736 
C    -2.9771101    4.1163447   -2.0422811 
C    -2.9559263    2.2250242   -0.3711687 
C     3.3384586    0.8883144   -4.1510111 
C     3.2178318    0.1537673   -1.7406969 
C    -3.9732836   -0.8330513    1.3974181 
C    -4.4408931   -3.2265545    2.0491101 
C     2.4869262   -4.0588649   -0.7580068 
C     2.4299656   -2.1426450    0.9034581 
H    -2.1465774    1.5596414   -2.9139456 
H     1.7236043    2.2868208   -2.1291743 
H    -1.8081661   -2.1474380    2.3293611 
H    -0.1501363   -3.5920074   -0.9699406 
H    -1.1992687    3.3420913   -4.2290401 
H    -0.1159099    3.8485332   -2.9115514 
H     1.3004364    2.7067067   -4.5461176 
H     0.2054797    1.3095364   -4.6326885 
H    -2.0896724   -4.5280925    0.4094897 
H    -1.9504634   -4.5597536    2.1841115 
H     0.3546263   -3.6306186    2.0674042 
H     0.2949196   -5.0370122    0.9760410 
H     0.1423684   -1.3621364   -2.6336311 
H    -1.2104055   -0.5409651   -3.4439545 
H    -2.6581532   -0.8652507   -1.3885232 
H    -2.0163643   -2.4447811   -1.9143982 
H    -1.3265610    3.5758024   -0.7630991 
H     1.9273185   -0.5164298   -3.3474919 
H    -3.8634141   -2.5509247    0.0872817 
H     1.7754062   -2.0717844   -1.1384505 
H    -3.5108442    4.7255487   -1.2925559 
H    -3.7358001    3.6400797   -2.6905478 
H    -2.3783202    4.8022415   -2.6640544 
H    -2.3245877    1.4945113    0.1738036 
H    -3.4470057    2.8677745    0.3797187 
H    -3.7453526    1.6646642   -0.9050662 
H     3.7778311    1.8758544   -3.9189256 
H     4.1682104    0.1704205   -4.2712176 
H     2.8163095    0.9605219   -5.1195287 
H     3.8664040    1.0164147   -1.5144695 
H     3.8591321   -0.7361512   -1.8595228 
H     2.5629566   -0.0013092   -0.8653481 
H    -3.3585486   -0.1464749    0.7938525 
H    -5.0331957   -0.6364668    1.1626492 
H    -3.8093710   -0.5751455    2.4591694 
H    -4.3024209   -4.2918845    1.8014701 
H    -5.5153402   -2.9962563    1.9461962 
H    -4.1633799   -3.0807454    3.1095155 
H     2.5310475   -4.8135749    0.0472146 
H     3.5256476   -3.8105240   -1.0371474 
H     2.0007564   -4.5232193   -1.6344281 
H     2.4610572   -2.8237510    1.7709287 
H     3.4683021   -1.8678225    0.6528349 
H     1.8974313   -1.2216035    1.2088674 
