97
Energy =
C    -0.1102375    0.6394225    2.7927791 
C     0.9999021    1.3446660    2.2678145 
C     0.8298327    2.3372549    1.2593963 
H     2.0117018    1.0086742    2.5236965 
Pd    0.0487929    0.3555265    0.5387264 
P    -0.2241540    0.7324741   -1.7445324 
P    -0.8034160   -1.7935445    0.1918428 
H    -1.0951959    1.1210409    2.6975105 
H    -0.1357229    2.8613524    1.2342145 
C    -0.1020168   -2.5971307    5.6289388 
C    -1.2954434   -1.9485918    5.2798671 
C    -1.2738192   -0.8853520    4.3679717 
C    -0.0618227   -0.4515474    3.7793064 
C     1.1354712   -1.0989037    4.1633755 
C     1.1136339   -2.1597161    5.0740298 
H    -0.1136660   -3.4285103    6.3409706 
H    -2.2452070   -2.2662500    5.7224613 
H    -2.2072045   -0.3721514    4.1099255 
H     2.0930807   -0.7732475    3.7470987 
H     2.0512821   -2.6486649    5.3579476 
C     4.0106998    4.4736863   -0.7208478 
C     2.6674088    4.8164874   -0.9406294 
C     1.6487170    4.1174393   -0.2827534 
C     1.9419019    3.0486588    0.5964294 
C     3.3001291    2.7177163    0.8065899 
C     4.3200754    3.4269148    0.1624780 
H     4.8109855    5.0239367   -1.2258163 
H     2.4135168    5.6404173   -1.6157717 
H     0.6037713    4.4050153   -0.4449392 
H     3.5710418    1.8959536    1.4767640 
H     5.3650853    3.1572247    0.3467115 
C    -1.5989364    1.9188619   -2.3221474 
C     1.0582339    1.4354424   -2.9201298 
C    -2.0573895   -2.5511039    1.3929459 
C     0.3537026   -3.3019635    0.2541206 
C    -1.0130739    2.5945990   -3.6005253 
C     0.1952981    1.8161966   -4.1402916 
C    -1.5791475   -4.0013282    1.6246550 
C    -0.0503477   -3.9965761    1.5710288 
C    -0.7401831   -0.9078206   -2.5050480 
C    -1.5582894   -1.7668831   -1.5240298 
C    -2.1023067    2.9544806   -1.2821841 
C     2.3266658    0.5870803   -3.1709758 
C    -3.5567604   -2.3841487    1.0551449 
C     1.8746940   -3.1262991    0.0457729 
C    -3.0759150    3.9604842   -1.9312997 
C    -2.7767467    2.3030707   -0.0698538 
C     3.1164804    1.0999712   -4.3913820 
C     3.2280114    0.5873648   -1.9254285 
C    -3.9589557   -0.9028142    1.0208055 
C    -4.4331212   -3.1489733    2.0674521 
C     2.5364671   -2.1751326    1.0530481 
C     2.2063585   -2.7305382   -1.3971019 
H    -2.4466156    1.2593675   -2.5916208 
H     1.3716406    2.3739670   -2.4160108 
H    -1.8551863   -1.9916777    2.3261472 
H    -0.0249034   -3.9305879   -0.5770395 
H    -1.7955441    2.7251229   -4.3664184 
H    -0.6640242    3.6057027   -3.3218007 
H     0.7668837    2.4393839   -4.8488234 
H    -0.1147578    0.9086227   -4.6923033 
H    -1.9850283   -4.6655765    0.8372044 
H    -1.9485669   -4.3741499    2.5946127 
H     0.3519521   -3.4441700    2.4407878 
H     0.3723300   -5.0163096    1.6041823 
H     0.1858031   -1.4294389   -2.7981481 
H    -1.3160058   -0.7243301   -3.4285373 
H    -2.5706320   -1.3416971   -1.4058905 
H    -1.6788662   -2.7966793   -1.9048142 
H    -1.2151733    3.5174018   -0.9299425 
H     2.0170743   -0.4528893   -3.3963828 
H    -3.7394835   -2.8258321    0.0546452 
H     2.2962139   -4.1373433    0.2173332 
H    -3.4457183    4.6733175   -1.1743422 
H    -3.9517033    3.4349843   -2.3547089 
H    -2.6066634    4.5462728   -2.7383061 
H    -2.1199446    1.5419278    0.3972545 
H    -3.0236241    3.0565250    0.6981224 
H    -3.7165645    1.8045073   -0.3661872 
H     3.3828694    2.1655916   -4.2662374 
H     4.0550610    0.5296237   -4.4998996 
H     2.5500071    0.9922342   -5.3314132 
H     3.6502082    1.5935364   -1.7648338 
H     4.0643061   -0.1227587   -2.0401540 
H     2.6700313    0.3176179   -1.0103745 
H    -3.3495584   -0.3304626    0.3042146 
H    -5.0185909   -0.7824016    0.7377705 
H    -3.8186028   -0.4364026    2.0130422 
H    -4.2626792   -4.2373364    2.0282630 
H    -5.5017321   -2.9702971    1.8573228 
H    -4.2285598   -2.8056198    3.0985182 
H     2.1054738   -1.1565016    0.9638887 
H     3.6208783   -2.1009347    0.8632480 
H     2.3937238   -2.5165263    2.0903056 
H     1.8324321   -1.7151007   -1.6053798 
H     3.2958177   -2.7192073   -1.5677355 
H     1.7521598   -3.4256982   -2.1256910 
