97
Energy =
C     0.0951759    0.5641161    2.8366197 
C     1.1505070    1.2946891    2.2337451 
C     0.8666864    2.3294260    1.2946548 
H     2.1840883    0.9479399    2.3542603 
Pd    0.0192370    0.3826268    0.5851742 
P    -0.2565638    0.7648396   -1.6987040 
P    -0.8304393   -1.7630351    0.2154679 
H    -0.8914144    1.0515900    2.8673042 
H    -0.0797421    2.8713852    1.4256777 
C     0.4061366   -2.8031127    5.5025717 
C     1.5732414   -2.2395673    4.9603317 
C     1.4945500   -1.1388610    4.1003063 
C     0.2431226   -0.5735592    3.7623685 
C    -0.9203353   -1.1343680    4.3393892 
C    -0.8420571   -2.2409490    5.1937593 
H     0.4719901   -3.6647644    6.1745350 
H     2.5520814   -2.6610608    5.2112000 
H     2.4175339   -0.7190355    3.6878491 
H    -1.8962740   -0.6892712    4.1142031 
H    -1.7562834   -2.6593165    5.6275808 
C     3.7402811    4.4249097   -1.1364317 
C     4.0766634    3.1804625   -0.5769697 
C     3.1577321    2.4918086    0.2220055 
C     1.8817412    3.0382959    0.4919128 
C     1.5630440    4.2982756   -0.0658033 
C     2.4795006    4.9820943   -0.8752731 
H     4.4591913    4.9573572   -1.7671719 
H     5.0595207    2.7400646   -0.7746127 
H     3.4261353    1.5071151    0.6193542 
H     0.5872508    4.7483202    0.1486539 
H     2.2114475    5.9567132   -1.2960566 
C    -1.7695425    1.7682109   -2.2030558 
C     0.9252322    1.7411364   -2.8121289 
C    -2.2144898   -2.5758771    1.1878979 
C     0.3495947   -3.2495805    0.3539072 
C    -1.4423257    2.0516432   -3.6835311 
C    -0.0018302    2.5862014   -3.7452843 
C    -1.9898840   -4.0758616    0.9058158 
C    -0.4910249   -4.3474294    1.0703382 
C    -0.5431950   -0.9197847   -2.4717539 
C    -1.4290685   -1.7859648   -1.5616663 
C    -1.9171961    3.0438800   -1.3149807 
C     2.0016080    0.9105947   -3.5615592 
C    -3.6512941   -2.0575339    0.9541582 
C     1.6927955   -2.9790915    1.0793746 
C    -2.7198582    4.1603790   -2.0097698 
C    -2.5616047    2.7084179    0.0379309 
C     2.9332201    1.8389152   -4.3683052 
C     2.8487088    0.0598405   -2.6045104 
C    -3.7380061   -0.5294287    1.0699582 
C    -4.6341461   -2.7325375    1.9312164 
C     2.5664626   -1.9380503    0.3716350 
C     2.4891872   -4.2868189    1.2636702 
H    -2.6764207    1.1424605   -2.1023692 
H     1.4549155    2.4094949   -2.1084348 
H    -1.9329274   -2.3730689    2.2412487 
H     0.5586566   -3.5510154   -0.6916268 
H    -1.5217340    1.1159958   -4.2670431 
H    -2.1635723    2.7536766   -4.1343797 
H     0.0227751    3.6416092   -3.4233989 
H     0.3707499    2.5643743   -4.7820154 
H    -2.3332444   -4.3200459   -0.1181471 
H    -2.5785797   -4.7020581    1.5980296 
H    -0.2496403   -4.3146696    2.1490694 
H    -0.2130006   -5.3500084    0.7051767 
H     0.4470542   -1.3878704   -2.6065198 
H    -0.9918088   -0.8127305   -3.4745664 
H    -2.4620235   -1.3942059   -1.5476520 
H    -1.4803264   -2.8247465   -1.9327573 
H    -0.8990877    3.4360742   -1.1195079 
H     1.4808891    0.2387400   -4.2741752 
H    -3.9510409   -2.3444984   -0.0738724 
H     1.4397273   -2.5914639    2.0838840 
H    -2.8668778    5.0049195   -1.3145672 
H    -3.7191629    3.7994463   -2.3144241 
H    -2.2093385    4.5556206   -2.9035907 
H    -2.0269197    1.8812634    0.5429207 
H    -2.5474104    3.5838906    0.7102615 
H    -3.6138427    2.3993959   -0.0939078 
H     3.4489102    2.5438422   -3.6908415 
H     3.7009850    1.2444090   -4.8927465 
H     2.3933407    2.4284667   -5.1274155 
H     3.4140791    0.7071562   -1.9131058 
H     3.5715163   -0.5588729   -3.1635208 
H     2.2335213   -0.6144056   -1.9895332 
H    -3.1044219   -0.0310456    0.3175748 
H    -4.7736314   -0.1770457    0.9254706 
H    -3.3990281   -0.1858898    2.0644779 
H    -4.6578689   -3.8277282    1.8065538 
H    -5.6584005   -2.3556268    1.7682219 
H    -4.3548848   -2.5126083    2.9783023 
H     2.8841158   -2.2946975   -0.6246057 
H     3.4779717   -1.7282965    0.9584061 
H     2.0241539   -0.9790658    0.2389007 
H     2.7174600   -4.7499050    0.2856397 
H     3.4485306   -4.0779794    1.7680182 
H     1.9487499   -5.0276762    1.8753093 
