97
Energy =
C     0.1850042    0.6283144    2.8043294 
C     1.1473330    1.4864850    2.2096182 
C     0.7458383    2.4921763    1.2854236 
H     2.2136791    1.2552033    2.3193185 
Pd    0.1036533    0.4877467    0.5563493 
P    -0.0454531    0.8944125   -1.7370373 
P    -0.8203856   -1.6250118    0.1421972 
H    -0.8449046    1.0088522    2.8836977 
H    -0.2684062    2.9011925    1.4069721 
C     0.9486217   -2.8028261    5.2909029 
C    -0.3599633   -2.3400493    5.0826457 
C    -0.5840768   -1.2080280    4.2903349 
C     0.4886345   -0.5225830    3.6746974 
C     1.8022816   -0.9867570    3.9140694 
C     2.0274461   -2.1128997    4.7128625 
H     1.1293320   -3.6857245    5.9122469 
H    -1.2070208   -2.8563643    5.5464821 
H    -1.6049295   -0.8385570    4.1428208 
H     2.6587773   -0.4724135    3.4682137 
H     3.0523457   -2.4572895    4.8855081 
C     3.3163698    4.9303138   -1.1668255 
C     1.9696265    5.2737486   -0.9739274 
C     1.1534435    4.4843806   -0.1534530 
C     1.6611100    3.3298726    0.4855818 
C     3.0228630    3.0034261    0.2900065 
C     3.8399639    3.7960476   -0.5236268 
H     3.9568303    5.5451902   -1.8070751 
H     1.5544073    6.1634552   -1.4585868 
H     0.1052573    4.7649814   -0.0007822 
H     3.4456115    2.1111454    0.7627983 
H     4.8914679    3.5244210   -0.6630897 
C    -1.4322948    2.0381958   -2.3554775 
C     1.3071203    1.6898001   -2.7757240 
C    -2.2033657   -2.3455391    1.1727763 
C     0.1818662   -3.2342268    0.1978689 
C    -0.7043418    3.0568138   -3.2700631 
C     0.5199988    2.3909731   -3.9036345 
C    -2.2933029   -3.7854169    0.6326654 
C    -0.8550847   -4.3343764    0.6146105 
C    -0.3988738   -0.7727307   -2.5067827 
C    -1.4020707   -1.5541850   -1.6428249 
C    -2.3016966    2.6969148   -1.2557947 
C     2.4546972    0.7641042   -3.2397061 
C    -3.5222911   -1.5621550    1.3901535 
C     1.4180117   -3.2157872    1.1373378 
C    -3.2653176    3.7384642   -1.8576600 
C    -3.0843726    1.6608596   -0.4408691 
C     3.4709147    1.5448550   -4.0967834 
C     3.1617031    0.0989958   -2.0503904 
C    -4.2116983   -2.0507407    2.6814599 
C    -4.5105256   -1.6435353    0.2135305 
C     2.4583724   -2.1616166    0.7419805 
C     2.0913438   -4.6030604    1.1798000 
H    -2.0824436    1.3899776   -2.9766375 
H     1.7296727    2.4657261   -2.1071817 
H    -1.6920683   -2.3932705    2.1573297 
H     0.5309174   -3.3999995   -0.8395185 
H    -1.3936773    3.4545154   -4.0336801 
H    -0.3669692    3.9110645   -2.6537279 
H     1.1521961    3.1353910   -4.4166067 
H     0.2117132    1.6465961   -4.6639736 
H    -2.7428564   -3.7904029   -0.3767899 
H    -2.9414771   -4.4117962    1.2708016 
H    -0.6072232   -4.6569939    1.6408993 
H    -0.7633837   -5.2227482   -0.0315341 
H     0.5652427   -1.3103881   -2.5628995 
H    -0.7699975   -0.6501522   -3.5400263 
H    -2.3812050   -1.0460020   -1.6442714 
H    -1.5572345   -2.5732093   -2.0377170 
H    -1.6108607    3.2262604   -0.5699455 
H     2.0148982   -0.0277090   -3.8791919 
H    -3.2470172   -0.5010021    1.5441210 
H     1.0532044   -2.9805298    2.1565151 
H    -3.9014637    4.1718075   -1.0667609 
H    -3.9311856    3.2702360   -2.6059246 
H    -2.7309580    4.5687945   -2.3479537 
H    -2.3992093    0.9276887    0.0285873 
H    -3.6611304    2.1412807    0.3681079 
H    -3.7965970    1.1093873   -1.0807519 
H     3.8770079    2.4021375   -3.5288978 
H     4.3150993    0.8915211   -4.3771089 
H     3.0230565    1.9292204   -5.0280272 
H     3.6719110    0.8569035   -1.4317909 
H     3.9170718   -0.6287432   -2.3930290 
H     2.4489712   -0.4305600   -1.3967646 
H    -3.5465921   -1.9620031    3.5578527 
H    -5.1214982   -1.4595263    2.8831224 
H    -4.5155382   -3.1093144    2.5946762 
H    -4.0672534   -1.3156274   -0.7401099 
H    -5.3863707   -1.0018615    0.4089753 
H    -4.8793270   -2.6751852    0.0754668 
H     2.8670897   -2.3699585   -0.2630165 
H     3.3008578   -2.1619454    1.4539864 
H     2.0229994   -1.1424362    0.7313394 
H     2.4601279   -4.8890060    0.1772495 
H     2.9567786   -4.5815611    1.8643102 
H     1.4111713   -5.3960443    1.5313503 
