97
Energy =
C    -0.1040463    0.7483389    2.8374340 
C     0.9445092    1.5190872    2.2689142 
C     0.6543591    2.5079407    1.2837356 
H     1.9872163    1.2369703    2.4604632 
Pd   -0.0488220    0.5041518    0.5936069 
P    -0.1989323    0.8339505   -1.7116969 
P    -0.9145642   -1.6352001    0.2246445 
H    -1.1098442    1.1958384    2.8231167 
H    -0.3368262    2.9819347    1.3371962 
C     0.2029880   -2.5948230    5.5327544 
C    -1.0259510   -1.9546392    5.3157842 
C    -1.1002011   -0.8561397    4.4499684 
C     0.0488640   -0.3745354    3.7787599 
C     1.2844973   -1.0150156    4.0297263 
C     1.3579793   -2.1131263    4.8924501 
H     0.2661081   -3.4543547    6.2077428 
H    -1.9286427   -2.3074422    5.8253290 
H    -2.0610175   -0.3540535    4.2910950 
H     2.1981845   -0.6574440    3.5461927 
H     2.3243101   -2.5957852    5.0720764 
C     3.5135257    4.7249767   -1.0602276 
C     2.1807407    5.1525917   -0.9597168 
C     1.2698021    4.4331705   -0.1764365 
C     1.6630043    3.2625920    0.5131762 
C     3.0107165    2.8500068    0.4078912 
C     3.9243864    3.5760811   -0.3643556 
H     4.2299857    5.2875165   -1.6672699 
H     1.8520019    6.0562618   -1.4835123 
H     0.2366381    4.7869700   -0.0876648 
H     3.3477197    1.9422814    0.9186360 
H     4.9649288    3.2409554   -0.4285211 
C    -1.4465333    2.0941218   -2.4057236 
C     1.2247735    1.4115628   -2.7965812 
C    -2.0475985   -2.5301311    1.4368345 
C     0.2675588   -3.1012874    0.0165958 
C    -0.6426956    2.8813012   -3.4752793 
C     0.4966438    2.0109900   -4.0178938 
C    -1.5680896   -3.9997218    1.4074630 
C    -0.0446767   -3.9904284    1.2389901 
C    -0.7886940   -0.7991319   -2.4260248 
C    -1.7464410   -1.5053361   -1.4458967 
C    -2.1586775    2.9998607   -1.3728973 
C     2.3415933    0.3762284   -3.0738146 
C    -3.5674380   -2.3054019    1.2593609 
C     1.7551496   -2.7855201   -0.2661642 
C    -3.0497315    4.0420822   -2.0773730 
C    -2.9799138    2.1898408   -0.3644730 
C     3.2514878    0.8197666   -4.2360150 
C     3.1822546    0.1354134   -1.8090623 
C    -3.9413017   -0.8330505    1.4902269 
C    -4.3741955   -3.2142539    2.2075707 
C     2.5071964   -4.0565522   -0.7050960 
C     2.4657313   -2.0987673    0.9076057 
H    -2.2147687    1.4723973   -2.9067046 
H     1.6641585    2.2494354   -2.2159936 
H    -1.7471278   -2.1033541    2.4143237 
H    -0.1372784   -3.6165596   -0.8778406 
H    -1.3092990    3.2316834   -4.2809107 
H    -0.2047863    3.7776478   -2.9971755 
H     1.1893120    2.6103894   -4.6326888 
H     0.1052398    1.2023929   -4.6656516 
H    -2.0408644   -4.5344230    0.5606713 
H    -1.8687742   -4.5195489    2.3326723 
H     0.4251244   -3.5732617    2.1492481 
H     0.3582644   -5.0076497    1.0953406 
H     0.1055246   -1.4234389   -2.6024109 
H    -1.2695565   -0.6332859   -3.4061101 
H    -2.6754942   -0.9206168   -1.3167243 
H    -2.0293301   -2.5067347   -1.8166502 
H    -1.3698872    3.5439856   -0.8191519 
H     1.8670697   -0.5785623   -3.3765145 
H    -3.8377869   -2.5811282    0.2201145 
H     1.7714892   -2.0857014   -1.1222607 
H    -3.5736577    4.6641023   -1.3312665 
H    -3.8170640    3.5450090   -2.6993349 
H    -2.4691114    4.7182432   -2.7264741 
H    -2.3317671    1.4770191    0.1843384 
H    -3.4614313    2.8456785    0.3812859 
H    -3.7749892    1.6111519   -0.8696986 
H     3.6868444    1.8154690   -4.0330558 
H     4.0848028    0.1060814   -4.3566489 
H     2.7107916    0.8672504   -5.1958513 
H     3.8284994    1.0073002   -1.6137756 
H     3.8278294   -0.7523283   -1.9210290 
H     2.5452703   -0.0053150   -0.9182664 
H    -3.3434878   -0.1556611    0.8598963 
H    -5.0068715   -0.6519250    1.2690026 
H    -3.7619616   -0.5480674    2.5425415 
H    -4.2299676   -4.2839616    1.9831725 
H    -5.4524283   -2.9962670    2.1182706 
H    -4.0795751   -3.0402743    3.2590789 
H     2.5735829   -4.7897204    0.1182789 
H     3.5380527   -3.8069801   -1.0109697 
H     2.0081066   -4.5474442   -1.5595290 
H     2.5191584   -2.7570172    1.7914954 
H     3.4967402   -1.8223092    0.6299522 
H     1.9313846   -1.1743440    1.1993589 
