97
Energy =
C     0.0072926    0.6935787    2.8257177 
C     1.0705858    1.4314480    2.2483121 
C     0.7989550    2.4501646    1.2885399 
H     2.1058325    1.1101217    2.4174400 
Pd    0.0204615    0.4762102    0.5612468 
P    -0.1930863    0.8030763   -1.7357414 
P    -0.8026673   -1.6695412    0.1854170 
H    -0.9876170    1.1651919    2.8065689 
H    -0.1614672    2.9745449    1.3837153 
C     0.2278135   -2.6437003    5.5340426 
C    -0.9941286   -2.0056510    5.2753532 
C    -1.0407141   -0.9076790    4.4068492 
C     0.1295287   -0.4280589    3.7704524 
C     1.3572565   -1.0647619    4.0656601 
C     1.4034709   -2.1602499    4.9335645 
H     0.2695354   -3.5017580    6.2125061 
H    -1.9124908   -2.3583096    5.7561040 
H    -1.9954044   -0.4025092    4.2212071 
H     2.2856291   -0.7034012    3.6143855 
H     2.3641013   -2.6396266    5.1487401 
C     3.6869816    4.5705653   -1.1007345 
C     2.3913744    5.0787390   -0.9195324 
C     1.4715095    4.3888851   -0.1198299 
C     1.8215174    3.1717832    0.5098759 
C     3.1315912    2.6740182    0.3196098 
C     4.0534141    3.3690944   -0.4713052 
H     4.4087723    5.1083718   -1.7236133 
H     2.0983806    6.0194460   -1.3971637 
H     0.4642026    4.7952673    0.0262308 
H     3.4264057    1.7222375    0.7738846 
H     5.0630531    2.9671912   -0.6060980 
C    -1.5903921    1.8680264   -2.4413599 
C     1.1682321    1.6825963   -2.6965232 
C    -2.0352278   -2.4111909    1.3924481 
C     0.3310946   -3.1853388    0.1837593 
C    -0.8494665    3.1272834   -2.9401727 
C     0.4218282    2.6426177   -3.6515580 
C    -1.6067339   -3.8874628    1.5465610 
C    -0.0721322   -3.9268985    1.4769606 
C    -0.5309238   -0.8868157   -2.4716277 
C    -1.5024780   -1.6543542   -1.5508334 
C    -2.8704916    2.0695172   -1.5930134 
C     2.2403283    0.7665484   -3.3299350 
C    -3.5245848   -2.1178263    1.1063040 
C     1.8368353   -2.9658472   -0.0938283 
C    -2.6353484    2.7801933   -0.2534098 
C    -3.9533082    2.7903986   -2.4202166 
C     3.2127259    1.5795811   -4.2065370 
C     3.0186026    0.0032969   -2.2442877 
C    -3.7993406   -0.6046811    1.1710211 
C    -4.4363442   -2.8727201    2.0924688 
C     2.5563971   -4.3168445   -0.2733604 
C     2.5447514   -2.0988299    0.9551799 
H    -1.8914293    1.2961775   -3.3420880 
H     1.6608464    2.2963684   -1.9181657 
H    -1.7663006   -1.9033333    2.3391425 
H    -0.0696279   -3.7774971   -0.6635664 
H    -1.4928566    3.7178471   -3.6144411 
H    -0.5756398    3.7781100   -2.0897012 
H     1.0750506    3.4861761   -3.9313168 
H     0.1491669    2.1117953   -4.5843073 
H    -2.0397146   -4.5001641    0.7321242 
H    -1.9780940   -4.2972357    2.5011080 
H     0.3558699   -3.4241997    2.3648033 
H     0.3090434   -4.9622601    1.4668773 
H     0.4294196   -1.4256661   -2.5557731 
H    -0.9416498   -0.7805486   -3.4911772 
H    -2.4871986   -1.1546501   -1.5219572 
H    -1.6638711   -2.6869024   -1.9078223 
H    -3.2586371    1.0573400   -1.3660470 
H     1.7260964    0.0360325   -3.9867445 
H    -3.7620335   -2.4794833    0.0855003 
H     1.9000724   -2.4354961   -1.0630509 
H    -1.9266858    2.2069076    0.3727551 
H    -3.5814885    2.8724383    0.3064442 
H    -2.2273614    3.7967427   -0.3952631 
H    -4.1249604    2.2879543   -3.3888117 
H    -4.9100964    2.8052512   -1.8705602 
H    -3.6713587    3.8384454   -2.6243167 
H     3.6895010    2.3808785   -3.6125538 
H     4.0103791    0.9256928   -4.5997651 
H     2.7056764    2.0438974   -5.0686289 
H     3.6613305    0.6976329   -1.6772626 
H     3.6610629   -0.7776676   -2.6856574 
H     2.3438638   -0.4771375   -1.5136242 
H    -3.1193279   -0.0331191    0.5145366 
H    -4.8361098   -0.3720250    0.8741391 
H    -3.6487849   -0.2276123    2.1990034 
H    -4.3423029   -3.9663029    1.9873328 
H    -5.4935418   -2.6086503    1.9173626 
H    -4.1884443   -2.6054197    3.1363904 
H     2.5873316   -4.8840492    0.6737700 
H     3.5987284   -4.1565634   -0.5986674 
H     2.0561246   -4.9450980   -1.0317661 
H     2.5654557   -2.5966973    1.9390775 
H     3.5869753   -1.8996158    0.6520663 
H     2.0314079   -1.1242310    1.0711571 
