97
Energy =
C     0.1854712    0.6487599    2.7593388 
C     1.1416207    1.4758744    2.1201256 
C     0.7488108    2.5118196    1.2282498 
H     2.2016782    1.2021924    2.1798614 
Pd   -0.0071394    0.5220208    0.4953095 
P    -0.2060440    0.8801704   -1.8102113 
P    -0.8434852   -1.6331869    0.1391180 
H    -0.8362437    1.0434829    2.8634794 
H    -0.2361544    2.9691550    1.3943438 
C     1.0350568   -2.7372012    5.2834330 
C    -0.2884181   -2.3492893    5.0217252 
C    -0.5456405   -1.2317439    4.2191204 
C     0.5099913   -0.4874243    3.6424858 
C     1.8371148   -0.8725612    3.9423082 
C     2.0947771   -1.9842630    4.7515692 
H     1.2403896   -3.6085868    5.9132968 
H    -1.1220117   -2.9130376    5.4533611 
H    -1.5793418   -0.9224586    4.0327714 
H     2.6805872   -0.3026092    3.5418678 
H     3.1299850   -2.2650853    4.9711175 
C     3.3901536    4.8846613   -1.2123805 
C     2.0633820    5.2843771   -0.9903847 
C     1.2239809    4.5141319   -0.1757749 
C     1.6857812    3.3215374    0.4272693 
C     3.0287473    2.9381049    0.2017625 
C     3.8702292    3.7125931   -0.6045194 
H     4.0487875    5.4851638   -1.8478264 
H     1.6826733    6.2035579   -1.4475310 
H     0.1934268    4.8389974    0.0038133 
H     3.4176196    2.0161610    0.6456167 
H     4.9059548    3.3965380   -0.7663269 
C    -1.5460716    1.9696226   -2.6121214 
C     1.2174924    1.7166183   -2.7384368 
C    -2.2927058   -2.3574697    1.0846010 
C     0.2128846   -3.2019046    0.3049780 
C    -0.7505279    3.1716976   -3.1630465 
C     0.5373734    2.6278173   -3.7841118 
C    -2.2561714   -3.8310146    0.6317806 
C    -0.7983110   -4.3020722    0.7659866 
C    -0.4485350   -0.8285928   -2.5411789 
C    -1.3682582   -1.6947288   -1.6644172 
C    -2.8268748    2.3436699   -1.8296221 
C     2.3235762    0.7857134   -3.2873891 
C    -3.6456007   -1.6153792    0.9937666 
C     1.4404284   -3.1051065    1.2468587 
C    -3.7477643    1.1325640   -1.6381451 
C    -2.5654893    3.0516268   -0.4928282 
C     3.3635101    1.5905302   -4.0925563 
C     3.0171706    0.0094021   -2.1583391 
C    -3.5712801   -0.2360530    1.6716911 
C    -4.7863856   -2.4483189    1.6110255 
C     2.4604550   -2.0534604    0.7954059 
C     2.1387233   -4.4745622    1.3737480 
H    -1.8588729    1.3590462   -3.4825696 
H     1.6697913    2.3656155   -1.9648352 
H    -1.9446805   -2.3199880    2.1373289 
H     0.5733627   -3.4108655   -0.7210208 
H    -1.3653878    3.7257212   -3.8942700 
H    -0.4992851    3.8722935   -2.3462299 
H     1.2178839    3.4435610   -4.0802301 
H     0.3022519    2.0450678   -4.6959745 
H    -2.6262694   -3.9210505   -0.4069857 
H    -2.9167126   -4.4545801    1.2580833 
H    -0.6090696   -4.5025976    1.8358658 
H    -0.6220433   -5.2468238    0.2259970 
H     0.5538150   -1.2878241   -2.6027875 
H    -0.8372104   -0.7500306   -3.5720706 
H    -2.4094243   -1.3340781   -1.7160567 
H    -1.3665882   -2.7399732   -2.0185720 
H    -3.3547775    3.0608307   -2.4897890 
H     1.8504537    0.0621697   -3.9817593 
H    -3.8901161   -1.4692815   -0.0770528 
H     1.0638853   -2.8218112    2.2478896 
H    -3.9806725    0.6411592   -2.5994735 
H    -4.6998204    1.4248701   -1.1636609 
H    -3.2663508    0.3913573   -0.9788719 
H    -1.9323242    3.9460708   -0.6143535 
H    -3.5152881    3.3711357   -0.0314921 
H    -2.0608817    2.3653729    0.2124174 
H     3.8017876    2.3901424   -3.4674991 
H     4.1825058    0.9291334   -4.4243191 
H     2.9257658    2.0560008   -4.9909496 
H     3.5723546    0.7003915   -1.5009447 
H     3.7327338   -0.7272409   -2.5620115 
H     2.2938258   -0.5295105   -1.5243159 
H    -2.7254986    0.3635448    1.2882753 
H    -4.4977018    0.3382747    1.5038515 
H    -3.4381356   -0.3474213    2.7629824 
H    -4.9639495   -3.3846322    1.0566457 
H    -5.7269438   -1.8710977    1.6013395 
H    -4.5606823   -2.7071441    2.6620340 
H     2.8861862   -2.3149133   -0.1900049 
H     3.2939381   -1.9879139    1.5147816 
H     2.0005297   -1.0490378    0.7141197 
H     2.5110410   -4.8182204    0.3907112 
H     3.0044221   -4.3938180    2.0534888 
H     1.4727745   -5.2543556    1.7782502 
