97
Energy =
C     0.1968925    0.7067630    2.7847721 
C     1.1519788    1.5524867    2.1611401 
C     0.7407884    2.5306987    1.2121645 
H     2.2199465    1.3287936    2.2708804 
Pd    0.1031765    0.5036629    0.5422779 
P    -0.0573920    0.8445693   -1.7610657 
P    -0.8135924   -1.6235535    0.1919768 
H    -0.8342735    1.0847740    2.8599155 
H    -0.2747133    2.9382221    1.3280464 
C     0.9916280   -2.6513988    5.3599189 
C    -0.3206349   -2.2023647    5.1447064 
C    -0.5548925   -1.0933301    4.3233195 
C     0.5110767   -0.4181526    3.6849871 
C     1.8285325   -0.8675126    3.9316396 
C     2.0638563   -1.9704525    4.7594003 
H     1.1802700   -3.5163931    6.0036878 
H    -1.1626560   -2.7112954    5.6255573 
H    -1.5786207   -0.7340907    4.1703415 
H     2.6801775   -0.3599175    3.4690314 
H     3.0915769   -2.3037140    4.9370673 
C     3.2860683    4.9117712   -1.3211653 
C     1.9384592    5.2534786   -1.1311842 
C     1.1305983    4.4833303   -0.2846363 
C     1.6475238    3.3498612    0.3839565 
C     3.0099328    3.0249248    0.1904775 
C     3.8188267    3.7987122   -0.6490951 
H     3.9200568    5.5116957   -1.9817213 
H     1.5160098    6.1268402   -1.6387956 
H     0.0817776    4.7628294   -0.1343705 
H     3.4397479    2.1483894    0.6858262 
H     4.8711323    3.5288788   -0.7859866 
C    -1.4516035    1.9649282   -2.4053734 
C     1.2874578    1.6158699   -2.8277524 
C    -2.1892681   -2.3198966    1.2486893 
C     0.1957176   -3.2263565    0.2896451 
C    -0.7315954    2.9609631   -3.3505333 
C     0.4924790    2.2824947   -3.9710448 
C    -2.2750167   -3.7751503    0.7508228 
C    -0.8344911   -4.3181680    0.7432919 
C    -0.4066644   -0.8452099   -2.4816978 
C    -1.4030783   -1.6059027   -1.5917539 
C    -2.3193922    2.6496238   -1.3203510 
C     2.4364372    0.6818608   -3.2712015 
C    -3.5107112   -1.5361960    1.4490868 
C     1.4361471   -3.1751105    1.2223016 
C    -3.2884132    3.6720529   -1.9457453 
C    -3.0957247    1.6325736   -0.4759895 
C     3.4445982    1.4414949   -4.1562452 
C     3.1527325    0.0546335   -2.0669617 
C    -4.1921865   -1.9899373    2.7572063 
C    -4.5037032   -1.6562115    0.2798106 
C     2.4701869   -2.1289112    0.7908799 
C     2.1153741   -4.5578108    1.3027886 
H    -2.1014584    1.2972636   -3.0059706 
H     1.7101910    2.4116041   -2.1830513 
H    -1.6736761   -2.3371688    2.2319578 
H     0.5405796   -3.4210421   -0.7441434 
H    -1.4258292    3.3349720   -4.1216361 
H    -0.3948072    3.8330157   -2.7593477 
H     1.1195172    3.0147522   -4.5072956 
H     0.1836935    1.5161282   -4.7089802 
H    -2.7282710   -3.8112934   -0.2563593 
H    -2.9181523   -4.3855394    1.4092545 
H    -0.5810783   -4.6089506    1.7777196 
H    -0.7412413   -5.2249080    0.1234463 
H     0.5595559   -1.3802134   -2.5263724 
H    -0.7823257   -0.7535015   -3.5164794 
H    -2.3843355   -1.1020040   -1.6035040 
H    -1.5554941   -2.6363818   -1.9568805 
H    -1.6279101    3.1987970   -0.6509341 
H     1.9965665   -0.1300184   -3.8849460 
H    -3.2395253   -0.4698389    1.5708233 
H     1.0749917   -2.9111838    2.2356995 
H    -3.9232155    4.1238860   -1.1641525 
H    -3.9553823    3.1824894   -2.6792530 
H    -2.7584098    4.4910220   -2.4593450 
H    -2.4063038    0.9143097    0.0099892 
H    -3.6713499    2.1318592    0.3222932 
H    -3.8081535    1.0621975   -1.0988714 
H     3.8498972    2.3166653   -3.6158041 
H     4.2901474    0.7838213   -4.4219180 
H     2.9901715    1.7965711   -5.0959127 
H     3.6633222    0.8322940   -1.4737216 
H     3.9090527   -0.6800213   -2.3923305 
H     2.4457134   -0.4581463   -1.3940428 
H    -3.5240803   -1.8716334    3.6278265 
H    -5.1043776   -1.3978833    2.9451027 
H    -4.4906101   -3.0522422    2.7031360 
H    -4.0659841   -1.3549586   -0.6851547 
H    -5.3813022   -1.0125008    0.4601214 
H    -4.8688529   -2.6929680    0.1739950 
H     2.8749802   -2.3651498   -0.2095574 
H     3.3160511   -2.1047198    1.4984514 
H     2.0304725   -1.1123103    0.7523426 
H     2.4805546   -4.8722386    0.3074578 
H     2.9839511   -4.5123503    1.9821313 
H     1.4401763   -5.3426224    1.6812729 
