97
Energy =
C     0.1981372    0.6045382    2.8612643 
C     1.2607716    1.2672021    2.2055396 
C     0.9877690    2.2959146    1.2491550 
H     2.2815407    0.8761981    2.3026052 
Pd    0.0462397    0.3843642    0.5960498 
P    -0.4716597    0.8254738   -1.6284728 
P    -0.6450852   -1.8058342    0.2251539 
H    -0.7788455    1.1131982    2.8581836 
H     0.0985554    2.9148118    1.4278775 
C     0.4067507   -2.6394958    5.6792452 
C    -0.8313029   -2.1579334    5.2250530 
C    -0.8784691   -1.0890715    4.3226405 
C     0.3085881   -0.4877934    3.8428399 
C     1.5468323   -0.9664009    4.3305142 
C     1.5931960   -2.0319319    5.2363140 
H     0.4472199   -3.4721264    6.3887518 
H    -1.7617379   -2.6113453    5.5821738 
H    -1.8469531   -0.7077749    3.9787018 
H     2.4826011   -0.4997076    4.0067653 
H     2.5609122   -2.3874905    5.6045866 
C     3.8955863    4.0793964   -1.3847629 
C     4.1305113    2.8031051   -0.8453751 
C     3.2004135    2.2195300    0.0213200 
C     2.0148384    2.9038107    0.3802686 
C     1.7996428    4.1930680   -0.1592885 
C     2.7266845    4.7723382   -1.0359072 
H     4.6210751    4.5302927   -2.0692228 
H     5.0400667    2.2550439   -1.1125773 
H     3.3830377    1.2086935    0.4015229 
H     0.8985774    4.7494889    0.1219258 
H     2.5393544    5.7721122   -1.4411505 
C    -1.8719135    2.0329522   -1.9927107 
C     0.7570518    1.6855136   -2.7877913 
C    -2.2327995   -2.4995107    0.9636427 
C     0.4402588   -3.2574797    0.7775739 
C    -1.5850044    2.3602863   -3.4734109 
C    -0.0949324    2.7143466   -3.5950129 
C    -1.9138083   -3.9953870    1.1728393 
C    -0.4782555   -4.0844174    1.7071647 
C    -1.1095708   -0.7688833   -2.4149945 
C    -0.7135736   -2.0339362   -1.6358546 
C    -1.8659834    3.2406446   -1.0110660 
C     1.6490015    0.7565255   -3.6501446 
C    -3.5360360   -2.1576847    0.2066411 
C     1.8058778   -2.8575020    1.3808191 
C    -2.5785787    4.4780603   -1.5869572 
C    -2.5041880    2.8403026    0.3298713 
C     2.6808645    1.5836575   -4.4440396 
C     2.3815132   -0.2854224   -2.7925618 
C    -3.7855263   -0.6412953    0.2023944 
C    -4.7450563   -2.9010580    0.8066540 
C     2.6679793   -2.0681551    0.3849277 
C     2.5626309   -4.0897340    1.9086307 
H    -2.8328549    1.4966198   -1.8903128 
H     1.4246029    2.2227232   -2.0900693 
H    -2.2756698   -2.0221130    1.9632046 
H     0.6179983   -3.8405196   -0.1491707 
H    -1.8101430    1.4699530   -4.0905210 
H    -2.2368533    3.1681061   -3.8472643 
H     0.0855412    3.7274731   -3.1952916 
H     0.2145304    2.7307239   -4.6527694 
H    -2.0027840   -4.5386128    0.2112522 
H    -2.6320970   -4.4559987    1.8726203 
H    -0.4366737   -3.6644724    2.7302076 
H    -0.1317285   -5.1298550    1.7658356 
H    -0.7651396   -0.8349370   -3.4608168 
H    -2.2077892   -0.6614750   -2.4433458 
H    -1.3782905   -2.8807879   -1.8839043 
H     0.3099383   -2.3458889   -1.9089214 
H    -0.8108252    3.5198368   -0.8227287 
H     0.9991047    0.2294467   -4.3785450 
H    -3.4238406   -2.4988898   -0.8425338 
H     1.5943080   -2.1990442    2.2423293 
H    -2.6202961    5.2772309   -0.8267433 
H    -3.6174030    4.2387115   -1.8790722 
H    -2.0590501    4.8885948   -2.4689213 
H    -2.0317873    1.9279019    0.7433584 
H    -2.4016023    3.6468556    1.0767403 
H    -3.5814606    2.6299617    0.2021648 
H     3.3385942    2.1395446   -3.7517475 
H     3.3112803    0.9187198   -5.0591865 
H     2.2057340    2.3127214   -5.1210765 
H     3.0530806    0.2128177   -2.0721857 
H     2.9894366   -0.9600424   -3.4193006 
H     1.6828614   -0.9075706   -2.2105219 
H    -2.9182679   -0.0886298   -0.1973881 
H    -4.6688005   -0.3809832   -0.4057657 
H    -3.9585846   -0.2693361    1.2288196 
H    -4.6470526   -3.9951552    0.7123360 
H    -5.6728986   -2.6024353    0.2889293 
H    -4.8630022   -2.6566585    1.8784836 
H     2.8922816   -2.6623311   -0.5203010 
H     3.6299301   -1.7772280    0.8424211 
H     2.1543774   -1.1393351    0.0677023 
H     2.7394272   -4.8252949    1.1019030 
H     3.5457650   -3.7903724    2.3116377 
H     2.0113031   -4.5934739    2.7201501 
