97
Energy =
C     0.0892933    0.6493154    2.8486657 
C     1.1265172    1.4332618    2.2813002 
C     0.8147933    2.4630754    1.3461455 
H     2.1720628    1.1375765    2.4319971 
Pd    0.0837877    0.5056561    0.5815153 
P    -0.1004754    0.9586516   -1.6875365 
P    -0.8838497   -1.5703039    0.1186900 
H    -0.9147266    1.1012537    2.8700210 
H    -0.1699111    2.9420924    1.4525447 
C     0.4568283   -2.7647394    5.4444127 
C    -0.7849735   -2.1446343    5.2419936 
C    -0.8795847   -1.0207087    4.4116839 
C     0.2602001   -0.4996153    3.7533787 
C     1.5083103   -1.1218098    3.9887098 
C     1.6032861   -2.2402432    4.8227896 
H     0.5361342   -3.6420546    6.0942368 
H    -1.6808029   -2.5298359    5.7399035 
H    -1.8483726   -0.5260320    4.2775431 
H     2.4141297   -0.7339605    3.5134982 
H     2.5789996   -2.7074519    4.9918735 
C     3.5937574    4.7355101   -1.0366770 
C     2.2740899    5.1766403   -0.8549595 
C     1.3899419    4.4392573   -0.0568646 
C     1.8009157    3.2408699    0.5711743 
C     3.1359759    2.8141772    0.3852069 
C     4.0212020    3.5549177   -0.4059833 
H     4.2874120    5.3100033   -1.6587605 
H     1.9335342    6.1020382   -1.3310315 
H     0.3631844    4.7947251    0.0865337 
H     3.4819538    1.8832474    0.8461332 
H     5.0507130    3.2060905   -0.5380860 
C    -1.4350183    2.1898582   -2.2404023 
C     1.2769804    1.7144485   -2.7151497 
C    -2.1859825   -2.1890983    1.3303151 
C     0.1345016   -3.1513914    0.1722896 
C    -0.6643787    3.2064728   -3.1230470 
C     0.5154294    2.5016695   -3.8031757 
C    -1.7720828   -3.6430369    1.6653149 
C    -0.2422999   -3.7367782    1.5520872 
C    -0.5724678   -0.6539332   -2.5105931 
C    -1.5532198   -1.4451023   -1.6259215 
C    -2.2706771    2.8354688   -1.1076945 
C     2.3669536    0.7377309   -3.2121682 
C    -3.6773709   -1.9238987    0.9897527 
C     1.6361464   -3.0483623   -0.1868207 
C    -3.2170734    3.9153828   -1.6676634 
C    -3.0658063    1.7944731   -0.3060188 
C     3.4100360    1.4756888   -4.0742858 
C     3.0567416    0.0215265   -2.0396934 
C    -4.5120587   -1.8823917    2.2852302 
C    -4.2803942   -2.9285859   -0.0082364 
C     2.2405106   -4.4507185   -0.3938668 
C     2.4551213   -2.2405267    0.8295666 
H    -2.1174240    1.5974576   -2.8822429 
H     1.7475832    2.4409666   -2.0231739 
H    -1.9401837   -1.5786305    2.2175783 
H    -0.3504903   -3.7839863   -0.5991624 
H    -1.3403737    3.6710562   -3.8604221 
H    -0.2743528    4.0157455   -2.4778658 
H     1.1797328    3.2321046   -4.2955302 
H     0.1562357    1.8071089   -4.5878242 
H    -2.2336660   -4.3484032    0.9514019 
H    -2.1221735   -3.9170228    2.6754368 
H     0.2344336   -3.1555376    2.3631657 
H     0.1080017   -4.7791997    1.6440974 
H     0.3598051   -1.2277965   -2.6569652 
H    -1.0006299   -0.4601529   -3.5102162 
H    -2.5275615   -0.9275884   -1.5663413 
H    -1.7342532   -2.4523399   -2.0397744 
H    -1.5582220    3.3294467   -0.4175088 
H     1.8777301   -0.0211181   -3.8555926 
H    -3.7338006   -0.9150055    0.5369121 
H     1.6936239   -2.5240920   -1.1609072 
H    -3.8269515    4.3487012   -0.8563794 
H    -3.9082998    3.4823409   -2.4141085 
H    -2.6678059    4.7410000   -2.1495992 
H    -2.3885575    1.0514306    0.1617531 
H    -3.6429886    2.2730168    0.5037667 
H    -3.7799027    1.2539966   -0.9550434 
H     3.8678344    2.3032574   -3.5017162 
H     4.2151867    0.7837379   -4.3761230 
H     2.9680148    1.8949290   -4.9933090 
H     3.6460378    0.7393098   -1.4446390 
H     3.7382615   -0.7676598   -2.4006015 
H     2.3254183   -0.4428963   -1.3549583 
H    -4.1466330   -1.0997446    2.9735196 
H    -5.5716500   -1.6699356    2.0610628 
H    -4.4696401   -2.8503806    2.8160246 
H    -3.6637016   -3.0494939   -0.9149553 
H    -5.2824154   -2.5933976   -0.3262749 
H    -4.3986735   -3.9258218    0.4505774 
H     2.2475864   -5.0265816    0.5485134 
H     3.2844199   -4.3729060   -0.7436080 
H     1.6723250   -5.0294445   -1.1435323 
H     2.5046631   -2.7564181    1.8030452 
H     3.4871582   -2.0958596    0.4673427 
H     2.0083822   -1.2400595    0.9943065 
