97
Energy =
C     0.2357792    0.6136510    2.8121191 
C     1.1545891    1.4842583    2.1705900 
C     0.7019015    2.4871863    1.2680704 
H     2.2272089    1.2637104    2.2260109 
Pd    0.0491946    0.4763008    0.5592729 
P    -0.0922690    0.8509509   -1.7480890 
P    -0.8603239   -1.6548359    0.1847547 
H    -0.7935300    0.9783748    2.9436997 
H    -0.3152034    2.8772074    1.4249830 
C     1.2091435   -2.8081844    5.2409972 
C    -0.1264568   -2.4287103    5.0331855 
C    -0.4224845   -1.2992762    4.2615523 
C     0.6056501   -0.5321326    3.6652279 
C     1.9456058   -0.9115121    3.9069520 
C     2.2420702   -2.0361646    4.6847400 
H     1.4448354   -3.6894910    5.8459532 
H    -0.9389824   -3.0096811    5.4818908 
H    -1.4647775   -0.9995850    4.1125628 
H     2.7689566   -0.3286624    3.4834808 
H     3.2869894   -2.3123851    4.8597641 
C     3.1517802    4.9874507   -1.2446556 
C     1.7947104    5.2812509   -1.0415706 
C     1.0178770    4.4716945   -0.2030273 
C     1.5758315    3.3457000    0.4447642 
C     2.9477986    3.0707273    0.2403012 
C     3.7254835    3.8831739   -0.5923595 
H     3.7615767    5.6187621   -1.8986883 
H     1.3406616    6.1480052   -1.5329676 
H    -0.0390848    4.7126850   -0.0436278 
H     3.4119110    2.2056198    0.7241766 
H     4.7856209    3.6512763   -0.7378292 
C    -1.4377105    1.9917134   -2.4600623 
C     1.3083826    1.6086415   -2.7579287 
C    -2.3179555   -2.3947932    1.1110417 
C     0.1618255   -3.2502862    0.2743058 
C    -0.6590686    3.0018457   -3.3375564 
C     0.5764675    2.3126098   -3.9201775 
C    -2.3206607   -3.8402912    0.5715543 
C    -0.8743120   -4.3531980    0.6689407 
C    -0.4296854   -0.8358852   -2.4819588 
C    -1.4194748   -1.6258140   -1.6101460 
C    -2.3788886    2.6436590   -1.4202557 
C     2.4579389    0.6622580   -3.1714611 
C    -3.6522492   -1.6068616    1.0840579 
C     1.3803477   -3.2192859    1.2350852 
C    -3.2852516    3.7076581   -2.0683055 
C    -3.2214619    1.5892769   -0.6967552 
C     3.5039566    1.4123156   -4.0202356 
C     3.1260831    0.0210315   -1.9478313 
C    -3.6024633   -0.4236248    2.0663900 
C    -4.8607459   -2.5070737    1.4073677 
C     2.4323884   -2.1826070    0.8272798 
C     2.0425484   -4.6096993    1.3224050 
H    -2.0432039    1.3362935   -3.1178963 
H     1.7211632    2.3856712   -2.0849432 
H    -1.9570310   -2.4348212    2.1594942 
H     0.5319559   -3.4147925   -0.7562993 
H    -1.3110705    3.4096705   -4.1282547 
H    -0.3337096    3.8503032   -2.7074275 
H     1.2405732    3.0422095   -4.4136206 
H     0.2839462    1.5674814   -4.6860085 
H    -2.6999027   -3.8652747   -0.4669583 
H    -2.9923991   -4.4811077    1.1675524 
H    -0.6882032   -4.6256048    1.7230578 
H    -0.7221808   -5.2663311    0.0704476 
H     0.5415358   -1.3616928   -2.5267105 
H    -0.7982691   -0.7370712   -3.5186083 
H    -2.4191973   -1.1555867   -1.6315658 
H    -1.5324527   -2.6561594   -1.9890263 
H    -1.7387948    3.1483792   -0.6690265 
H     2.0280962   -0.1409171   -3.8034793 
H    -3.8068645   -1.2095348    0.0619780 
H     1.0016448   -2.9576740    2.2423303 
H    -3.9787106    4.1257797   -1.3183670 
H    -3.8935569    3.2649756   -2.8785216 
H    -2.7083445    4.5458566   -2.4929545 
H    -2.5694671    0.8448948   -0.2048341 
H    -3.8542144    2.0444242    0.0833840 
H    -3.8838980    1.0569416   -1.4045947 
H     3.9004393    2.2823909   -3.4651882 
H     4.3507274    0.7455392   -4.2578391 
H     3.0859638    1.7733910   -4.9743786 
H     3.6267957    0.7896922   -1.3342776 
H     3.8833419   -0.7225867   -2.2498080 
H     2.3897899   -0.4843334   -1.3016253 
H    -2.7025499    0.1967206    1.9124135 
H    -4.4869796    0.2250531    1.9521890 
H    -3.5889608   -0.7918463    3.1083747 
H    -5.0089355   -3.2933505    0.6486635 
H    -5.7825763   -1.9013623    1.4455314 
H    -4.7391921   -2.9953297    2.3916444 
H     2.8481001   -2.4162755   -0.1692332 
H     3.2672317   -2.1727404    1.5473677 
H     2.0037458   -1.1618898    0.7909388 
H     2.4175592   -4.9283540    0.3320185 
H     2.9021342   -4.5733089    2.0135485 
H     1.3538464   -5.3866768    1.6925244 
