97
Energy =
C     0.1443147    0.7733672    2.8118826 
C     1.0965418    1.5714882    2.1379856 
C     0.6921811    2.5334754    1.1600140 
H     2.1618843    1.3244430    2.2285566 
Pd   -0.0081562    0.5256126    0.5480090 
P    -0.4321684    0.9246081   -1.7084171 
P    -0.6279108   -1.7118224    0.2009017 
H    -0.8938947    1.1393661    2.8386565 
H    -0.2688852    3.0412860    1.3252941 
C     0.9494877   -2.4672433    5.5237043 
C    -0.3628812   -2.1820265    5.1131843 
C    -0.6094179   -1.1051468    4.2543538 
C     0.4505040   -0.3030296    3.7700735 
C     1.7616497   -0.5815848    4.2186708 
C     2.0065377   -1.6534967    5.0842788 
H     1.1456009   -3.3068706    6.1981137 
H    -1.1960279   -2.7957080    5.4713417 
H    -1.6347620   -0.8779227    3.9428564 
H     2.5989160    0.0437978    3.8944755 
H     3.0284033   -1.8538220    5.4223255 
C     3.4277640    4.6069031   -1.4506681 
C     3.7419668    3.3185434   -0.9862327 
C     2.8629010    2.6428018   -0.1326324 
C     1.6505584    3.2429238    0.2836559 
C     1.3527092    4.5415237   -0.1848585 
C     2.2309446    5.2156398   -1.0442991 
H     4.1138778    5.1331257   -2.1219531 
H     4.6729875    2.8343657   -1.2995134 
H     3.1034073    1.6239322    0.1913682 
H     0.4278910    5.0324648    0.1380146 
H     1.9823786    6.2237982   -1.3917753 
C    -1.4596395    2.3919094   -2.3353518 
C     0.9931996    1.2098783   -2.9083727 
C    -2.1212222   -2.5190551    1.0050993 
C     0.5169182   -3.1866256    0.5561915 
C    -0.5107741    3.1398366   -3.2990664 
C     0.3753569    2.1067143   -4.0017634 
C    -1.9007240   -4.0074516    0.6683270 
C    -0.4419873   -4.3236068    1.0294092 
C    -1.4106876   -0.5575130   -2.2941736 
C    -0.9527746   -1.8738986   -1.6497294 
C    -2.1206771    3.2686559   -1.2487130 
C     1.7418239   -0.0509101   -3.3969313 
C    -3.4951158   -1.8820364    0.6805639 
C     1.6607380   -2.9271734    1.5724171 
C    -2.8603565    4.4660565   -1.8743164 
C    -3.0617090    2.4451140   -0.3613584 
C     2.7550297    0.2959454   -4.5056129 
C     2.4520764   -0.7548255   -2.2320052 
C    -3.6807819   -0.5925331    1.4986101 
C    -4.6623791   -2.8528882    0.9409439 
C     2.6445713   -1.8378627    1.1251598 
C     2.4360189   -4.2286767    1.8618676 
H    -2.2636333    1.9156332   -2.9331316 
H     1.6990258    1.8291657   -2.3193115 
H    -1.9278047   -2.3988113    2.0905941 
H     0.9639983   -3.4437625   -0.4234188 
H    -1.0873676    3.7400475   -4.0228056 
H     0.1246372    3.8360768   -2.7199713 
H     1.1653484    2.5958903   -4.5963663 
H    -0.2262162    1.4925948   -4.7008966 
H    -2.1054010   -4.2019582   -0.4016073 
H    -2.5909745   -4.6486310    1.2427346 
H    -0.3722693   -4.3892577    2.1307257 
H    -0.1211813   -5.2983338    0.6263361 
H    -1.3826065   -0.6187214   -3.3975774 
H    -2.4543791   -0.3303724   -2.0082082 
H    -1.6963572   -2.6713023   -1.8246393 
H    -0.0064555   -2.2170966   -2.1012952 
H    -1.3065808    3.6667065   -0.6142826 
H     0.9975837   -0.7477748   -3.8341174 
H    -3.5178365   -1.6242169   -0.3974313 
H     1.1858427   -2.6000773    2.5163392 
H    -3.3576719    5.0615172   -1.0891617 
H    -3.6394148    4.1231834   -2.5800650 
H    -2.1756933    5.1370104   -2.4195163 
H    -2.5138387    1.6158187    0.1220565 
H    -3.5061590    3.0635244    0.4374825 
H    -3.8889260    2.0080261   -0.9511382 
H     3.4730801    1.0586390   -4.1520695 
H     3.3292430   -0.6021599   -4.7918231 
H     2.2628644    0.6810405   -5.4138098 
H     3.2636269   -0.1219071   -1.8308548 
H     2.8944056   -1.7142307   -2.5511007 
H     1.7611301   -0.9544396   -1.3958736 
H    -2.8002457    0.0680226    1.4110183 
H    -4.5674461   -0.0266701    1.1670057 
H    -3.8144192   -0.8350892    2.5687798 
H    -4.6226523   -3.7366008    0.2823550 
H    -5.6256486   -2.3446495    0.7620531 
H    -4.6576358   -3.2034156    1.9893300 
H     3.1861537   -2.1407218    0.2116457 
H     3.3922122   -1.6509528    1.9143628 
H     2.1256757   -0.8825382    0.9143782 
H     2.9017614   -4.6224506    0.9393806 
H     3.2417404   -4.0320010    2.5899984 
H     1.7942777   -5.0186008    2.2853347 
