97
Energy =
C     0.1683584    0.5986122    2.8617346 
C     1.1614531    1.3773733    2.2286978 
C     0.8133412    2.4083427    1.3032702 
H     2.2111547    1.0717030    2.3185968 
Pd    0.0145416    0.4491225    0.5878790 
P    -0.4270848    0.9029823   -1.6638523 
P    -0.5816267   -1.7769036    0.1663424 
H    -0.8570879    1.0009197    2.8786788 
H    -0.1215222    2.9532740    1.4870679 
C     0.8159597   -2.7207322    5.5185963 
C    -0.4748933   -2.4060986    5.0637524 
C    -0.6718080   -1.3046741    4.2234110 
C     0.4180516   -0.5089170    3.7998186 
C     1.7070582   -0.8185707    4.2918652 
C     1.9016659   -1.9135671    5.1410552 
H     0.9727714   -3.5789298    6.1797426 
H    -1.3301069   -3.0154669    5.3739552 
H    -1.6816510   -1.0527501    3.8800530 
H     2.5656813   -0.1999082    4.0133677 
H     2.9062325   -2.1382663    5.5136544 
C     3.6276186    4.4849279   -1.2138345 
C     2.3912030    5.0653689   -0.8911662 
C     1.4924275    4.3902449   -0.0552970 
C     1.8055386    3.1169467    0.4717622 
C     3.0578725    2.5464357    0.1402791 
C     3.9587923    3.2249302   -0.6882923 
H     4.3310380    5.0120037   -1.8662346 
H     2.1281226    6.0517183   -1.2871799 
H     0.5339119    4.8544443    0.2019339 
H     3.3194263    1.5498418    0.5118394 
H     4.9211887    2.7641023   -0.9342367 
C    -1.6369414    2.1902928   -2.3439551 
C     1.0291560    1.5454159   -2.6819368 
C    -2.1845485   -2.4900508    0.8381567 
C     0.4602022   -3.2969143    0.6323765 
C    -0.7205741    3.3138470   -2.8648652 
C     0.4267594    2.6223467   -3.6139968 
C    -1.9718734   -4.0097626    0.6890497 
C    -0.5628307   -4.3098591    1.2183374 
C    -1.1472329   -0.6639109   -2.3998827 
C    -0.6905718   -1.9492918   -1.7017034 
C    -2.8691480    2.5761437   -1.4925820 
C     1.9216426    0.4761282   -3.3512787 
C    -3.4904743   -1.8843874    0.2762874 
C     1.6641436   -3.0359585    1.5684041 
C    -2.5270738    3.2143530   -0.1397833 
C    -3.8198943    3.4769465   -2.3062999 
C     2.9776554    1.1313303   -4.2629931 
C     2.6086372   -0.4069808   -2.2977395 
C    -3.6295801   -0.4116270    0.6970353 
C    -4.7246629   -2.6887247    0.7284150 
C     2.6620291   -2.0217035    0.9923699 
C     2.3844639   -4.3541882    1.9116007 
H    -2.0271935    1.6659597   -3.2409177 
H     1.6390423    2.0671716   -1.9200859 
H    -2.1325740   -2.2529640    1.9202930 
H     0.8407463   -3.6737821   -0.3372806 
H    -1.2788236    4.0003264   -3.5238836 
H    -0.3166465    3.9106249   -2.0278538 
H     1.2055125    3.3424503   -3.9159225 
H     0.0376210    2.1497131   -4.5369244 
H    -2.0729774   -4.3111282   -0.3718367 
H    -2.7328920   -4.5743198    1.2546180 
H    -0.5683838   -4.1994704    2.3192843 
H    -0.2551770   -5.3451354    0.9958848 
H    -0.9407551   -0.6977884   -3.4845703 
H    -2.2392112   -0.5328671   -2.2834784 
H    -1.3543401   -2.7954625   -1.9549769 
H     0.3242855   -2.2294963   -2.0325719 
H    -3.4132781    1.6343437   -1.2880886 
H     1.2783595   -0.1641926   -3.9887172 
H    -3.4499411   -1.9360446   -0.8308196 
H     1.2561791   -2.6232104    2.5075383 
H    -1.9315498    2.5229745    0.4812385 
H    -3.4484603    3.4594821    0.4154239 
H    -1.9523386    4.1492588   -0.2653810 
H    -4.0611205    3.0302364   -3.2873708 
H    -4.7667087    3.6278892   -1.7599251 
H    -3.3763426    4.4725713   -2.4840652 
H     3.5958241    1.8447506   -3.6875355 
H     3.6480785    0.3628257   -4.6851045 
H     2.5195619    1.6749338   -5.1056887 
H     3.3335173    0.1841783   -1.7113233 
H     3.1515899   -1.2444789   -2.7684565 
H     1.8849693   -0.8278696   -1.5791902 
H    -2.7462886    0.1830632    0.3978547 
H    -4.5255028    0.0498559    0.2481698 
H    -3.7226352   -0.3298310    1.7957556 
H    -4.7144964   -3.7189142    0.3357413 
H    -5.6490282   -2.2033024    0.3708013 
H    -4.7763401   -2.7408216    1.8316141 
H     3.1195815   -2.3940229    0.0576237 
H     3.4753500   -1.8277357    1.7127731 
H     2.1696739   -1.0554000    0.7684893 
H     2.7742985   -4.8424343    0.9990286 
H     3.2398477   -4.1548884    2.5799610 
H     1.7220546   -5.0690028    2.4275987 
