97
Energy =
C    -0.1352470    0.7071913    2.8036882 
C     0.9671874    1.3872692    2.2275595 
C     0.7696256    2.4353476    1.2823123 
H     1.9819224    1.0028697    2.3893716 
Pd   -0.1609418    0.5113297    0.5619826 
P    -0.4325981    0.7331480   -1.7590087 
P    -0.8713365   -1.6945962    0.3021762 
H    -1.0996028    1.2386266    2.8091709 
H    -0.1472900    3.0333668    1.3841865 
C    -0.0466478   -2.6343146    5.5201950 
C    -1.2392574   -1.9395307    5.2705198 
C    -1.2437712   -0.8470216    4.3936590 
C    -0.0597528   -0.4259729    3.7438116 
C     1.1388024   -1.1216475    4.0270947 
C     1.1431276   -2.2138663    4.9009589 
H    -0.0384693   -3.4886191    6.2045593 
H    -2.1683361   -2.2454926    5.7624777 
H    -2.1770958   -0.3041085    4.2073103 
H     2.0808216   -0.8048477    3.5690964 
H     2.0820475   -2.7384711    5.1059979 
C     4.0505805    4.4346732   -0.6680691 
C     4.1733898    3.0841130   -0.2990350 
C     3.1041995    2.4198903    0.3087684 
C     1.8893473    3.0941896    0.5783024 
C     1.7769690    4.4485579    0.1909846 
C     2.8463389    5.1113425   -0.4266086 
H     4.8880041    4.9526034   -1.1462633 
H     5.1057210    2.5451605   -0.4970542 
H     3.2063823    1.3600403    0.5672611 
H     0.8508629    4.9940345    0.4017829 
H     2.7417900    6.1641709   -0.7084055 
C    -1.9624641    1.5951566   -2.4649176 
C     0.7229389    1.6034875   -2.9439409 
C    -2.0592506   -2.6164379    1.4262757 
C     0.5044689   -3.0047715    0.3994306 
C    -1.5595279    2.0031507   -3.9246009 
C    -0.0941560    1.6261546   -4.2523633 
C    -1.5447974   -4.0700459    1.3808083 
C    -0.0163313   -4.0073799    1.4600217 
C    -0.6791611   -1.0166812   -2.3986744 
C    -1.5527439   -1.8285044   -1.4304643 
C    -2.5225756    2.7873326   -1.6402325 
C     2.2113047    1.1771485   -3.0372012 
C    -3.5658137   -2.4055059    1.1588672 
C     1.9295514   -2.4626181    0.6769941 
C    -3.1561561    2.3326975   -0.3194143 
C    -1.4902913    3.8996818   -1.4023327 
C     2.4724753   -0.0922357   -3.8662464 
C     3.0435101    2.3508385   -3.5913660 
C    -3.9423323   -0.9192292    1.2567468 
C    -4.4171513   -3.2439589    2.1322637 
C     2.4735086   -1.6381403   -0.4969446 
C     2.9058369   -3.6028223    1.0244575 
H    -2.7446972    0.8147356   -2.4897821 
H     0.7171600    2.6222726   -2.5085491 
H    -1.8263589   -2.2094537    2.4302299 
H     0.4991947   -3.4992474   -0.5930791 
H    -2.2510300    1.5447882   -4.6505635 
H    -1.6854131    3.0944775   -4.0241581 
H     0.3415115    2.3410934   -4.9720484 
H    -0.0466169    0.6328423   -4.7324315 
H    -1.8697878   -4.5594205    0.4416622 
H    -1.9608493   -4.6588849    2.2158934 
H     0.2786069   -3.6538005    2.4660684 
H     0.4419732   -4.9995098    1.3117145 
H     0.3187224   -1.4770262   -2.4887065 
H    -1.1233493   -0.9908771   -3.4087217 
H    -2.5822684   -1.4272472   -1.4040106 
H    -1.6180220   -2.8870610   -1.7392491 
H    -3.3341773    3.2080972   -2.2681234 
H     2.5543259    0.9959091   -2.0022810 
H    -3.7870369   -2.7585896    0.1314976 
H     1.8541890   -1.7969205    1.5579395 
H    -3.9625003    1.5994118   -0.4903813 
H    -3.5856958    3.1887126    0.2288708 
H    -2.3966508    1.8575958    0.3358967 
H    -1.0853961    4.3096215   -2.3433178 
H    -1.9437856    4.7374132   -0.8455197 
H    -0.6417315    3.5195604   -0.8085551 
H     2.2284013    0.0643771   -4.9317240 
H     3.5408221   -0.3624434   -3.8100492 
H     1.8953790   -0.9618342   -3.5128666 
H     2.7625622    2.5823202   -4.6347428 
H     4.1184123    2.1001455   -3.5837170 
H     2.9049807    3.2600124   -2.9828916 
H    -3.3352567   -0.3002997    0.5753915 
H    -5.0053295   -0.7587988    1.0085464 
H    -3.7731984   -0.5395337    2.2806169 
H    -4.2560220   -4.3263749    1.9979846 
H    -5.4906416   -3.0434416    1.9728367 
H    -4.1761787   -2.9879662    3.1806439 
H     2.5507196   -2.2507796   -1.4136983 
H     3.4798861   -1.2440300   -0.2727151 
H     1.8210729   -0.7702679   -0.7078104 
H     2.9549437   -4.3448566    0.2062228 
H     3.9231892   -3.2009867    1.1728769 
H     2.6183259   -4.1304878    1.9488504 
