97
Energy =
C     0.2230522    0.6001092    2.8158304 
C     1.1423206    1.4763655    2.1825769 
C     0.6908189    2.4826549    1.2833166 
H     2.2152782    1.2583302    2.2414156 
Pd    0.0464151    0.4731841    0.5618249 
P    -0.0863867    0.8586662   -1.7443334 
P    -0.8582569   -1.6572937    0.1734979 
H    -0.8076904    0.9615604    2.9450378 
H    -0.3281487    2.8688204    1.4376467 
C     1.1955843   -2.8319362    5.2306138 
C    -0.1401507   -2.4546654    5.0196890 
C    -0.4360396   -1.3218229    4.2530168 
C     0.5924547   -0.5489498    3.6647556 
C     1.9324048   -0.9261203    3.9098862 
C     2.2286986   -2.0542531    4.6826763 
H     1.4311537   -3.7158729    5.8317679 
H    -0.9529302   -3.0399884    5.4622341 
H    -1.4784997   -1.0238353    4.1017615 
H     2.7559215   -0.3389014    3.4928177 
H     3.2736315   -2.3287773    4.8602663 
C     3.1435973    5.0018388   -1.2074867 
C     1.7850464    5.2911705   -1.0079364 
C     1.0071688    4.4753191   -0.1765030 
C     1.5657065    3.3477090    0.4679621 
C     2.9393386    3.0777933    0.2679381 
C     3.7179002    3.8961872   -0.5580522 
H     3.7539967    5.6375354   -1.8566933 
H     1.3306123    6.1592810   -1.4965764 
H    -0.0511096    4.7125267   -0.0201849 
H     3.4042053    2.2122446    0.7502942 
H     4.7792372    3.6679330   -0.7005095 
C    -1.4302354    2.0002375   -2.4579391 
C     1.3179081    1.6235272   -2.7437543 
C    -2.3185188   -2.4036438    1.0904378 
C     0.1659113   -3.2517136    0.2599717 
C    -0.6488983    3.0161642   -3.3262449 
C     0.5904657    2.3316408   -3.9062789 
C    -2.3169766   -3.8466619    0.5443663 
C    -0.8702669   -4.3579681    0.6450537 
C    -0.4170703   -0.8254915   -2.4873445 
C    -1.4094187   -1.6213043   -1.6237841 
C    -2.3787749    2.6447882   -1.4202393 
C     2.4713346    0.6812240   -3.1557538 
C    -3.6538386   -1.6175960    1.0620105 
C     1.3805168   -3.2235833    1.2257674 
C    -3.2828986    3.7109680   -2.0678180 
C    -3.2239469    1.5847476   -0.7081307 
C     3.5197910    1.4368372   -3.9965575 
C     3.1350057    0.0364447   -1.9315424 
C    -3.6086979   -0.4373053    2.0481237 
C    -4.8619067   -2.5206653    1.3788884 
C     2.4325688   -2.1833356    0.8272513 
C     2.0445095   -4.6133994    1.3089192 
H    -2.0305583    1.3467451   -3.1224352 
H     1.7258727    2.3982226   -2.0651656 
H    -1.9616346   -2.4479860    2.1401020 
H     0.5404817   -3.4107834   -0.7698812 
H    -1.2976310    3.4270941   -4.1180230 
H    -0.3278986    3.8618026   -2.6901398 
H     1.2557769    3.0644914   -4.3932261 
H     0.3026695    1.5895655   -4.6768636 
H    -2.6921408   -3.8674672   -0.4957236 
H    -2.9901262   -4.4911173    1.1348198 
H    -0.6880050   -4.6352850    1.6985650 
H    -0.7144401   -5.2679544    0.0427286 
H     0.5553990   -1.3491807   -2.5297373 
H    -0.7808717   -0.7228452   -3.5253130 
H    -2.4099846   -1.1530352   -1.6478482 
H    -1.5184672   -2.6501925   -2.0077263 
H    -1.7441898    3.1462147   -0.6621718 
H     2.0461303   -0.1202879   -3.7929833 
H    -3.8060058   -1.2173508    0.0406952 
H     0.9973635   -2.9675284    2.2327591 
H    -2.7048022    4.5528521   -2.4834805 
H    -3.9821602    4.1231565   -1.3199859 
H    -3.8849285    3.2720974   -2.8847715 
H    -2.5737341    0.8388095   -0.2163207 
H    -3.8625489    2.0342343    0.0705226 
H    -3.8808218    1.0552905   -1.4232688 
H     3.9116942    2.3056338   -3.4362536 
H     4.3691673    0.7728345   -4.2326190 
H     3.1056290    1.8006779   -4.9513212 
H     3.6314626    0.8036441   -1.3126992 
H     3.8950360   -0.7046215   -2.2328274 
H     2.3966621   -0.4727309   -1.2906898 
H    -2.7095203    0.1851433    1.8982939 
H    -4.4940809    0.2101467    1.9337048 
H    -3.5971155   -0.8086871    3.0890052 
H    -5.0068513   -3.3045297    0.6170612 
H    -5.7847270   -1.9164357    1.4165989 
H    -4.7423513   -3.0121601    2.3618002 
H     2.8523234   -2.4112587   -0.1688955 
H     3.2646867   -2.1759613    1.5505074 
H     2.0025749   -1.1630576    0.7945737 
H     2.4243109   -4.9264765    0.3185795 
H     2.9010227   -4.5791427    2.0039744 
H     1.3554384   -5.3933046    1.6721264 
