97
Energy =
C     0.2987786    0.5961950    2.8775134 
C     1.2412305    1.4281771    2.2296209 
C     0.8178103    2.4422087    1.3167086 
H     2.3069886    1.1752261    2.2893582 
Pd    0.1049137    0.4601584    0.6125769 
P    -0.3535176    0.9707238   -1.6086536 
P    -0.5758004   -1.7304700    0.1504298 
H    -0.7369547    0.9652365    2.9426766 
H    -0.1489170    2.9243723    1.5205273 
C     1.1312264   -2.7418975    5.4607259 
C    -0.1881259   -2.4199291    5.1038844 
C    -0.4419582   -1.3147949    4.2836831 
C     0.6165347   -0.5187936    3.7864119 
C     1.9373099   -0.8394293    4.1763196 
C     2.1895239   -1.9394319    5.0035277 
H     1.3330445   -3.6037724    6.1046100 
H    -1.0207899   -3.0274051    5.4734061 
H    -1.4740750   -1.0613324    4.0148254 
H     2.7771652   -0.2278749    3.8326701 
H     3.2185919   -2.1725756    5.2954612 
C     3.4363752    4.6819170   -1.2761705 
C     3.8456129    3.4340615   -0.7764033 
C     3.0089746    2.7059702    0.0767255 
C     1.7439342    3.2114798    0.4587608 
C     1.3536732    4.4748975   -0.0393093 
C     2.1879902    5.2003184   -0.9003545 
H     4.0894090    5.2476457   -1.9482798 
H     4.8192832    3.0221163   -1.0617458 
H     3.3296596    1.7194596    0.4276547 
H     0.3877742    4.8967922    0.2601563 
H     1.8648810    6.1781191   -1.2724657 
C    -1.5605453    2.3592015   -2.0696574 
C     1.0076544    1.5368004   -2.7760594 
C    -2.2420401   -2.2730835    0.8072010 
C     0.3105025   -3.3304655    0.6610852 
C    -0.7607318    3.2521267   -3.0516349 
C     0.2431909    2.3823763   -3.8170562 
C    -2.1705689   -3.8116853    0.7644074 
C    -0.7955298   -4.1994609    1.3250756 
C    -1.1287781   -0.5575055   -2.3681643 
C    -0.6140720   -1.8508184   -1.7199532 
C    -2.1962958    3.1228517   -0.8827923 
C     1.9299184    0.4275684   -3.3316920 
C    -3.5069528   -1.5750879    0.2337042 
C     1.5673893   -3.1644578    1.5478744 
C    -3.0865524    4.2754669   -1.3862617 
C    -2.9912262    2.1996587    0.0514686 
C     2.8934131    0.9901099   -4.3955202 
C     2.7243809   -0.2566195   -2.2081603 
C    -4.5680668   -1.4160426    1.3390937 
C    -4.1090604   -2.2849660   -0.9919918 
C     2.6218800   -2.2386418    0.9270681 
C     2.1833984   -4.5370486    1.8793382 
H    -2.3695479    1.8455775   -2.6269930 
H     1.6176190    2.2218915   -2.1542442 
H    -2.1477189   -1.9719663    1.8696722 
H     0.6116941   -3.7909092   -0.3011540 
H    -1.4421202    3.7848450   -3.7359816 
H    -0.2072756    4.0153922   -2.4735699 
H     0.9399269    3.0048411   -4.4036837 
H    -0.2811747    1.7189168   -4.5333011 
H    -2.2771564   -4.1741603   -0.2750343 
H    -2.9907028   -4.2661969    1.3487451 
H    -0.7796929   -4.0097921    2.4150707 
H    -0.5842766   -5.2715476    1.1765553 
H    -0.9629913   -0.5584598   -3.4605602 
H    -2.2160967   -0.4506739   -2.2079977 
H    -1.2126355   -2.7257090   -2.0300883 
H     0.4291790   -2.0508989   -2.0234975 
H    -1.3646211    3.5657138   -0.3027310 
H     1.2932495   -0.3326237   -3.8286188 
H    -3.2077709   -0.5564790   -0.0734513 
H     1.2314592   -2.7111822    2.4964264 
H    -3.5530115    4.8001211   -0.5346455 
H    -3.8986668    3.8917527   -2.0310563 
H    -2.5142694    5.0199388   -1.9642598 
H    -2.3446449    1.4022392    0.4703709 
H    -3.4151337    2.7655929    0.8988913 
H    -3.8293332    1.7170699   -0.4840971 
H     3.4932136    1.8186960   -3.9758769 
H     3.5906355    0.2037405   -4.7324534 
H     2.3595240    1.3661133   -5.2838669 
H     3.4566873    0.4439475   -1.7709648 
H     3.2765766   -1.1335280   -2.5875239 
H     2.0681526   -0.5919730   -1.3865095 
H    -4.1796866   -0.8136430    2.1797824 
H    -5.4703988   -0.9129640    0.9499928 
H    -4.8774696   -2.3996600    1.7368629 
H    -3.3730761   -2.4468545   -1.7977645 
H    -4.9340748   -1.6827036   -1.4099499 
H    -4.5254958   -3.2702579   -0.7186641 
H     2.9809151   -2.6274787   -0.0435671 
H     3.4937531   -2.1417050    1.5964019 
H     2.2129947   -1.2233991    0.7598668 
H     2.4995131   -5.0637988    0.9595741 
H     3.0737318   -4.4077616    2.5185736 
H     1.4783635   -5.1877094    2.4230950 
