97
Energy =
C     0.0231576    0.6395399    2.8214554 
C     1.0625030    1.3916159    2.2173607 
C     0.7597640    2.3906244    1.2459763 
H     2.1053965    1.0854680    2.3650487 
Pd   -0.0055176    0.3975587    0.5742621 
P    -0.2530846    0.7117870   -1.7231860 
P    -0.7738463   -1.7851938    0.2459530 
H    -0.9807093    1.0913554    2.8222626 
H    -0.2071072    2.9023278    1.3460442 
C     0.4082955   -2.6417449    5.5831806 
C    -0.8537752   -2.1343085    5.2381144 
C    -0.9569127   -1.0547884    4.3523359 
C     0.1955447   -0.4673729    3.7797284 
C     1.4604480   -0.9772521    4.1538114 
C     1.5636756   -2.0507722    5.0450028 
H     0.4933876   -3.4819348    6.2797271 
H    -1.7597897   -2.5739579    5.6681223 
H    -1.9441903   -0.6519190    4.0987850 
H     2.3747973   -0.5351808    3.7453772 
H     2.5525502   -2.4292110    5.3236870 
C     3.6049678    4.5206236   -1.1887036 
C     2.3217475    5.0412091   -0.9637503 
C     1.4141019    4.3473533   -0.1528273 
C     1.7646660    3.1134192    0.4427429 
C     3.0629153    2.6038310    0.2090448 
C     3.9725901    3.3027557   -0.5916045 
H     4.3169305    5.0610041   -1.8205942 
H     2.0289648    5.9953055   -1.4140725 
H     0.4200005    4.7692479    0.0328408 
H     3.3567135    1.6391580    0.6363768 
H     4.9729319    2.8909251   -0.7611069 
C    -1.7885815    1.6506960   -2.2805663 
C     0.9168901    1.6989077   -2.8392076 
C    -2.1461259   -2.6215990    1.2150536 
C     0.4542717   -3.2254025    0.4425986 
C    -1.4422641    1.9088420   -3.7614035 
C    -0.0192464    2.4896352   -3.8100344 
C    -1.8656430   -4.1192012    0.9732258 
C    -0.3615560   -4.3351641    1.1695574 
C    -0.4698462   -1.0004064   -2.4574854 
C    -1.3405957   -1.8735581   -1.5395578 
C    -1.9962980    2.9416112   -1.4273617 
C     2.0342889    0.8866019   -3.5475651 
C    -3.5955356   -2.1591014    0.9443231 
C     1.7721503   -2.8903056    1.1876656 
C    -2.8210950    4.0136620   -2.1648476 
C    -2.6564837    2.6169619   -0.0794076 
C     2.9514579    1.8261506   -4.3578293 
C     2.8891992    0.0866830   -2.5542474 
C    -3.7368041   -0.6325763    1.0208909 
C    -4.5719622   -2.8441408    1.9208640 
C     2.6232707   -1.8353600    0.4729935 
C     2.6100188   -4.1642769    1.4186460 
H    -2.6756317    0.9968833   -2.1813485 
H     1.4108869    2.4015281   -2.1429359 
H    -1.8902973   -2.3840816    2.2677012 
H     0.6950035   -3.5438524   -0.5910619 
H    -1.4794454    0.9570720   -4.3227166 
H    -2.1775071    2.5750590   -4.2429706 
H    -0.0355318    3.5527483   -3.5141536 
H     0.3736894    2.4549513   -4.8388922 
H    -2.1823380   -4.3990326   -0.0501717 
H    -2.4449370   -4.7487968    1.6702955 
H    -0.1409677   -4.2696212    2.2512830 
H    -0.0431154   -5.3356591    0.8327574 
H     0.5376209   -1.4376115   -2.5653517 
H    -0.9055929   -0.9334138   -3.4694007 
H    -2.3864843   -1.5176719   -1.5521125 
H    -1.3498921   -2.9225153   -1.8844714 
H    -0.9958446    3.3721917   -1.2218908 
H     1.5498768    0.1817609   -4.2538722 
H    -3.8668087   -2.4810722   -0.0812506 
H     1.4850007   -2.4888984    2.1775841 
H    -3.0100472    4.8691339   -1.4935528 
H    -3.8014869    3.6122734   -2.4801434 
H    -2.3057682    4.4044252   -3.0579097 
H    -2.1045371    1.8210795    0.4563465 
H    -2.6858318    3.5083586    0.5711431 
H    -3.6947562    2.2688217   -0.2241778 
H     3.4317160    2.5617481   -3.6869863 
H     3.7473286    1.2450647   -4.8547151 
H     2.4077996    2.3815431   -5.1396829 
H     2.2844451   -0.5948335   -1.9369816 
H     3.4173977    0.7680336   -1.8661574 
H     3.6443782   -0.5188455   -3.0841385 
H    -3.1081854   -0.1306606    0.2666973 
H    -4.7813771   -0.3202341    0.8509780 
H    -3.4268007   -0.2534460    2.0119691 
H    -4.5558173   -3.9422048    1.8229539 
H    -5.6054854   -2.5071808    1.7310478 
H    -4.3192490   -2.5894425    2.9668144 
H     2.9760097   -2.2042485   -0.5068280 
H     3.5132371   -1.5782816    1.0739648 
H     2.0499595   -0.9003276    0.3046167 
H     2.8742855   -4.6412448    0.4564833 
H     3.5509677   -3.9099942    1.9366257 
H     2.0835058   -4.9096374    2.0369127 
