97
Energy =
C    -0.0559052    0.7113936    2.8909462 
C     0.9374211    1.5118139    2.2777015 
C     0.5747285    2.5168150    1.3263846 
H     1.9956462    1.2456317    2.3952856 
Pd   -0.1221179    0.5283352    0.6278693 
P    -0.4660387    0.9009041   -1.6409805 
P    -0.6708164   -1.7024592    0.2336074 
H    -1.0834681    1.1085846    2.8906742 
H    -0.3890074    3.0233751    1.4812033 
C     0.4843769   -2.6077520    5.5774909 
C     1.6094084   -1.9156066    5.0989504 
C     1.4552391   -0.8230360    4.2387361 
C     0.1682313   -0.3992057    3.8326918 
C    -0.9554799   -1.0849354    4.3509237 
C    -0.8006152   -2.1814315    5.2076136 
H     0.6093977   -3.4622425    6.2502061 
H     2.6140455   -2.2278567    5.4020330 
H     2.3459204   -0.2946357    3.8839959 
H    -1.9609353   -0.7451048    4.0771178 
H    -1.6843440   -2.6987325    5.5954019 
C     3.3915584    4.7019853   -1.1013236 
C     3.6830783    3.3868602   -0.7031184 
C     2.7787303    2.6729720    0.0914989 
C     1.5619121    3.2604346    0.5131152 
C     1.2886604    4.5877112    0.1135168 
C     2.1920470    5.2999338   -0.6865009 
H     4.0974456    5.2575963   -1.7268582 
H     4.6169522    2.9119077   -1.0216690 
H     3.0060782    1.6371267    0.3673915 
H     0.3625042    5.0703228    0.4450619 
H     1.9609391    6.3288701   -0.9810845 
C    -1.3044729    2.4366003   -2.3606217 
C     1.0760080    1.0549211   -2.6942206 
C    -2.0619790   -2.5869651    1.1365804 
C     0.6194940   -3.0537851    0.5687489 
C    -0.2020714    3.0992764   -3.2255029 
C     0.6593583    1.9919900   -3.8461406 
C    -1.6281790   -4.0658483    1.0744396 
C    -0.1365531   -4.0998834    1.4290998 
C    -1.5206029   -0.5345429   -2.2134480 
C    -1.0458409   -1.8627208   -1.6020696 
C    -1.9809078    3.3755045   -1.3359658 
C     1.8505175   -0.2428628   -3.0540409 
C    -3.4984301   -2.2434594    0.6835847 
C     1.9378197   -2.5485754    1.2055889 
C    -2.5854506    4.6091155   -2.0323900 
C    -3.0397882    2.6443071   -0.4999335 
C     1.3470288   -0.9413593   -4.3292621 
C     3.3576693    0.0590893   -3.1597822 
C    -3.8179401   -0.7652628    0.9572014 
C    -4.5344792   -3.1546473    1.3701657 
C     2.7063156   -1.5818755    0.2938337 
C     2.8417710   -3.7249459    1.6200264 
H    -2.0859069    2.0272622   -3.0334272 
H     1.7200437    1.6464665   -2.0133383 
H    -1.9370333   -2.2486676    2.1849294 
H     0.8433761   -3.4926837   -0.4240701 
H    -0.6543747    3.7422102   -3.9991177 
H     0.4261211    3.7442809   -2.5824897 
H     1.5465840    2.4032131   -4.3592267 
H     0.0716334    1.4387855   -4.6022459 
H    -1.8029877   -4.4754936    0.0599146 
H    -2.2173985   -4.6798256    1.7769791 
H    -0.0172035   -3.8364434    2.4974500 
H     0.2964275   -5.1042520    1.2882692 
H    -1.5461801   -0.5797605   -3.3164456 
H    -2.5443902   -0.2911421   -1.8735770 
H    -1.7880527   -2.6650805   -1.7616255 
H    -0.1087888   -2.1941206   -2.0816895 
H    -1.1862401    3.7271880   -0.6523065 
H     1.7246500   -0.9440210   -2.2093291 
H    -3.5720911   -2.4222012   -0.4082909 
H     1.6562916   -2.0008621    2.1238228 
H    -1.8170575    5.2135262   -2.5427736 
H    -3.0862204    5.2592019   -1.2941754 
H    -3.3401801    4.3087235   -2.7825734 
H    -2.5853307    1.8111772    0.0681029 
H    -3.5107345    3.3258094    0.2293602 
H    -3.8407015    2.2272742   -1.1383528 
H     1.5523612   -0.3329229   -5.2272096 
H     1.8640705   -1.9074831   -4.4606549 
H     0.2626819   -1.1442026   -4.3049378 
H     3.5595265    0.8018528   -3.9525370 
H     3.9253326   -0.8556020   -3.4041618 
H     3.7493016    0.4608713   -2.2090906 
H    -3.0685758   -0.0974016    0.4981409 
H    -4.8098856   -0.4881703    0.5616850 
H    -3.8166733   -0.5605546    2.0436039 
H    -4.4076506   -4.2130252    1.0883011 
H    -5.5569139   -2.8527297    1.0849264 
H    -4.4548615   -3.0792401    2.4704605 
H     3.0348958   -2.0800285   -0.6365838 
H     3.6073053   -1.1977314    0.8034718 
H     2.0798499   -0.7096954    0.0188181 
H     3.0981986   -4.3550631    0.7481765 
H     3.7854515   -3.3463282    2.0497838 
H     2.3664506   -4.3667552    2.3802599 
