97
Energy =
C     1.9326975   -1.3553216    1.7112177 
C     1.4869779   -0.2265234    2.4509958 
C     0.1377666   -0.1245643    2.8857025 
H     2.1399213    0.6503812    2.5383577 
Pd    0.2278208   -0.3332735    0.6532869 
P    -1.6394784    0.8751751   -0.0547454 
P     0.4480791   -1.0730447   -1.5474009 
H     1.3947299   -2.3017783    1.8661226 
H    -0.4056643   -1.0689716    3.0429081 
C     5.7952486   -1.8251948   -0.1417503 
C     5.4506023   -0.5952394    0.4430365 
C     4.2048863   -0.4275065    1.0572083 
C     3.2735394   -1.4907494    1.1088629 
C     3.6470694   -2.7310147    0.5410111 
C     4.8888490   -2.8951035   -0.0852793 
H     6.7688401   -1.9514316   -0.6258524 
H     6.1569647    0.2409147    0.4151725 
H     3.9538125    0.5470825    1.4873740 
H     2.9530880   -3.5767221    0.6019489 
H     5.1554361   -3.8646722   -0.5188144 
C    -1.6514738    3.2447373    4.8853948 
C    -2.2160650    1.9644565    4.9897052 
C    -1.6198727    0.8775958    4.3377148 
C    -0.4464359    1.0454843    3.5675064 
C     0.1122562    2.3421379    3.4743341 
C    -0.4825883    3.4271403    4.1279594 
H    -2.1155033    4.0952713    5.3948265 
H    -3.1218220    1.8102550    5.5851468 
H    -2.0624467   -0.1204179    4.4316120 
H     1.0125795    2.5074817    2.8726632 
H    -0.0355904    4.4228232    4.0412646 
C     1.7162764   -0.3525502   -2.7571171 
C     0.8091815   -2.8562674   -1.9888686 
C    -1.6945212    2.6937222    0.4014500 
C    -3.3869521    0.4978374    0.5699546 
C     2.2062427   -1.5836168   -3.5782337 
C     1.2049119   -2.7452496   -3.4766113 
C    -3.1933561    2.9918371    0.6158940 
C    -3.7882622    1.7800954    1.3428295 
C    -1.1857700   -0.6677093   -2.3713626 
C    -1.6591528    0.7236273   -1.9209586 
C     2.8738671    0.4464671   -2.1100637 
C    -0.2645754   -3.8978005   -1.5912800 
C    -0.8743555    3.6784796   -0.4775829 
C    -3.5217440   -0.8224492    1.3638693 
C     3.8981170    0.8861648   -3.1746151 
C     2.3809238    1.6675486   -1.3217758 
C    -0.0206003   -5.2518487   -2.2854844 
C    -0.3057542   -4.0842253   -0.0639149 
C    -0.3365730    4.8353840    0.3870828 
C    -1.6538087    4.2313771   -1.6848247 
C    -3.2584296   -2.0371965    0.4641212 
C    -4.8982259   -0.9370371    2.0447693 
H     1.1357291    0.3305403   -3.4080795 
H     1.7337350   -3.0763331   -1.4167563 
H    -1.2246217    2.6711668    1.4036948 
H    -4.0095195    0.4276946   -0.3450385 
H     2.4008702   -1.3011772   -4.6260966 
H     3.1674657   -1.9199272   -3.1474526 
H     1.6626352   -3.6829351   -3.8353663 
H     0.3095307   -2.5659909   -4.1019911 
H    -3.7029353    3.1331199   -0.3549441 
H    -3.3286155    3.9217327    1.1958758 
H    -3.3853367    1.7294469    2.3711200 
H    -4.8862471    1.8518028    1.4206177 
H    -1.9139662   -1.4438885   -2.0791898 
H    -1.0783273   -0.7104694   -3.4692881 
H    -0.9634582    1.4957001   -2.2971903 
H    -2.6623832    0.9590813   -2.3174306 
H     3.3868545   -0.2349567   -1.4061854 
H    -1.2546925   -3.5293801   -1.9263291 
H     0.0047535    3.1260016   -0.8592699 
H    -2.7474296   -0.8057891    2.1559095 
H     4.3478374    0.0289812   -3.7023636 
H     4.7191977    1.4508636   -2.7003283 
H     3.4262652    1.5440918   -3.9281528 
H     1.6725069    1.3725914   -0.5200914 
H     3.2260792    2.1927497   -0.8446311 
H     1.8691018    2.3879069   -1.9870188 
H     0.9887772   -5.6381736   -2.0520189 
H    -0.7551733   -5.9969055   -1.9345661 
H    -0.1158683   -5.1788762   -3.3815271 
H     0.6345883   -4.5417011    0.2944313 
H    -1.1368565   -4.7463559    0.2318508 
H    -0.4345360   -3.1210621    0.4625405 
H     0.3179722    4.4612355    1.1929562 
H     0.2465434    5.5441549   -0.2260925 
H    -1.1642055    5.3979096    0.8558481 
H    -2.1178332    3.4385647   -2.2959509 
H    -0.9780722    4.8076455   -2.3399754 
H    -2.4583941    4.9137528   -1.3589983 
H    -4.0033078   -2.0953560   -0.3511965 
H    -3.3069974   -2.9789346    1.0366801 
H    -2.2536111   -1.9784933    0.0104139 
H    -5.7136657   -0.8799499    1.3003610 
H    -4.9874733   -1.9057881    2.5662729 
H    -5.0585793   -0.1402882    2.7901795 
