97
Energy =
C     1.7834443   -1.3110981    1.9019682 
C     1.4177127   -0.0807643    2.4940050 
C     0.0622189    0.1840390    2.8646626 
H     2.1396673    0.7455391    2.5006705 
Pd    0.1603725   -0.2520357    0.6967261 
P    -1.8852861    0.6356742    0.0191846 
P     0.5950528   -0.7883106   -1.5469662 
H     1.1079326   -2.1668251    2.0568288 
H    -0.5362882   -0.6693468    3.2146494 
C     5.6389363   -2.3679034    0.3141623 
C     4.5391242   -3.2283915    0.1651358 
C     3.2995918   -2.8817259    0.7141305 
C     3.1257910   -1.6595777    1.4051541 
C     4.2497801   -0.8197487    1.5759359 
C     5.4912591   -1.1709052    1.0339535 
H     6.6108945   -2.6373255   -0.1112085 
H     4.6517030   -4.1756580   -0.3724794 
H     2.4450952   -3.5585988    0.6058960 
H     4.1588050    0.1140168    2.1389086 
H     6.3512808   -0.5086183    1.1767775 
C    -1.3856377    4.0550235    4.0964462 
C    -0.3057854    3.9623292    3.2022153 
C     0.1745358    2.7098001    2.8040637 
C    -0.4093321    1.5184000    3.2968687 
C    -1.4882409    1.6279405    4.2016996 
C    -1.9724680    2.8827356    4.5958974 
H    -1.7636463    5.0352139    4.4040263 
H     0.1579312    4.8718564    2.8058930 
H     0.9931409    2.6530385    2.0776314 
H    -1.9443517    0.7190567    4.6095985 
H    -2.8071317    2.9444823    5.3019218 
C     2.1051126   -0.1523073   -2.5098311 
C     0.7777977   -2.5470911   -2.1803589 
C    -2.1554813    2.5010832    0.0135297 
C    -3.5318684    0.2423266    0.8769935 
C     2.4673723   -1.3154110   -3.4856597 
C     1.3117636   -2.3191554   -3.6086247 
C    -3.6746420    2.6504693    0.2408630 
C    -4.0817490    1.6230089    1.3015438 
C    -0.8508845   -0.0864916   -2.5334430 
C    -2.1492517   -0.0061513   -1.7174468 
C     3.3202591    0.2892463   -1.6515172 
C    -0.4504101   -3.4705406   -1.9871078 
C    -1.5610493    3.2780169   -1.1829689 
C    -3.4729215   -0.8180565    1.9986575 
C     4.5126791    0.6682491   -2.5532386 
C     3.0106667    1.4537662   -0.7014158 
C    -0.4253737   -4.6793110   -2.9416092 
C    -0.5226859   -3.9462805   -0.5259475 
C    -0.0285810    3.1867725   -1.1910561 
C    -2.0060782    4.7537664   -1.1665517 
C    -2.9455683   -2.1586120    1.4732862 
C    -4.8468188   -0.9921783    2.6724474 
H     1.7341631    0.7232831   -3.0767330 
H     1.6175098   -2.9523232   -1.5798724 
H    -1.6394749    2.8335076    0.9366534 
H    -4.1690235   -0.1528556    0.0593154 
H     2.7741670   -0.9200203   -4.4679942 
H     3.3381877   -1.8515544   -3.0656341 
H     1.6643693   -3.2651919   -4.0538040 
H     0.5113214   -1.9376224   -4.2706672 
H    -4.2195541    2.4655438   -0.7059101 
H    -3.9208728    3.6764159    0.5628533 
H    -3.6438478    1.9077036    2.2767737 
H    -5.1766730    1.5820779    1.4281709 
H    -1.0020660   -0.6907029   -3.4451147 
H    -0.5399108    0.9186472   -2.8658745 
H    -2.9124031    0.6033445   -2.2351102 
H    -2.5798165   -1.0150222   -1.5772190 
H     3.6208267   -0.5844678   -1.0435046 
H    -1.3668687   -2.8907123   -2.2167339 
H    -1.9501088    2.8246331   -2.1175725 
H    -2.7656588   -0.4427777    2.7618089 
H     4.8469927   -0.1690759   -3.1873950 
H     5.3712161    0.9751310   -1.9313565 
H     4.2524599    1.5164406   -3.2135325 
H     2.1627328    1.2169123   -0.0296691 
H     3.8889049    1.6779012   -0.0728211 
H     2.7551193    2.3693034   -1.2635925 
H     0.5012829   -5.2674335   -2.8093193 
H    -1.2786822   -5.3469163   -2.7307551 
H    -0.4916491   -4.3750114   -3.9995100 
H     0.3005806   -4.6526081   -0.3130726 
H    -1.4740199   -4.4627001   -0.3148196 
H    -0.4291881   -3.0993611    0.1765306 
H     0.3169019    2.1405602   -1.1374036 
H     0.3973319    3.6441893   -2.1005919 
H     0.3974676    3.7088418   -0.3157269 
H    -3.0956162    4.8614233   -1.2956183 
H    -1.5159292    5.3088105   -1.9849762 
H    -1.7222389    5.2356819   -0.2128187 
H    -3.6110808   -2.5735594    0.6934193 
H    -2.8665253   -2.9053475    2.2821699 
H    -1.9399016   -2.0351002    1.0318019 
H    -5.1892608   -0.0645109    3.1606274 
H    -5.6124791   -1.2944149    1.9342599 
H    -4.7970748   -1.7784934    3.4454375 
