97
Energy =
C     1.6991967   -1.4590167    1.8144183 
C     1.4394440   -0.2165379    2.4349232 
C     0.1150073    0.1296370    2.8546696 
H     2.2181946    0.5564840    2.4359703 
Pd    0.1115290   -0.2577444    0.6779137 
P    -1.9540244    0.6361337    0.1097927 
P     0.4654028   -0.6447094   -1.6006729 
H     0.9558208   -2.2579756    1.9636096 
H    -0.5184224   -0.6861749    3.2298988 
C     5.3987882   -2.8302147    0.1042224 
C     4.2388695   -3.6175898    0.0347052 
C     3.0517334   -3.1677988    0.6242944 
C     2.9914365   -1.9136610    1.2779328 
C     4.1785545   -1.1518589    1.3743907 
C     5.3660756   -1.6044704    0.7902513 
H     6.3297720   -3.1791418   -0.3537777 
H     4.2616872   -4.5879526   -0.4721536 
H     2.1521217   -3.7923725    0.5825351 
H     4.1775836   -0.2004094    1.9140613 
H     6.2754228   -1.0005401    0.8748266 
C    -1.0841994    4.0888301    4.0777295 
C    -0.0197509    3.9250486    3.1752919 
C     0.3838206    2.6432471    2.7852786 
C    -0.2627485    1.4914694    3.2940702 
C    -1.3226480    1.6723987    4.2101525 
C    -1.7311002    2.9566091    4.5953118 
H    -1.4027752    5.0920437    4.3782803 
H     0.4922226    4.8023697    2.7659528 
H     1.1904715    2.5337546    2.0519331 
H    -1.8248060    0.7954811    4.6336978 
H    -2.5531501    3.0725954    5.3093349 
C     1.8350946    0.2472349   -2.5331141 
C     0.9964697   -2.3310095   -2.2491837 
C    -2.2301804    2.4951426    0.1717908 
C    -3.5506096    0.2024626    1.0390352 
C     1.8500792   -0.5518194   -3.8542494 
C     1.8549329   -2.0574563   -3.5251342 
C    -3.7479912    2.6223618    0.4195680 
C    -4.1259975    1.5732037    1.4714737 
C    -1.0776279   -0.0734140   -2.5255247 
C    -2.3212842    0.0409774   -1.6293757 
C     3.1616867    0.2695196   -1.7201569 
C    -0.1106166   -3.3980626   -2.4152668 
C    -1.6459940    3.3104411   -1.0044575 
C    -3.4186841   -0.8338634    2.1790338 
C     4.3997884    0.4715135   -2.6117252 
C     3.0973294    1.3674004   -0.6453844 
C     0.5122391   -4.7642299   -2.7650567 
C    -0.9838223   -3.5218099   -1.1585612 
C    -0.1120402    3.2235845   -1.0265297 
C    -2.0945122    4.7835395   -0.9388268 
C    -2.8329588   -2.1655228    1.6890187 
C    -4.7753669   -1.0593562    2.8739017 
H     1.5159269    1.2886509   -2.7196039 
H     1.6662778   -2.6748335   -1.4386676 
H    -1.7049437    2.7973168    1.1008027 
H    -4.2067821   -0.2270089    0.2550393 
H     0.9430477   -0.2985638   -4.4332072 
H     2.7054094   -0.2667657   -4.4897867 
H     2.8869715   -2.4045390   -3.3456774 
H     1.4691288   -2.6350495   -4.3820705 
H    -4.3031876    2.4461543   -0.5229622 
H    -4.0047851    3.6392112    0.7617500 
H    -3.6855718    1.8597263    2.4449371 
H    -5.2187064    1.5100576    1.6072323 
H    -1.2752774   -0.7478515   -3.3760745 
H    -0.8165810    0.9128156   -2.9485352 
H    -3.0889833    0.6884610   -2.0907489 
H    -2.7854037   -0.9519517   -1.4886451 
H     3.2795870   -0.7054560   -1.2081299 
H    -0.7575066   -3.0900889   -3.2621840 
H    -2.0403244    2.8844119   -1.9496437 
H    -2.7245140   -0.4043723    2.9251846 
H     4.5547684   -0.3692064   -3.3087608 
H     5.3034019    0.5462584   -1.9825388 
H     4.3210865    1.4019103   -3.2036819 
H     2.2308076    1.2168797    0.0267750 
H     4.0127892    1.3721595   -0.0317387 
H     2.9929305    2.3645784   -1.1103115 
H     1.1670170   -5.1109455   -1.9440590 
H    -0.2755762   -5.5226609   -2.9134419 
H     1.1171387   -4.7234863   -3.6861346 
H    -0.3739478   -3.7990983   -0.2791653 
H    -1.7617532   -4.2936813   -1.2872736 
H    -1.4897113   -2.5723451   -0.9175027 
H     0.2368299    2.1768970   -0.9963472 
H     0.3043625    3.7015957   -1.9298918 
H     0.3179005    3.7288542   -0.1438064 
H    -3.1854695    4.8916418   -1.0556945 
H    -1.6127575    5.3655482   -1.7434229 
H    -1.8041333    5.2357477    0.0273368 
H    -3.4738416   -2.6244713    0.9136527 
H    -2.7409358   -2.8865758    2.5196667 
H    -1.8243401   -2.0204438    1.2564430 
H    -5.1631026   -0.1362101    3.3358829 
H    -5.5301604   -1.4257446    2.1538140 
H    -4.6765495   -1.8162973    3.6710712 
