97
Energy =
C     1.7028157   -1.5271379    1.7261242 
C     1.5640391   -0.2539190    2.3308350 
C     0.2899082    0.2210975    2.7569886 
H     2.4177919    0.4339773    2.3231690 
Pd    0.2599985   -0.2165482    0.5503547 
P    -1.7175651    0.8133171   -0.1273254 
P     0.5326167   -0.9411574   -1.6558014 
H     0.9150558   -2.2659920    1.9374565 
H    -0.4548583   -0.5366129    3.0379052 
C     5.2513698   -3.2989799    0.0566494 
C     4.0979815   -4.0662863    0.2751132 
C     2.9589354   -3.4743142    0.8360070 
C     2.9442223   -2.1023220    1.1839111 
C     4.1245772   -1.3500946    0.9817250 
C     5.2615645   -1.9413580    0.4225285 
H     6.1439982   -3.7570300   -0.3811760 
H     4.0859664   -5.1297148    0.0145846 
H     2.0652111   -4.0818536    1.0183108 
H     4.1561933   -0.2932107    1.2614427 
H     6.1656942   -1.3419174    0.2736783 
C    -0.5155600    4.1267317    4.3995840 
C    -1.5054991    3.1316990    4.3900069 
C    -1.2236489    1.8673771    3.8596326 
C     0.0454284    1.5685583    3.3105629 
C     1.0303597    2.5823658    3.3289951 
C     0.7548609    3.8414059    3.8738975 
H    -0.7285544    5.1138311    4.8220507 
H    -2.4956000    3.3368619    4.8103411 
H    -1.9959686    1.0901524    3.8754703 
H     2.0239330    2.3946540    2.9100168 
H     1.5359879    4.6085294    3.8834162 
C     1.8453835   -0.1420837   -2.7765206 
C     1.1069707   -2.7063823   -2.0353953 
C    -2.2224490    2.5865171    0.2228319 
C    -3.3829457    0.0844461    0.4444092 
C     2.9117735   -1.2489604   -2.9093301 
C     2.1662692   -2.5627249   -3.1500971 
C    -3.7302306    2.5570555   -0.1002475 
C    -4.3101364    1.3274875    0.6129484 
C    -1.1249770   -0.6577808   -2.4850802 
C    -1.8045378    0.6348572   -1.9974273 
C     2.3978686    1.2633875   -2.4494574 
C     0.0153272   -3.7734445   -2.2787818 
C    -1.3705207    3.7046236   -0.4220270 
C    -3.3510255   -0.8071052    1.7135167 
C     1.3356975    2.3493458   -2.6501383 
C     3.0525694    1.3685515   -1.0646294 
C     0.6480829   -5.1211570   -2.6797664 
C    -0.8723807   -3.9540891   -1.0393055 
C     0.0074520    3.7898476    0.2545184 
C    -2.0793179    5.0712827   -0.3428818 
C    -2.5262955   -2.0846540    1.5235671 
C    -4.7794228   -1.1804042    2.1620847 
H     1.3210576   -0.0744311   -3.7510611 
H     1.6484128   -2.9797827   -1.1096547 
H    -2.1097158    2.6651244    1.3249695 
H    -3.7258758   -0.5365581   -0.4058201 
H     3.6069396   -1.0055733   -3.7322773 
H     3.5111695   -1.3241439   -1.9827024 
H     2.8530408   -3.4255838   -3.1369744 
H     1.6743734   -2.5447529   -4.1419841 
H    -3.8893922    2.5095403   -1.1943927 
H    -4.2279497    3.4757653    0.2539328 
H    -4.3719813    1.5624416    1.6913387 
H    -5.3344326    1.0990447    0.2747841 
H    -1.7492205   -1.5313268   -2.2265199 
H    -1.0078085   -0.6532737   -3.5833823 
H    -1.3080343    1.5201775   -2.4277160 
H    -2.8583252    0.6623680   -2.3248105 
H     3.1912136    1.4320730   -3.2053769 
H    -0.6180797   -3.4369072   -3.1242190 
H    -1.2352042    3.4693400   -1.4964084 
H    -2.8865292   -0.2059674    2.5199993 
H     0.8785078    2.2925567   -3.6541836 
H     1.7660504    3.3572345   -2.5264378 
H     0.5378755    2.2396014   -1.8979948 
H     3.8936943    0.6657025   -0.9575432 
H     3.4352188    2.3889276   -0.8918462 
H     2.3129189    1.1435943   -0.2687205 
H     1.3583476   -5.4647675   -1.9049581 
H    -0.1343823   -5.8921057   -2.7868145 
H     1.1893099   -5.0595915   -3.6381309 
H    -1.6785364   -4.6836522   -1.2270006 
H    -1.3383329   -3.0059266   -0.7296007 
H    -0.2776293   -4.3197259   -0.1823045 
H     0.5051056    2.8046094    0.3059356 
H     0.6731668    4.4836315   -0.2861707 
H    -0.1021662    4.1542386    1.2895628 
H    -3.0120084    5.0935549   -0.9309053 
H    -1.4177171    5.8623170   -0.7361098 
H    -2.3225602    5.3264279    0.7048934 
H    -3.0043059   -2.7527828    0.7854921 
H    -2.4347340   -2.6421087    2.4718672 
H    -1.5036617   -1.8545718    1.1631949 
H    -5.3064712   -1.7308115    1.3610393 
H    -4.7396820   -1.8355560    3.0493096 
H    -5.3860766   -0.2990957    2.4264562 
