97
Energy =
C     1.8458744   -1.2900046    1.7817663 
C     1.4803167   -0.0713695    2.3987318 
C     0.1334031    0.1876683    2.7821474 
H     2.2157356    0.7398961    2.4565424 
Pd    0.2221756   -0.1524859    0.5848142 
P    -1.7351883    0.9793737   -0.0037010 
P     0.3773871   -0.8079942   -1.6721447 
H     1.1734337   -2.1476533    1.9308223 
H    -0.4911147   -0.6866779    3.0187541 
C     5.8112425   -2.4248230    0.5545571 
C     4.7669942   -3.3618150    0.5694251 
C     3.4825970   -2.9743102    0.9686300 
C     3.2086656   -1.6400730    1.3505805 
C     4.2729210   -0.7076030    1.3290654 
C     5.5579223   -1.0982572    0.9408980 
H     6.8186003   -2.7264911    0.2504143 
H     4.9562376   -4.4003920    0.2790598 
H     2.6754015   -3.7131135    0.9956768 
H     4.1008508    0.3336010    1.6178864 
H     6.3692604   -0.3630277    0.9384410 
C    -1.3573538    3.8879056    4.4125753 
C    -0.1221672    3.8695631    3.7429810 
C     0.3796973    2.6735820    3.2181746 
C    -0.3391224    1.4632063    3.3560136 
C    -1.5705396    1.4945066    4.0491052 
C    -2.0769683    2.6934682    4.5676532 
H    -1.7505589    4.8257487    4.8174584 
H     0.4503217    4.7952475    3.6239686 
H     1.3326502    2.6856557    2.6795892 
H    -2.1331039    0.5642178    4.1857988 
H    -3.0337449    2.6937600    5.1000787 
C     1.4731116    0.0952513   -2.9072901 
C     0.7652621   -2.4998483   -2.3850566 
C    -2.0670017    2.7591111    0.4952377 
C    -3.4240197    0.3210799    0.5669608 
C     1.3781746   -0.7813181   -4.1982884 
C     0.8407466   -2.2150160   -3.9068207 
C    -3.6075208    2.8289982    0.5734256 
C    -4.0964759    1.5411442    1.2457259 
C    -1.3211723   -0.4254167   -2.3825780 
C    -1.8268798    0.9286283   -1.8679285 
C     2.9364321    0.3816999   -2.4685945 
C    -0.1750188   -3.6596362   -1.9690561 
C    -1.3808167    3.8453217   -0.3639083 
C    -3.3924765   -0.9640585    1.4271717 
C     3.0150339    1.3921945   -1.3151731 
C     3.7543391   -0.8830935   -2.1680770 
C     0.0296943   -4.9013468   -2.8600752 
C     0.0294799   -4.0395123   -0.4931626 
C     0.1416141    3.6443122   -0.4234077 
C    -1.7155962    5.2514132    0.1714577 
C    -2.8172562   -2.1509439    0.6440878 
C    -4.7920269   -1.3040700    1.9743494 
H     0.9856698    1.0735442   -3.0738362 
H     1.7785727   -2.7244816   -2.0034562 
H    -1.6635955    2.8233815    1.5242653 
H    -3.9630308    0.0929142   -0.3743547 
H     0.7297090   -0.2846334   -4.9386936 
H     2.3786466   -0.8329179   -4.6602447 
H     1.4745897   -2.9737975   -4.3952544 
H    -0.1698288   -2.3340378   -4.3371575 
H    -4.0312967    2.9224954   -0.4457948 
H    -3.9300227    3.7177530    1.1419278 
H    -3.8095820    1.5624224    2.3129909 
H    -5.1949012    1.4509417    1.2016994 
H    -1.9979312   -1.2398165   -2.0686301 
H    -1.2831783   -0.4356774   -3.4851336 
H    -1.1930332    1.7477760   -2.2515131 
H    -2.8600106    1.1298604   -2.2025136 
H     3.3928074    0.8647115   -3.3568241 
H    -1.2225346   -3.3227704   -2.1046676 
H    -1.7873868    3.7730499   -1.3928956 
H    -2.7270379   -0.7657239    2.2902948 
H     2.5599441    2.3572814   -1.5950522 
H     4.0649080    1.5794054   -1.0324024 
H     2.4850158    1.0127084   -0.4195156 
H     3.7313334   -1.6026365   -3.0048330 
H     4.8094594   -0.6216489   -1.9858646 
H     3.3886488   -1.3929083   -1.2604961 
H     1.0815440   -5.2399505   -2.8237489 
H    -0.6033089   -5.7323299   -2.5037958 
H    -0.2333536   -4.7104280   -3.9135248 
H     1.0170960   -4.5144760   -0.3561665 
H    -0.7397386   -4.7560123   -0.1589787 
H    -0.0158344   -3.1562061    0.1663929 
H     0.4111721    2.6358154   -0.7839632 
H     0.6132597    4.3835644   -1.0933847 
H     0.5869199    3.7594184    0.5797054 
H    -2.7951210    5.4690665    0.1175248 
H    -1.1892404    6.0218552   -0.4179850 
H    -1.3964535    5.3495827    1.2253091 
H    -3.4503631   -2.3949676   -0.2293799 
H    -2.7489660   -3.0533775    1.2750726 
H    -1.7983417   -1.9226306    0.2795378 
H    -5.1811510   -0.5166705    2.6410374 
H    -5.5141155   -1.4412352    1.1483115 
H    -4.7593922   -2.2444177    2.5512279 
