97
Energy =
C     1.9541650   -1.2584545    1.8199487 
C     1.6011753   -0.0398050    2.4444253 
C     0.2598861    0.2024691    2.8730331 
H     2.3168388    0.7915488    2.4354524 
Pd    0.2820597   -0.2012045    0.6903630 
P    -1.7939690    0.6653565    0.1056358 
P     0.5954734   -0.7239833   -1.5683327 
H     1.2913122   -2.1215941    1.9895151 
H    -0.3177685   -0.6666612    3.2185602 
C     5.7689615   -2.2889998    0.1191246 
C     4.6751091   -3.1632382    0.0148167 
C     3.4490258   -2.8234545    0.5977698 
C     3.2827077   -1.5952562    1.2798866 
C     4.4007191   -0.7380747    1.4003816 
C     5.6288375   -1.0827840    0.8251633 
H     6.7301776   -2.5529220   -0.3331165 
H     4.7817315   -4.1156689   -0.5147278 
H     2.6001894   -3.5131693    0.5230175 
H     4.3146459    0.2065224    1.9460267 
H     6.4838855   -0.4069437    0.9286283 
C    -1.2536075    4.0162232    4.1998004 
C    -0.1167601    3.9622572    3.3757159 
C     0.3897242    2.7290059    2.9509726 
C    -0.2236289    1.5169071    3.3464972 
C    -1.3572775    1.5872761    4.1869820 
C    -1.8690623    2.8226649    4.6061312 
H    -1.6519195    4.9818921    4.5269525 
H     0.3719636    4.8882294    3.0549540 
H     1.2552365    2.7075943    2.2802223 
H    -1.8367016    0.6610837    4.5228968 
H    -2.7471397    2.8525242    5.2596577 
C     2.1533356   -0.3951918   -2.6033997 
C     0.4684729   -2.5225001   -2.0682557 
C    -2.1877442    2.4894405    0.3404273 
C    -3.3860205    0.0414987    0.9259673 
C     2.4592361   -1.7527049   -3.2992449 
C     1.1685652   -2.5715666   -3.4399048 
C    -3.7220271    2.4948417    0.5101303 
C    -4.0840400    1.3275663    1.4356200 
C    -0.7277220    0.2357745   -2.4861830 
C    -2.0513195    0.2744589   -1.7091148 
C     3.3701740    0.1848537   -1.8439539 
C    -0.9116939   -3.2207488   -1.9160547 
C    -1.6080485    3.4509747   -0.7222268 
C    -3.2046507   -1.0587284    1.9993196 
C     4.5555526    0.4030021   -2.8034924 
C     3.0466995    1.4813866   -1.0895563 
C    -1.7993307   -3.1281666   -3.1699154 
C    -0.7148545   -4.6922558   -1.5041987 
C    -0.0714496    3.4435753   -0.7061803 
C    -2.1338605    4.8854112   -0.5168900 
C    -2.5276201   -2.3178804    1.4391855 
C    -4.5540728   -1.4169549    2.6515620 
H     1.8229989    0.3416756   -3.3625197 
H     1.1582944   -2.9842220   -1.3338439 
H    -1.7302071    2.7316991    1.3203261 
H    -3.9780348   -0.3817593    0.0897041 
H     2.9421093   -1.5848067   -4.2763309 
H     3.1773890   -2.3115510   -2.6699648 
H     1.3793242   -3.6125564   -3.7439799 
H     0.5189674   -2.1340304   -4.2207780 
H    -4.2130681    2.3778308   -0.4763382 
H    -4.0657057    3.4550752    0.9305566 
H    -3.7222826    1.5527382    2.4562472 
H    -5.1753475    1.1798123    1.4961795 
H    -0.8642106   -0.1829191   -3.4989794 
H    -0.3194835    1.2545755   -2.6117503 
H    -2.7599579    0.9973268   -2.1520543 
H    -2.5429470   -0.7139948   -1.7328237 
H     3.6752094   -0.5742002   -1.1029766 
H    -1.4410982   -2.7215710   -1.0838737 
H    -1.9532917    3.1103268   -1.7196121 
H    -2.5498286   -0.6367547    2.7851325 
H     4.8789767   -0.5354370   -3.2840303 
H     5.4211986    0.8060384   -2.2500026 
H     4.2951087    1.1257023   -3.5991884 
H     2.2496149    1.3188595   -0.3382117 
H     3.9389926    1.8507071   -0.5556734 
H     2.7102579    2.2774299   -1.7788342 
H    -1.3691713   -3.7048725   -4.0073447 
H    -2.7974788   -3.5487081   -2.9580487 
H    -1.9417303   -2.0913131   -3.5186894 
H    -0.1412076   -5.2453918   -2.2700601 
H    -1.6869717   -5.2007360   -1.3815440 
H    -0.1688740   -4.7682525   -0.5468477 
H     0.3348094    2.4190836   -0.7622766 
H     0.3386049    4.0234921   -1.5507484 
H     0.3073356    3.8900078    0.2293752 
H    -3.2250436    4.9535403   -0.6594298 
H    -1.6591153    5.5726917   -1.2383331 
H    -1.8950126    5.2439435    0.5013240 
H    -3.1346588   -2.7720734    0.6345884 
H    -2.3920225   -3.0776889    2.2281950 
H    -1.5267033   -2.0820652    1.0248451 
H    -5.0087553   -0.5537012    3.1652448 
H    -5.2720536   -1.7819439    1.8941000 
H    -4.4185014   -2.2174343    3.3992751 
