97
Energy =
C     1.7594545   -1.5420003    1.8203717 
C     1.5960061   -0.2616525    2.4079703 
C     0.3238001    0.1680690    2.8866043 
H     2.4127675    0.4674257    2.3390401 
Pd    0.2253935   -0.3329776    0.6962051 
P    -1.6478582    0.8306046   -0.0848043 
P     0.5762004   -0.9695805   -1.5026823 
H     1.0256173   -2.3145969    2.0973201 
H    -0.3612200   -0.6063539    3.2593494 
C     5.2859218   -3.1588378   -0.0535159 
C     4.1809576   -3.9751725    0.2290474 
C     3.0508576   -3.4339359    0.8557534 
C     2.9955391   -2.0651238    1.2094764 
C     4.1291531   -1.2626309    0.9412999 
C     5.2573630   -1.8027062    0.3151574 
H     6.1708702   -3.5774991   -0.5432107 
H     4.1998021   -5.0379458   -0.0338778 
H     2.1946140   -4.0792960    1.0822975 
H     4.1359452   -0.2064964    1.2285364 
H     6.1234979   -1.1629839    0.1164638 
C    -0.5724528    4.1413595    4.2922073 
C     0.5337348    3.9322472    3.4516715 
C     0.8339686    2.6484435    2.9834507 
C     0.0461010    1.5354458    3.3641974 
C    -1.0602512    1.7619042    4.2145875 
C    -1.3695895    3.0502662    4.6693304 
H    -0.8088442    5.1480994    4.6508444 
H     1.1613192    4.7782373    3.1526982 
H     1.6789608    2.5131746    2.2996942 
H    -1.6747720    0.9116038    4.5314229 
H    -2.2296519    3.2008155    5.3300803 
C     1.9696503   -0.0770984   -2.4316855 
C     1.0936567   -2.6921025   -2.0240912 
C    -1.9451180    2.5804258    0.5582820 
C    -3.3473293    0.1962208    0.3994726 
C     2.8529453   -1.2349488   -2.9649057 
C     1.9619058   -2.4446548   -3.2749929 
C    -3.3514085    2.5330859    1.2159025 
C    -3.6682744    1.0848096    1.6205460 
C    -0.9840806   -0.5553671   -2.4430542 
C    -1.5700756    0.7814648   -1.9565391 
C     2.7345809    0.9935235   -1.6138420 
C    -0.0344877   -3.7411056   -2.1358122 
C    -1.6749455    3.7605961   -0.4165435 
C    -3.5354880   -1.3337029    0.5517105 
C     3.9852406    1.4823982   -2.3688628 
C     1.8411384    2.1830712   -1.2320067 
C     0.5253655   -5.0998311   -2.5996275 
C    -0.7814541   -3.8944582   -0.7997114 
C    -1.4411665    5.0573404    0.3833949 
C    -2.7740096    3.9766106   -1.4730560 
C    -5.0331211   -1.6843979    0.6509411 
C    -2.7498889   -1.9414888    1.7233060 
H     1.4718302    0.4187301   -3.2893789 
H     1.7730935   -3.0041820   -1.2058079 
H    -1.1957919    2.6503608    1.3671729 
H    -3.9927131    0.5317155   -0.4381590 
H     3.4230142   -0.9098930   -3.8513654 
H     3.5860983   -1.5168130   -2.1853355 
H     2.5708205   -3.3333864   -3.5131791 
H     1.3181545   -2.2438005   -4.1537523 
H    -4.1156085    2.8754274    0.4965208 
H    -3.3856949    3.2120063    2.0843678 
H    -3.0413177    0.7869423    2.4806646 
H    -4.7225252    0.9721780    1.9269540 
H    -1.6983951   -1.3772244   -2.2578586 
H    -0.7823190   -0.5317505   -3.5288286 
H    -0.9339341    1.6253237   -2.2776354 
H    -2.5764510    0.9449972   -2.3786835 
H     3.0687565    0.5040218   -0.6792277 
H    -0.7541434   -3.3961595   -2.9051577 
H    -0.7295139    3.5332564   -0.9457098 
H    -3.1559014   -1.7954440   -0.3814711 
H     4.7113870    0.6700041   -2.5381715 
H     4.4967141    2.2711617   -1.7903963 
H     3.7129317    1.9100819   -3.3515486 
H     0.9883058    1.8539594   -0.6073761 
H     2.4054387    2.9299162   -0.6469500 
H     1.4445055    2.6907922   -2.1310239 
H     1.3074496   -5.4573199   -1.9044625 
H    -0.2767512   -5.8573832   -2.6254154 
H     0.9644158   -5.0431411   -3.6094573 
H    -0.1032466   -4.2770404   -0.0156184 
H    -1.6240787   -4.6005837   -0.8925986 
H    -1.1824856   -2.9308495   -0.4400308 
H    -0.6041416    4.9438843    1.0923536 
H    -1.2105255    5.8960987   -0.2960593 
H    -2.3408739    5.3321378    0.9627362 
H    -3.0511267    3.0481169   -2.0000706 
H    -2.4330024    4.7024866   -2.2308935 
H    -3.6920302    4.3881388   -1.0184089 
H    -5.4769952   -1.2860395    1.5804789 
H    -5.1737637   -2.7789890    0.6581587 
H    -5.6014578   -1.2733623   -0.2020448 
H    -3.1067976   -1.5573321    2.6950293 
H    -2.8586976   -3.0391093    1.7339953 
H    -1.6694734   -1.7102325    1.6378328 
