97
Energy =
C     1.6613705   -1.5505911    1.7912049 
C     1.5002006   -0.2563528    2.3467887 
C     0.2361094    0.1784098    2.8410814 
H     2.3132319    0.4744769    2.2540023 
Pd    0.0991371   -0.3875087    0.6628782 
P    -1.8381992    0.6424324   -0.1700918 
P     0.5355806   -1.0443602   -1.5312002 
H     0.9309444   -2.3168243    2.0942069 
H    -0.4308367   -0.5919955    3.2538156 
C     5.1984089   -3.2238578   -0.0096944 
C     4.0941713   -4.0324539    0.2971147 
C     2.9586231   -3.4709491    0.8951910 
C     2.8981770   -2.0900726    1.1969491 
C     4.0305959   -1.2944475    0.9046625 
C     5.1637745   -1.8545119    0.3057501 
H     6.0875515   -3.6582546   -0.4776115 
H     4.1174158   -5.1042432    0.0744281 
H     2.1014384   -4.1087766    1.1382094 
H     4.0337217   -0.2286168    1.1528203 
H     6.0292305   -1.2202532    0.0876615 
C    -0.3984155    4.1581947    4.3659133 
C     0.5407586    3.9417231    3.3430217 
C     0.7329073    2.6585566    2.8230617 
C     0.0020307    1.5550612    3.3245546 
C    -0.9469125    1.7904587    4.3448183 
C    -1.1456141    3.0789515    4.8591991 
H    -0.5494326    5.1641907    4.7700305 
H     1.1177253    4.7818802    2.9428484 
H     1.4502150    2.5102070    2.0082028 
H    -1.5145589    0.9492883    4.7570703 
H    -1.8784047    3.2372315    5.6571938 
C     1.9007958   -0.0583215   -2.4160883 
C     1.1627436   -2.7269585   -2.0787066 
C    -2.5040530    2.3240189    0.3041825 
C    -3.5261272   -0.1897119    0.0292459 
C     2.8602582   -1.1535741   -2.9465432 
C     2.0470220   -2.4025363   -3.3003383 
C    -3.8896002    2.3387301   -0.3743722 
C    -4.5706272    0.9648917   -0.1591944 
C    -1.0218771   -0.7047637   -2.5026726 
C    -1.6467294    0.6199912   -2.0394934 
C     2.5911637    1.0411212   -1.5695723 
C     0.1000776   -3.8320898   -2.2656047 
C    -1.6169057    3.5866389    0.1481542 
C    -3.7470226   -0.9927885    1.3411896 
C     3.8564591    1.5753469   -2.2679305 
C     1.6399236    2.1979994   -1.2369062 
C     0.7524716   -5.1426735   -2.7473197 
C    -0.6870525   -4.0680383   -0.9675130 
C    -2.1235085    4.6864202    1.1024915 
C    -1.5169995    4.1367521   -1.2850623 
C    -3.5455060   -0.1511613    2.6102739 
C    -2.9005698   -2.2710462    1.3881032 
H     1.3941611    0.4216720   -3.2776698 
H     1.8334939   -3.0298363   -1.2503756 
H    -2.6475257    2.1765404    1.3928933 
H    -3.5935911   -0.9048515   -0.8106700 
H     3.4329540   -0.7797242   -3.8118462 
H     3.5883473   -1.4097783   -2.1537258 
H     2.7095105   -3.2513847   -3.5406440 
H     1.4136235   -2.2198013   -4.1905638 
H    -3.7688877    2.5477936   -1.4519581 
H    -4.5147333    3.1526219    0.0326035 
H    -5.2020389    1.0088832    0.7442774 
H    -5.2470758    0.7305236   -0.9975194 
H    -1.7107790   -1.5481922   -2.3131864 
H    -0.8067844   -0.6906100   -3.5861009 
H    -0.9942222    1.4655083   -2.3132285 
H    -2.6251545    0.7880206   -2.5218858 
H     2.9000692    0.5674335   -0.6182588 
H    -0.6075399   -3.5015172   -3.0522795 
H    -0.6031072    3.3049920    0.4863167 
H    -4.8113840   -1.3023539    1.3065940 
H     4.6229635    0.7932882   -2.3967067 
H     4.3063408    2.3876595   -1.6711377 
H     3.6144089    1.9868227   -3.2652392 
H     0.7620148    1.8385596   -0.6679496 
H     2.1431413    2.9595615   -0.6162635 
H     1.2820256    2.6981176   -2.1552675 
H     1.5305979   -5.4753177   -2.0354918 
H    -0.0039565   -5.9429764   -2.8203158 
H     1.2199134   -5.0334422   -3.7399014 
H    -1.4864858   -4.8141697   -1.1143113 
H    -1.1514016   -3.1382513   -0.5988186 
H    -0.0205699   -4.4391582   -0.1680504 
H    -2.1577567    4.3256774    2.1440024 
H    -1.4544189    5.5637839    1.0711392 
H    -3.1350294    5.0280097    0.8175001 
H    -1.1647577    3.3851461   -2.0096734 
H    -0.8049354    4.9791938   -1.3136549 
H    -2.4910245    4.5171921   -1.6398703 
H    -2.5057383    0.2122121    2.6728382 
H    -3.7471070   -0.7543044    3.5119580 
H    -4.2116516    0.7278427    2.6455338 
H    -1.8182524   -2.0247401    1.3749282 
H    -3.1036064   -2.8470779    2.3072776 
H    -3.1093325   -2.9248083    0.5242977 
