97
Energy =
C     1.7579776   -1.4403179    1.8160183 
C     1.5509445   -0.1702958    2.4097242 
C     0.2530349    0.2074210    2.8627932 
H     2.3504179    0.5799457    2.3730952 
Pd    0.2055050   -0.2409843    0.6650038 
P    -1.7302319    0.8370695   -0.0556523 
P     0.4727119   -0.9254601   -1.5450067 
H     1.0218631   -2.2232278    2.0566533 
H    -0.4060527   -0.6023111    3.2039050 
C     5.3500868   -3.0076868    0.0382110 
C     4.2460252   -3.8375140    0.2822963 
C     3.0938506   -3.3119270    0.8807245 
C     3.0148613   -1.9448627    1.2403759 
C     4.1476766   -1.1293662    1.0133331 
C     5.2982175   -1.6548034    0.4170475 
H     6.2531318   -3.4138512   -0.4284845 
H     4.2839338   -4.8983769    0.0138465 
H     2.2405099   -3.9686347    1.0850162 
H     4.1322409   -0.0749912    1.3032901 
H     6.1648202   -1.0067309    0.2497546 
C    -0.9577178    4.1067215    4.2325851 
C    -1.7203564    2.9686441    4.5374536 
C    -1.3001279    1.7046064    4.1046029 
C    -0.1137747    1.5492615    3.3502833 
C     0.6453079    2.7053219    3.0540290 
C     0.2301235    3.9667535    3.4953198 
H    -1.2823799    5.0957703    4.5710783 
H    -2.6419308    3.0649031    5.1208305 
H    -1.8943539    0.8180713    4.3539707 
H     1.5564533    2.6221718    2.4522999 
H     0.8319794    4.8496010    3.2556311 
C     1.7381116   -0.1088681   -2.6911817 
C     1.0565803   -2.6736531   -1.9070495 
C    -2.1304234    2.5732645    0.5574832 
C    -3.4402367    0.1338525    0.3506043 
C     2.8135803   -1.2037796   -2.8621795 
C     2.0626555   -2.5280994   -3.0705095 
C    -3.6417188    2.5399512    0.8831483 
C    -3.9878032    1.1334340    1.3918717 
C    -1.1613030   -0.5814576   -2.3916028 
C    -1.6827422    0.7949197   -1.9282781 
C     2.2039651    1.3272082   -2.3545745 
C    -0.0483369   -3.7448306   -2.0384675 
C    -1.6384054    3.7319009   -0.3398521 
C    -3.5656797   -1.3778334    0.6632598 
C     2.9377850    1.4463781   -1.0126779 
C     3.0535926    1.9038489   -3.5038142 
C     0.5467095   -5.1057583   -2.4477229 
C    -0.8329203   -3.8762841   -0.7208801 
C    -0.1024315    3.7417391   -0.4279377 
C    -2.1481591    5.0889627    0.1832081 
C    -5.0496017   -1.7809813    0.7726695 
C    -2.7773019   -1.8354650    1.8978052 
H     1.1841758   -0.0514063   -3.6498003 
H     1.6507454   -2.9102928   -1.0030281 
H    -1.5798271    2.6276706    1.5161882 
H    -3.9993852    0.3128569   -0.5897029 
H     3.4739891   -0.9713217   -3.7149981 
H     3.4491600   -1.2715792   -1.9590907 
H     2.7553854   -3.3864054   -3.0879804 
H     1.5286438   -2.5131647   -4.0404801 
H    -4.2299094    2.7630413   -0.0280621 
H    -3.8875299    3.3121446    1.6313926 
H    -3.5137037    0.9657123    2.3762539 
H    -5.0757736    1.0047873    1.5227652 
H    -1.8705869   -1.3802787   -2.1105615 
H    -1.0391364   -0.6162354   -3.4886544 
H    -1.0107537    1.5998887   -2.2745368 
H    -2.6872885    1.0029133   -2.3371320 
H     1.2876033    1.9444733   -2.2901905 
H    -0.7473193   -3.4294423   -2.8392246 
H    -2.0575254    3.5841044   -1.3556814 
H    -3.1495519   -1.9144739   -0.2117240 
H     2.3174537    1.0426039   -0.1884770 
H     3.1579149    2.5035553   -0.7852468 
H     3.8928196    0.8949671   -1.0275681 
H     2.5301115    1.8265418   -4.4733746 
H     3.2746019    2.9695408   -3.3208090 
H     4.0187724    1.3747437   -3.5933382 
H     1.3092145   -5.4339939   -1.7172424 
H    -0.2431850   -5.8758179   -2.4813798 
H     1.0198908   -5.0673001   -3.4429320 
H    -0.1789500   -4.2629378    0.0820060 
H    -1.6835326   -4.5707026   -0.8278669 
H    -1.2269565   -2.9038225   -0.3762874 
H     0.3037624    2.7430010   -0.6679467 
H     0.2506458    4.4509036   -1.1960268 
H     0.3323954    4.0393591    0.5411661 
H    -3.2478455    5.1617677    0.1465260 
H    -1.7376651    5.9120136   -0.4270185 
H    -1.8257633    5.2451044    1.2290774 
H    -5.5193646   -1.3431950    1.6711098 
H    -5.1449546   -2.8777371    0.8492723 
H    -5.6257006   -1.4499106   -0.1096726 
H    -3.1213971   -1.3258873    2.8153722 
H    -2.8958544   -2.9215162    2.0510640 
H    -1.6984890   -1.6276426    1.7704893 
