97
Energy =
C     1.6776308   -1.5439946    1.8488368 
C     1.4605914   -0.2890144    2.4769190 
C     0.1484195    0.0894601    2.8865007 
H     2.2669733    0.4545589    2.4911778 
Pd    0.1829930   -0.3105013    0.6905872 
P    -1.7285081    0.8229441   -0.0198495 
P     0.4316383   -1.0323692   -1.5172109 
H     0.9450339   -2.3371355    2.0639644 
H    -0.5378803   -0.7262771    3.1575792 
C     5.3008100   -3.0464895    0.0743201 
C     4.2232927   -3.9020350    0.3463299 
C     3.0607577   -3.3964903    0.9420351 
C     2.9465936   -2.0262071    1.2765581 
C     4.0521642   -1.1828388    1.0189166 
C     5.2119055   -1.6874138    0.4224221 
H     6.2109566   -3.4363481   -0.3925457 
H     4.2884988   -4.9666410    0.0986395 
H     2.2251191   -4.0708103    1.1599595 
H     4.0080719   -0.1218996    1.2812359 
H     6.0565618   -1.0174639    0.2306436 
C    -1.0731667    3.9493924    4.3663760 
C    -1.8766623    2.8163287    4.5659280 
C    -1.4556456    1.5657127    4.0971640 
C    -0.2299229    1.4185317    3.4069842 
C     0.5710730    2.5680745    3.2211704 
C     0.1561748    3.8157132    3.7000758 
H    -1.3964692    4.9278937    4.7355047 
H    -2.8291267    2.9044123    5.0989186 
H    -2.0800123    0.6834293    4.2765997 
H     1.5194054    2.4936924    2.6793114 
H     0.7942903    4.6926796    3.5488031 
C     1.5443416   -0.0548849   -2.6987855 
C     1.1438276   -2.7103742   -1.9970035 
C    -2.0584657    2.6506830    0.2778501 
C    -3.4400311    0.2528797    0.5899229 
C     2.6818555   -1.0464334   -3.0229081 
C     2.0330923   -2.4199355   -3.2281053 
C    -3.5947642    2.7383227    0.1637056 
C    -4.1701106    1.5689368    0.9706503 
C    -1.2747777   -0.8303946   -2.2563896 
C    -1.8203331    0.5604400   -1.8769987 
C     1.9528010    1.3758915   -2.2762300 
C     0.1357964   -3.8740269   -2.1444412 
C    -1.2263206    3.6457471   -0.5671607 
C    -3.4528812   -0.8113570    1.7131294 
C     2.8620509    1.4104318   -1.0408295 
C     2.5914474    2.1307366   -3.4578779 
C     0.8303191   -5.1396227   -2.6845020 
C    -0.5590062   -4.1796395   -0.8084837 
C     0.2364725    3.6657673   -0.0941749 
C    -1.8172903    5.0681696   -0.5156336 
C    -2.7673889   -2.1123145    1.2831772 
C    -4.8926186   -1.0945711    2.1857605 
H     0.9159464    0.0350521   -3.6078386 
H     1.8177968   -2.9429861   -1.1488259 
H    -1.7867352    2.7890220    1.3452447 
H    -3.9183061   -0.1872832   -0.3073476 
H     3.2421616   -0.7200955   -3.9157745 
H     3.3987325   -1.0982962   -2.1823631 
H     2.7922861   -3.2111157   -3.3478659 
H     1.4151153   -2.4148316   -4.1471799 
H    -3.9042880    2.6786915   -0.8980292 
H    -3.9628726    3.7024239    0.5535402 
H    -4.0020175    1.7660723    2.0463073 
H    -5.2580820    1.4657694    0.8226826 
H    -1.9187664   -1.6288907   -1.8448960 
H    -1.2398174   -0.9593607   -3.3529784 
H    -1.2122742    1.3514120   -2.3517893 
H    -2.8587903    0.6926999   -2.2283003 
H     1.0179700    1.9069163   -2.0174478 
H    -0.6336351   -3.5721773   -2.8833980 
H    -1.2565385    3.3176731   -1.6253890 
H    -2.8902437   -0.3892307    2.5676865 
H     2.3819076    0.8902549   -0.1897891 
H     3.0621518    2.4508707   -0.7341770 
H     3.8328339    0.9239558   -1.2368980 
H     1.9353991    2.1210577   -4.3464878 
H     2.7786499    3.1837858   -3.1849710 
H     3.5603698    1.6846871   -3.7441502 
H     1.6677403   -5.4359329   -2.0258223 
H     0.1158459   -5.9799737   -2.7216633 
H     1.2288286   -4.9948527   -3.7021903 
H     0.1694552   -4.5622203   -0.0711802 
H    -1.3452683   -4.9435535   -0.9328422 
H    -1.0243218   -3.2807115   -0.3740863 
H     0.6302208    2.6446097    0.0515496 
H     0.8836728    4.1899771   -0.8178444 
H     0.3129902    4.1862468    0.8749239 
H    -2.8169607    5.1227132   -0.9776419 
H    -1.1598088    5.7698718   -1.0575427 
H    -1.8979426    5.4202368    0.5292179 
H    -3.2843597   -2.5696037    0.4195682 
H    -2.7589113   -2.8522871    2.1020424 
H    -1.7143115   -1.9219026    0.9923056 
H    -5.5159892   -1.4568378    1.3474034 
H    -4.8921932   -1.8754366    2.9656193 
H    -5.3772183   -0.1997659    2.6100917 
