97
Energy =
C     1.9021625   -1.2640816    1.7674295 
C     1.5188510   -0.0718030    2.4342684 
C     0.1781198    0.1226995    2.8701856 
H     2.2115538    0.7779808    2.4489912 
Pd    0.2194349   -0.2199006    0.6673676 
P    -1.7094614    0.9342888    0.0093948 
P     0.4303335   -0.9617540   -1.5492854 
H     1.3040928   -2.1655654    1.9666271 
H    -0.4055226   -0.7800019    3.1065436 
C     5.7084481   -2.0577377   -0.0869721 
C     4.6962675   -3.0305775   -0.0746405 
C     3.4748853   -2.7636213    0.5544390 
C     3.2284043   -1.5144718    1.1709387 
C     4.2676501   -0.5564452    1.1739763 
C     5.4915100   -0.8257595    0.5514510 
H     6.6659970   -2.2635863   -0.5757637 
H     4.8633622   -4.0035773   -0.5483078 
H     2.6930530   -3.5296219    0.5730128 
H     4.1242431    0.4116864    1.6629784 
H     6.2833402   -0.0697202    0.5655408 
C    -1.5061243    3.7500377    4.4740065 
C    -2.1891906    2.5292650    4.5848108 
C    -1.6175161    1.3551555    4.0782301 
C    -0.3548219    1.3744481    3.4426927 
C     0.3264859    2.6101889    3.3503612 
C    -0.2420358    3.7821436    3.8615999 
H    -1.9501266    4.6690282    4.8695065 
H    -3.1682321    2.4899190    5.0735146 
H    -2.1540989    0.4047363    4.1758475 
H     1.3043655    2.6621114    2.8615697 
H     0.3021734    4.7285435    3.7779985 
C     1.7363751   -0.2861589   -2.7475181 
C     0.6909590   -2.7445767   -2.0819589 
C    -2.0636577    2.7171516    0.5108130 
C    -3.4321826    0.2878435    0.4915040 
C     1.9853678   -1.4591408   -3.7516820 
C     0.9420891   -2.5777899   -3.5950516 
C    -3.6052805    2.7895323    0.5288152 
C    -4.1208007    1.4983889    1.1675777 
C    -1.1834019   -0.4632642   -2.3757028 
C    -1.6675389    0.9017327   -1.8599454 
C     3.0524351    0.2184163   -2.0973458 
C    -0.3674409   -3.7835168   -1.6319911 
C    -1.3561978    3.8228489   -0.3046799 
C    -3.4465721   -1.0077704    1.3361094 
C     4.0812715    0.6093114   -3.1782473 
C     2.8326724    1.4065593   -1.1552350 
C    -0.3458537   -5.0476721   -2.5133739 
C    -0.1555637   -4.1691777   -0.1575801 
C     0.1698406    3.6690870   -0.2558426 
C    -1.7691402    5.2204318    0.1986040 
C    -2.8856842   -2.1921982    0.5437119 
C    -4.8615397   -1.3269227    1.8553666 
H     1.2481738    0.5665954   -3.2581361 
H     1.6613309   -3.0087483   -1.6132830 
H    -1.7008343    2.7683132    1.5562679 
H    -3.9357934    0.0816180   -0.4744408 
H     2.0329275   -1.0853907   -4.7877181 
H     2.9746231   -1.8927676   -3.5210342 
H     1.3208608   -3.5153104   -4.0361599 
H    -0.0016812   -2.3405721   -4.1202846 
H    -3.9882990    2.8940742   -0.5054589 
H    -3.9467955    3.6737336    1.0930242 
H    -3.8664202    1.5029930    2.2436384 
H    -5.2175970    1.4125424    1.0885524 
H    -1.9231123   -1.2514603   -2.1462039 
H    -1.0568330   -0.4405894   -3.4717623 
H    -0.9676301    1.6973033   -2.1738416 
H    -2.6608532    1.1563234   -2.2707649 
H     3.4753253   -0.6207559   -1.5111811 
H    -1.3728297   -3.3311368   -1.7365137 
H    -1.6886440    3.7348546   -1.3587959 
H    -2.7891780   -0.8362580    2.2117645 
H     4.3436201   -0.2319166   -3.8404429 
H     5.0132316    0.9572893   -2.7006348 
H     3.6951451    1.4325945   -3.8075537 
H     2.1275535    1.1526310   -0.3393152 
H     3.7845654    1.7178545   -0.6941781 
H     2.4242052    2.2731918   -1.7052433 
H     0.6557534   -5.5154229   -2.5110104 
H    -1.0635264   -5.7906881   -2.1247918 
H    -0.6224859   -4.8312450   -3.5585507 
H     0.7789023   -4.7483789   -0.0444159 
H    -0.9842601   -4.7960276    0.2118232 
H    -0.0857850   -3.2789812    0.4912769 
H     0.4859458    2.6594806   -0.5645480 
H     0.6662639    4.4004832   -0.9163504 
H     0.5415435    3.8281694    0.7711346 
H    -2.8443194    5.4157375    0.0525931 
H    -1.2109272    6.0017474   -0.3455132 
H    -1.5417169    5.3263479    1.2754576 
H    -3.5110681   -2.4077079   -0.3426411 
H    -2.8432391   -3.1058852    1.1597571 
H    -1.8583834   -1.9748397    0.1990218 
H    -5.5734504   -1.4331087    1.0160735 
H    -4.8572962   -2.2788015    2.4140402 
H    -5.2447718   -0.5450086    2.5316828 
