97
Energy =
C     1.9127099   -1.3351446    1.7742532 
C     1.6080092   -0.0930328    2.3723497 
C     0.2893147    0.1999987    2.8367353 
H     2.3487249    0.7145203    2.3219595 
Pd    0.2360210   -0.2630163    0.6525282 
P    -1.8406156    0.6116539    0.0245430 
P     0.6223043   -0.7385541   -1.6083087 
H     1.2196107   -2.1710959    1.9599103 
H    -0.2996008   -0.6357575    3.2361982 
C     5.6801871   -2.5006409    0.0583591 
C     4.5449267   -3.3155321   -0.0806930 
C     3.3343158   -2.9359343    0.5096336 
C     3.2248987   -1.7234691    1.2297066 
C     4.3842075   -0.9295480    1.3884644 
C     5.5973849   -1.3155387    0.8076912 
H     6.6297808   -2.7968299   -0.3985024 
H     4.6077064   -4.2535661   -0.6420654 
H     2.4527874   -3.5796837    0.4115357 
H     4.3419999   -0.0043000    1.9711978 
H     6.4854774   -0.6895125    0.9415429 
C    -1.0409234    4.0956628    4.1108219 
C    -1.6983583    2.9356739    4.5489805 
C    -1.2449480    1.6733513    4.1448643 
C    -0.1285947    1.5415134    3.2883508 
C     0.5256980    2.7205333    2.8575432 
C     0.0772886    3.9810412    3.2681461 
H    -1.3937821    5.0825164    4.4268247 
H    -2.5644456    3.0140498    5.2143370 
H    -1.7556306    0.7715321    4.5004609 
H     1.3773619    2.6527705    2.1721846 
H     0.5964857    4.8804027    2.9208416 
C     2.1804703   -0.2494271   -2.5808550 
C     0.6105144   -2.5091769   -2.2361592 
C    -2.1268155    2.4380426    0.4169257 
C    -3.5375734    0.0749733    0.6688495 
C     2.5401462   -1.5148951   -3.4083363 
C     1.2948619   -2.3885258   -3.6124622 
C    -3.6010506    2.5266174    0.8754063 
C    -3.9522395    1.2241344    1.6074437 
C    -0.7218183    0.1530652   -2.5723482 
C    -2.0442960    0.2585958   -1.8056610 
C     3.3652369    0.2895591   -1.7447324 
C    -0.7436035   -3.2503163   -2.1643961 
C    -1.6796534    3.4484274   -0.6635061 
C    -3.7216478   -1.3813521    1.1557621 
C     4.5760505    0.5946092   -2.6476919 
C     2.9988158    1.5277131   -0.9145547 
C    -0.6885814   -4.5988102   -2.9082835 
C    -1.1669425   -3.4641881   -0.7013266 
C    -0.1598299    3.3846281   -0.8828099 
C    -2.1006521    4.8824775   -0.2860722 
C    -5.2103119   -1.6657807    1.4394929 
C    -2.8482694   -1.7600813    2.3591695 
H     1.8348524    0.5525238   -3.2623513 
H     1.3208603   -3.0228604   -1.5569390 
H    -1.4903066    2.5918023    1.3090854 
H    -4.1579099    0.1805402   -0.2454171 
H     3.0026680   -1.2325678   -4.3687215 
H     3.2911408   -2.0974466   -2.8417871 
H     1.5712328   -3.3814964   -4.0065381 
H     0.6036476   -1.9335187   -4.3485415 
H    -4.2639343    2.6503675   -0.0030877 
H    -3.7451453    3.4073174    1.5234003 
H    -3.3999362    1.1698456    2.5624256 
H    -5.0288819    1.1689482    1.8421437 
H    -0.8673360   -0.3455844   -3.5475094 
H    -0.3166690    1.1574406   -2.7848829 
H    -2.7160651    1.0089901   -2.2597632 
H    -2.5790057   -0.7091714   -1.8298854 
H     3.6600442   -0.5163416   -1.0503762 
H    -1.5090108   -2.6261538   -2.6688366 
H    -2.1884876    3.1885814   -1.6143063 
H    -3.4241962   -2.0317525    0.3111089 
H     4.9361852   -0.3020107   -3.1790948 
H     5.4142148    0.9772730   -2.0400102 
H     4.3249792    1.3641706   -3.4013376 
H     2.1502996    1.3197770   -0.2339083 
H     3.8563428    1.8469234   -0.2973536 
H     2.7136413    2.3764065   -1.5626757 
H     0.1149459   -5.2396498   -2.5006741 
H    -1.6431862   -5.1397151   -2.7894486 
H    -0.5101337   -4.4691000   -3.9885970 
H    -0.4488845   -4.1263018   -0.1832188 
H    -2.1634717   -3.9331077   -0.6374823 
H    -1.1962183   -2.5104705   -0.1414653 
H     0.1843976    2.3541159   -1.0737843 
H     0.1494531    4.0135015   -1.7352144 
H     0.3755657    3.7389953    0.0154342 
H    -3.1964127    4.9955979   -0.2407429 
H    -1.7204558    5.6013506   -1.0323745 
H    -1.6839915    5.1611922    0.6993515 
H    -5.5646210   -1.1081959    2.3244696 
H    -5.3642429   -2.7399602    1.6401413 
H    -5.8472351   -1.3855317    0.5816345 
H    -1.7770707   -1.6499840    2.1171432 
H    -3.0711525   -1.1287165    3.2376913 
H    -3.0236235   -2.8103770    2.6480471 
