97
Energy =
C     1.8668602   -1.2843651    1.7794466 
C     1.5383932   -0.0801097    2.4558886 
C     0.2051507    0.1654341    2.8904121 
H     2.2678992    0.7382391    2.4791603 
Pd    0.2392622   -0.1686671    0.6875664 
P    -1.6973047    0.9680619    0.0515027 
P     0.4116847   -0.9126268   -1.5270939 
H     1.2274181   -2.1591996    1.9729325 
H    -0.4081684   -0.7155886    3.1323664 
C     5.6196590   -2.2715188   -0.0865492 
C     4.5873929   -3.2183799    0.0024525 
C     3.3843145   -2.8847164    0.6355151 
C     3.1767647   -1.5953578    1.1779458 
C     4.2352701   -0.6613989    1.1022843 
C     5.4412178   -0.9973379    0.4778333 
H     6.5633902   -2.5285104   -0.5779886 
H     4.7234263   -4.2221737   -0.4135200 
H     2.5862154   -3.6306800    0.7188555 
H     4.1185927    0.3403511    1.5264209 
H     6.2490116   -0.2597611    0.4295128 
C    -1.3645900    3.8571568    4.4627758 
C    -2.0678824    2.6529482    4.6181546 
C    -1.5322965    1.4570557    4.1228145 
C    -0.2869675    1.4381401    3.4537434 
C     0.4141763    2.6580571    3.3142946 
C    -0.1173850    3.8513203    3.8156564 
H    -1.7801256    4.7930950    4.8493832 
H    -3.0341919    2.6433516    5.1329938 
H    -2.0838119    0.5196855    4.2566756 
H     1.3762501    2.6801760    2.7925297 
H     0.4413230    4.7852787    3.6954871 
C     1.6915443   -0.2442580   -2.7565843 
C     0.7789808   -2.6902930   -1.9737249 
C    -2.1189551    2.7315692    0.5547466 
C    -3.3747713    0.2364883    0.5664973 
C     1.9590842   -1.4364962   -3.7397899 
C     0.9864831   -2.6049400   -3.4976853 
C    -3.6627439    2.7362504    0.5684701 
C    -4.1251616    1.4281183    1.2154596 
C    -1.2237398   -0.4410561   -2.3225971 
C    -1.6934862    0.9330149   -1.8179485 
C     3.0040312    0.2917639   -2.1229699 
C    -0.0925079   -3.8442063   -1.4172309 
C    -1.4569881    3.8609643   -0.2672267 
C    -3.3115889   -1.0249039    1.4633099 
C     4.0076149    0.7090835   -3.2177199 
C     2.7743942    1.4718225   -1.1719596 
C    -1.4221339   -4.0526797   -2.1630825 
C     0.7170431   -5.1579551   -1.4229245 
C     0.0745883    3.7590362   -0.2394160 
C    -1.9098412    5.2430266    0.2442623 
C    -2.6559933   -2.2104487    0.7457296 
C    -4.7130484   -1.4183344    1.9699000 
H     1.1887103    0.5899819   -3.2827284 
H     1.7822722   -2.7923069   -1.5091625 
H    -1.7581252    2.7998083    1.6001181 
H    -3.8739899   -0.0336402   -0.3858372 
H     1.9344771   -1.0928444   -4.7868633 
H     2.9813046   -1.8066383   -3.5474641 
H     1.4018447   -3.5468256   -3.8977318 
H     0.0206464   -2.4422338   -4.0093147 
H    -4.0459930    2.8177580   -0.4677147 
H    -4.0455681    3.6082320    1.1253243 
H    -3.8817184    1.4573257    2.2939063 
H    -5.2163383    1.2931824    1.1284190 
H    -1.9552163   -1.2184163   -2.0439724 
H    -1.1331977   -0.4506127   -3.4226018 
H    -0.9998006    1.7261715   -2.1512325 
H    -2.6953723    1.1828359   -2.2105430 
H     3.4535326   -0.5396258   -1.5448179 
H    -0.3174393   -3.5998316   -0.3613107 
H    -1.8000364    3.7627974   -1.3170347 
H    -2.6895685   -0.7667040    2.3431729 
H     4.2725837   -0.1218738   -3.8917734 
H     4.9417711    1.0707016   -2.7546632 
H     3.5952625    1.5300061   -3.8332571 
H     2.0825740    1.2034432   -0.3485763 
H     3.7267057    1.7976832   -0.7208255 
H     2.3453552    2.3346649   -1.7122446 
H    -1.2468510   -4.3811838   -3.2026170 
H    -2.0179889   -4.8357557   -1.6641152 
H    -2.0394988   -3.1410541   -2.1994530 
H     0.1301159   -5.9775669   -0.9737645 
H     1.6571713   -5.0604401   -0.8528111 
H     0.9772074   -5.4609307   -2.4528809 
H     0.4227608    2.7642033   -0.5623238 
H     0.5353331    4.5136816   -0.8996642 
H     0.4537609    3.9220368    0.7838990 
H    -2.9939883    5.3996330    0.1188824 
H    -1.3905380    6.0438764   -0.3098631 
H    -1.6659017    5.3568760    1.3166720 
H    -3.2445465   -2.5130123   -0.1392029 
H    -2.5758116   -3.0864520    1.4121383 
H    -1.6322411   -1.9519601    0.4105452 
H    -5.3952218   -1.6158646    1.1224406 
H    -4.6555650   -2.3388464    2.5760391 
H    -5.1666263   -0.6338057    2.5978402 
