97
Energy =
C     1.8212826   -1.2600682    1.7776414 
C     1.4717082   -0.0410455    2.4090062 
C     0.1522845    0.1981521    2.8830263 
H     2.1821085    0.7934904    2.3767467 
Pd    0.1237573   -0.2235969    0.6712250 
P    -1.8254262    0.8731851   -0.0214850 
P     0.4016408   -0.9302868   -1.5410030 
H     1.1967649   -2.1397654    1.9940407 
H    -0.4371998   -0.6775076    3.1874944 
C     5.6263543   -2.1947345   -0.0129158 
C     4.5829976   -3.1338996   -0.0093042 
C     3.3614386   -2.8222738    0.5990066 
C     3.1448629   -1.5598784    1.1993407 
C     4.2167230   -0.6376880    1.2148704 
C     5.4408888   -0.9520606    0.6149699 
H     6.5843384   -2.4359449   -0.4843607 
H     4.7257085   -4.1159106   -0.4721736 
H     2.5570546   -3.5651062    0.6153628 
H     4.0990425    0.3367548    1.6978646 
H     6.2575729   -0.2232164    0.6382031 
C    -1.3415475    3.9344026    4.4233662 
C    -2.0400886    2.7366996    4.6400036 
C    -1.5300793    1.5270991    4.1519096 
C    -0.3167119    1.4861987    3.4271770 
C     0.3793931    2.7011156    3.2247699 
C    -0.1253821    3.9083717    3.7205100 
H    -1.7365136    4.8808491    4.8059840 
H    -2.9822745    2.7434052    5.1977713 
H    -2.0736461    0.5941967    4.3362823 
H     1.3164875    2.7083495    2.6590619 
H     0.4297344    4.8369318    3.5518501 
C     1.7691450   -0.2717667   -2.6812354 
C     0.6757103   -2.7186172   -2.0366902 
C    -2.1482944    2.6408710    0.5770166 
C    -3.5884048    0.2738688    0.3750903 
C     2.0808982   -1.4665139   -3.6411292 
C     1.0239521   -2.5783848   -3.5322631 
C    -3.6712445    2.7104863    0.8269749 
C    -4.1217422    1.3450504    1.3494701 
C    -1.1595176   -0.4134860   -2.4509820 
C    -1.7177319    0.9059605   -1.8922094 
C     3.0447492    0.2639044   -1.9816786 
C    -0.4170604   -3.7413498   -1.6507375 
C    -1.5642454    3.7800208   -0.2904296 
C    -3.8411563   -1.1870521    0.8160223 
C     4.1118983    0.6600570   -3.0225490 
C     2.7659595    1.4564502   -1.0596053 
C    -0.1738872   -5.1054619   -2.3263483 
C    -0.5035496   -3.9152343   -0.1244102 
C    -0.0337740    3.6896032   -0.3817220 
C    -1.9810137    5.1566753    0.2650481 
C    -3.0455232   -1.6187296    2.0558805 
C    -3.6316482   -2.1721870   -0.3403608 
H     1.2982679    0.5615705   -3.2380682 
H     1.6079387   -2.9845987   -1.4969942 
H    -1.6411967    2.6656807    1.5600429 
H    -4.1121511    0.4212811   -0.5903729 
H     2.1993530   -1.1144382   -4.6790994 
H     3.0509872   -1.8972324   -3.3345215 
H     1.4236127   -3.5240080   -3.9364397 
H     0.1140470   -2.3433280   -4.1160033 
H    -4.1981464    2.9480504   -0.1176972 
H    -3.9041909    3.5137299    1.5458286 
H    -3.7089413    1.1824469    2.3615159 
H    -5.2208710    1.2693017    1.4263902 
H    -1.8935029   -1.2283807   -2.3336233 
H    -0.9482554   -0.3169365   -3.5298748 
H    -1.0424037    1.7400335   -2.1519642 
H    -2.7066499    1.1371223   -2.3265514 
H     3.4557163   -0.5627421   -1.3716639 
H    -1.3916713   -3.3635734   -2.0186009 
H    -1.9899653    3.6884082   -1.3101481 
H    -4.9166524   -1.2131767    1.0833643 
H     4.4153173   -0.1850887   -3.6619230 
H     5.0171604    1.0295014   -2.5107588 
H     3.7395457    1.4690350   -3.6781788 
H     2.0204071    1.2028650   -0.2802730 
H     3.6906526    1.7789744   -0.5521768 
H     2.3799432    2.3172711   -1.6346398 
H     0.8274196   -5.4986562   -2.0704187 
H    -0.9218598   -5.8395475   -1.9806719 
H    -0.2489265   -5.0444371   -3.4245808 
H     0.4142482   -4.3930091    0.2634907 
H    -1.3577830   -4.5548839    0.1538092 
H    -0.6227651   -2.9452708    0.3920205 
H     0.3008405    2.6938422   -0.7163749 
H     0.3688854    4.4392582   -1.0843090 
H     0.4218749    3.8684990    0.6073543 
H    -3.0717558    5.3109806    0.2213025 
H    -1.5057273    5.9628467   -0.3201264 
H    -1.6589377    5.2625191    1.3172654 
H    -1.9629168   -1.6332657    1.8310234 
H    -3.3388373   -2.6348493    2.3696331 
H    -3.2098612   -0.9417192    2.9106365 
H    -2.5698830   -2.1870594   -0.6375309 
H    -3.9047007   -3.1994370   -0.0451959 
H    -4.2344584   -1.8979625   -1.2242905 
