97
Energy =
C     1.8117068   -1.3879736    1.8180444 
C     1.4730586   -0.1731022    2.4562988 
C     0.1293981    0.0933294    2.8666491 
H     2.2038519    0.6452707    2.4718604 
Pd    0.1730624   -0.2748025    0.6843358 
P    -1.8755928    0.6583230    0.0814546 
P     0.5496612   -0.7470834   -1.5839151 
H     1.1307298   -2.2412043    1.9621520 
H    -0.4700374   -0.7648818    3.2029624 
C     5.6177153   -2.4334501    0.1081224 
C     4.5056953   -3.2780797   -0.0410535 
C     3.2829979   -2.9362102    0.5473081 
C     3.1383755   -1.7343099    1.2793739 
C     4.2749289   -0.9114438    1.4494008 
C     5.4995982   -1.2578948    0.8676279 
H     6.5764579   -2.6989885   -0.3485214 
H     4.5957241   -4.2094612   -0.6098005 
H     2.4190245   -3.6007885    0.4385026 
H     4.2069680    0.0053682    2.0426656 
H     6.3695915   -0.6086468    1.0099546 
C    -1.2477177    3.9359747    4.2578944 
C    -0.1887300    3.8619704    3.3373426 
C     0.2685714    2.6185109    2.8870202 
C    -0.3178887    1.4174870    3.3526442 
C    -1.3755320    1.5079796    4.2843021 
C    -1.8368020    2.7538459    4.7308095 
H    -1.6079006    4.9092318    4.6062040 
H     0.2764410    4.7793612    2.9613811 
H     1.0705789    2.5774553    2.1412965 
H    -1.8328677    0.5907554    4.6716697 
H    -2.6550256    2.8006634    5.4569370 
C     2.0449661   -0.1021579   -2.5638400 
C     0.6945936   -2.4886105   -2.2719545 
C    -2.1198476    2.5263365    0.1425034 
C    -3.5072876    0.2589715    0.9639342 
C     2.3686008   -1.2406478   -3.5813706 
C     1.1972625   -2.2259490   -3.7056047 
C    -3.6304520    2.6888676    0.4140516 
C    -4.0255461    1.6315750    1.4496638 
C    -0.9089142    0.0022734   -2.5154179 
C    -2.1873240    0.0754191   -1.6679210 
C     3.2855410    0.2989792   -1.7223722 
C    -0.5402666   -3.4023765   -2.0741859 
C    -1.5444926    3.3338420   -1.0430133 
C    -3.4373253   -0.8415917    2.0454387 
C     4.4617007    0.6885773   -2.6408011 
C     3.0135548    1.4393833   -0.7324387 
C    -0.5596315   -4.5784470   -3.0688508 
C    -0.5768919   -3.9261957   -0.6281591 
C    -0.0140888    3.2232613   -1.0917770 
C    -1.9691299    4.8137874   -0.9684852 
C    -2.9447055   -2.1698994    1.4586823 
C    -4.7963169   -1.0191125    2.7478967 
H     1.6723722    0.7942646   -3.0960344 
H     1.5434895   -2.9209445   -1.7042670 
H    -1.5761197    2.8215827    1.0624239 
H    -4.1695583   -0.0974817    0.1483934 
H     2.6572306   -0.8204925   -4.5589261 
H     3.2418695   -1.7995924   -3.1979531 
H     1.5268700   -3.1629548   -4.1861487 
H     0.3866164   -1.8155638   -4.3372819 
H    -4.2021627    2.5440000   -0.5239440 
H    -3.8532183    3.7066502    0.7766213 
H    -3.5588271    1.8765860    2.4223054 
H    -5.1173696    1.6015302    1.6032610 
H    -1.0889529   -0.5723009   -3.4409353 
H    -0.5916294    1.0127220   -2.8249902 
H    -2.9527087    0.7116447   -2.1487228 
H    -2.6297080   -0.9310879   -1.5492847 
H     3.5884582   -0.5956910   -1.1469061 
H    -1.4549725   -2.8034918   -2.2572376 
H    -1.9621841    2.9158433   -1.9817273 
H    -2.7049498   -0.5048421    2.8029369 
H     4.7698162   -0.1343079   -3.3063341 
H     5.3384906    0.9662307   -2.0307890 
H     4.1977693    1.5588084   -3.2702095 
H     2.1789891    1.1937089   -0.0472026 
H     3.9093592    1.6348638   -0.1192769 
H     2.7563162    2.3736125   -1.2621552 
H     0.3617250   -5.1833281   -2.9831305 
H    -1.4162197   -5.2411592   -2.8559680 
H    -0.6513805   -4.2375753   -4.1136218 
H     0.2421785   -4.6501399   -0.4634948 
H    -1.5288686   -4.4369937   -0.4065039 
H    -0.4512068   -3.1047588    0.0991410 
H     0.3181444    2.1715005   -1.0801924 
H     0.3959752    3.7044076   -1.9963451 
H     0.4400733    3.7111819   -0.2108738 
H    -3.0599541    4.9393499   -1.0669974 
H    -1.4917047    5.3886919   -1.7807185 
H    -1.6557013    5.2610834   -0.0071977 
H    -3.6366472   -2.5462806    0.6822215 
H    -2.8565679   -2.9467039    2.2377682 
H    -1.9489843   -2.0452692    0.9955504 
H    -5.1109400   -0.1046930    3.2779974 
H    -5.5853398   -1.2822997    2.0193943 
H    -4.7399089   -1.8338016    3.4904526 
