97
Energy =
C     1.7349601   -1.6274636    1.8154419 
C     1.5309202   -0.3627202    2.4258398 
C     0.2311906    0.0344569    2.8574375 
H     2.3373814    0.3804990    2.4044100 
Pd    0.2272012   -0.4185997    0.6657116 
P    -1.6398739    0.7446862   -0.1276078 
P     0.6334259   -1.0200244   -1.5369285 
H     1.0057911   -2.4174617    2.0528414 
H    -0.4537842   -0.7616043    3.1827818 
C     5.3383630   -3.1433662    0.0059779 
C     4.2386948   -3.9830997    0.2358787 
C     3.0830036   -3.4751305    0.8434441 
C     2.9968998   -2.1168457    1.2298180 
C     4.1241685   -1.2903094    1.0134637 
C     5.2780593   -1.7974594    0.4068658 
H     6.2433488   -3.5362107   -0.4682402 
H     4.2815484   -5.0382666   -0.0535119 
H     2.2302340   -4.1382830    1.0282207 
H     4.1052445   -0.2413275    1.3254580 
H     6.1391041   -1.1398937    0.2483099 
C    -0.8318206    3.9686138    4.2598801 
C     0.3269160    3.7935807    3.4844020 
C     0.6825523    2.5227400    3.0203285 
C    -0.1018672    1.3885540    3.3403969 
C    -1.2598128    1.5799782    4.1287109 
C    -1.6242739    2.8559374    4.5783430 
H    -1.1117205    4.9656444    4.6142749 
H     0.9520869    4.6565540    3.2326434 
H     1.5681682    2.4145313    2.3849319 
H    -1.8719558    0.7132514    4.4024144 
H    -2.5243008    2.9795861    5.1895585 
C     2.0353348   -0.0889532   -2.4157341 
C     1.1847105   -2.7255006   -2.0870336 
C    -2.0101761    2.5004843    0.4641925 
C    -3.3512035    0.0596748    0.2689647 
C     2.9533439   -1.2226079   -2.9405931 
C     2.0919031   -2.4379867   -3.3016621 
C    -3.4927434    2.4488712    0.9358608 
C    -4.2159340    1.3372881    0.1586038 
C    -0.9216476   -0.6142017   -2.4893830 
C    -1.5299713    0.7104511   -2.0001179 
C     2.7638413    0.9782824   -1.5604555 
C     0.0761470   -3.7845184   -2.2789678 
C    -1.6546036    3.6680644   -0.5069776 
C    -3.3776133   -0.6387718    1.6615334 
C     4.0294408    1.4939632   -2.2717809 
C     1.8463384    2.1509647   -1.1863161 
C     0.6810229   -5.1274652   -2.7332640 
C    -0.7484173   -3.9741691   -0.9950967 
C    -1.4588001    4.9621500    0.3077871 
C    -2.6718063    3.9060429   -1.6379150 
C    -2.6952146   -2.0132246    1.5977200 
C    -4.8053406   -0.7807843    2.2210566 
H     1.5532798    0.4125198   -3.2792379 
H     1.8372565   -3.0558399   -1.2542125 
H    -1.3502572    2.6085890    1.3417650 
H    -3.6269110   -0.6775250   -0.5087867 
H     3.5464814   -0.8724651   -3.8020006 
H     3.6654881   -1.5076084   -2.1427844 
H     2.7213439   -3.3129053   -3.5373690 
H     1.4738254   -2.2287940   -4.1968037 
H    -3.9823229    3.4273199    0.7958649 
H    -3.5249018    2.2337469    2.0181641 
H    -5.2411827    1.1650536    0.5267031 
H    -4.3102014    1.6258088   -0.9042315 
H    -1.6266371   -1.4466700   -2.3141390 
H    -0.7130429   -0.5808454   -3.5736845 
H    -0.8987072    1.5632104   -2.3047694 
H    -2.5312367    0.8655325   -2.4375859 
H     3.0775627    0.4781991   -0.6241916 
H    -0.6010805   -3.4333848   -3.0833448 
H    -0.6780037    3.4277151   -0.9678985 
H    -2.8016657   -0.0065457    2.3656334 
H     4.7716611    0.6940711   -2.4302109 
H     4.5124520    2.2814885   -1.6677245 
H     3.7803291    1.9316278   -3.2562078 
H     0.9809579    1.8012990   -0.5911207 
H     2.3842280    2.8955791   -0.5741764 
H     1.4689233    2.6674103   -2.0886302 
H     1.4225259   -5.4900972   -1.9974492 
H    -0.1085551   -5.8931803   -2.8236258 
H     1.1813859   -5.0465999   -3.7124232 
H    -1.5426466   -4.7260450   -1.1409430 
H    -1.2284496   -3.0352565   -0.6707060 
H    -0.1057574   -4.3173439   -0.1638316 
H    -0.6685507    4.8393036    1.0671005 
H    -1.1790413    5.7998484   -0.3542122 
H    -2.3893372    5.2456006    0.8324433 
H    -2.8372863    3.0169884   -2.2672485 
H    -2.3147787    4.7154751   -2.2974477 
H    -3.6515370    4.2217277   -1.2382253 
H    -3.2517693   -2.7015327    0.9361456 
H    -2.6376011   -2.4752037    2.5984907 
H    -1.6608830   -1.9279641    1.2061471 
H    -5.4584860   -1.3207710    1.5112794 
H    -4.7864506   -1.3555784    3.1631023 
H    -5.2688841    0.1954407    2.4404655 
