97
Energy =
C     1.9803832   -1.2430176    1.8039116 
C     1.6238885   -0.0265408    2.4305825 
C     0.2848779    0.2057702    2.8716643 
H     2.3330363    0.8102440    2.4136527 
Pd    0.2895900   -0.1999805    0.6889586 
P    -1.7993129    0.6487177    0.1229960 
P     0.5878993   -0.7172009   -1.5732422 
H     1.3256242   -2.1110116    1.9801627 
H    -0.2828400   -0.6673745    3.2234458 
C     5.7861272   -2.2439871    0.0656209 
C     4.6970572   -3.1250595   -0.0312222 
C     3.4742956   -2.7951118    0.5642032 
C     3.3062759   -1.5699816    1.2514094 
C     4.4197609   -0.7059041    1.3642647 
C     5.6447318   -1.0408683    0.7766501 
H     6.7449183   -2.5004502   -0.3959647 
H     4.8049175   -4.0751203   -0.5647635 
H     2.6292136   -3.4899816    0.4949632 
H     4.3325482    0.2364250    1.9136469 
H     6.4963179   -0.3598140    0.8743115 
C    -1.2503157    4.0097076    4.2018257 
C    -0.1155985    3.9631811    3.3743642 
C     0.3982356    2.7332862    2.9487031 
C    -0.2052537    1.5171037    3.3468549 
C    -1.3365077    1.5800750    4.1912040 
C    -1.8559251    2.8120618    4.6109501 
H    -1.6544472    4.9727608    4.5295419 
H     0.3656415    4.8923586    3.0515733 
H     1.2617863    2.7178377    2.2752990 
H    -1.8082276    0.6507320    4.5293009 
H    -2.7321962    2.8361036    5.2671395 
C     2.1341464   -0.3719656   -2.6201491 
C     0.4735061   -2.5158043   -2.0756174 
C    -2.2087071    2.4683659    0.3645265 
C    -3.3780267    0.0077790    0.9558287 
C     2.4467237   -1.7251107   -3.3215363 
C     1.1625611   -2.5556607   -3.4531471 
C    -3.7415263    2.4585735    0.5471463 
C    -4.0846460    1.2860349    1.4732349 
C    -0.7515612    0.2319321   -2.4785128 
C    -2.0686883    0.2578845   -1.6900387 
C     3.3515409    0.2174232   -1.8688223 
C    -0.8987607   -3.2272133   -1.9133641 
C    -1.6474724    3.4374448   -0.7011806 
C    -3.1764182   -1.0921307    2.0259266 
C     4.5283555    0.4462951   -2.8363582 
C     3.0225323    1.5105406   -1.1109427 
C    -1.7976059   -3.1405448   -3.1596506 
C    -0.6847495   -4.6975950   -1.5060653 
C    -0.1107800    3.4430498   -0.7003223 
C    -2.1833120    4.8668224   -0.4867029 
C    -2.4915357   -2.3435550    1.4580676 
C    -4.5164996   -1.4649976    2.6891088 
H     1.7911115    0.3635954   -3.3748977 
H     1.1737201   -2.9723345   -1.3478496 
H    -1.7452324    2.7132522    1.3409658 
H    -3.9727951   -0.4203174    0.1240217 
H     2.9198874   -1.5506722   -4.3022127 
H     3.1751852   -2.2786490   -2.6994646 
H     1.3804538   -3.5940296   -3.7611210 
H     0.5023905   -2.1226551   -4.2276429 
H    -4.2396520    2.3388449   -0.4354305 
H    -4.0908921    3.4145959    0.9724559 
H    -3.7171408    1.5130229    2.4913629 
H    -5.1739284    1.1273857    1.5421001 
H    -0.8929922   -0.1868359   -3.4905991 
H    -0.3535109    1.2544569   -2.6063592 
H    -2.7875559    0.9748965   -2.1259536 
H    -2.5516045   -0.7349262   -1.7107694 
H     3.6680130   -0.5397368   -1.1307271 
H    -1.4258984   -2.7345632   -1.0758549 
H    -1.9996553    3.0964216   -1.6960232 
H    -2.5191277   -0.6648342    2.8068116 
H     4.8564195   -0.4890278   -3.3198316 
H     5.3943645    0.8562472   -2.2885504 
H     4.2563023    1.1673205   -3.6296785 
H     2.2314057    1.3409761   -0.3548544 
H     3.9151799    1.8863383   -0.5821834 
H     2.6755494    2.3046369   -1.7972532 
H    -1.3689141   -3.7113510   -4.0018550 
H    -2.7898925   -3.5710717   -2.9404298 
H    -1.9528284   -2.1043770   -3.5049964 
H    -0.1122731   -5.2438424   -2.2777215 
H    -1.6509855   -5.2154502   -1.3764184 
H    -0.1301856   -4.7702398   -0.5534084 
H     0.3036123    2.4223224   -0.7647071 
H     0.2859126    4.0298405   -1.5465405 
H     0.2734460    3.8887529    0.2333222 
H    -3.2764329    4.9259998   -0.6179230 
H    -1.7218281    5.5600195   -1.2110818 
H    -1.9371454    5.2246601    0.5300042 
H    -3.1008753   -2.8027364    0.6580542 
H    -2.3413783   -3.1030648    2.2447209 
H    -1.4966821   -2.0969318    1.0354540 
H    -5.2370690   -1.8364360    1.9372657 
H    -4.3663665   -2.2649382    3.4346202 
H    -4.9756897   -0.6070935    3.2077425 
