97
Energy =
C     1.7746430   -1.4485161    1.8188967 
C     1.5348922   -0.1910274    2.4185518 
C     0.2156200    0.1658760    2.8446492 
H     2.3215584    0.5737060    2.4054035 
Pd    0.1937429   -0.2504838    0.6705264 
P    -1.8765945    0.6315645    0.1040008 
P     0.5146414   -0.7650073   -1.5834583 
H     1.0259368   -2.2346948    2.0049868 
H    -0.4194364   -0.6476355    3.2222669 
C     5.4285330   -2.9763717    0.1432881 
C     4.2796660   -3.7788229    0.2188975 
C     3.1063974   -3.2684707    0.7862554 
C     3.0495467   -1.9416276    1.2768247 
C     4.2239528   -1.1560800    1.2192615 
C     5.3972040   -1.6681288    0.6557434 
H     6.3492992   -3.3722743   -0.2967373 
H     4.3010081   -4.8071222   -0.1564721 
H     2.2169732   -3.9048550    0.8605447 
H     4.2244381   -0.1385249    1.6204517 
H     6.2970991   -1.0454534    0.6207084 
C    -1.0124077    4.1219939    4.0430233 
C     0.1015360    3.9582793    3.2025099 
C     0.5164084    2.6777491    2.8202525 
C    -0.1664871    1.5265354    3.2787026 
C    -1.2754295    1.7068151    4.1358978 
C    -1.6967736    2.9897470    4.5102930 
H    -1.3397021    5.1247596    4.3355457 
H     0.6441550    4.8358607    2.8355029 
H     1.3624315    2.5705804    2.1326785 
H    -1.8075496    0.8293271    4.5198451 
H    -2.5577714    3.1048872    5.1769950 
C     1.9898260   -0.1361538   -2.5737219 
C     0.8503971   -2.5847022   -2.0153337 
C    -2.2321289    2.4700531    0.2751058 
C    -3.4599016    0.0798618    0.9967627 
C     2.9670985   -1.3238412   -2.5172498 
C     2.1392068   -2.5649770   -2.8770440 
C    -3.7626482    2.5145554    0.4641871 
C    -4.1255630    1.4020115    1.4542522 
C    -0.9333791   -0.0175105   -2.5212428 
C    -2.2092128    0.1472921   -1.6807260 
C     2.5242733    1.2784128   -2.2591721 
C    -0.3250666   -3.4019773   -2.5986850 
C    -1.6344361    3.3799574   -0.8216757 
C    -3.2729671   -0.9662480    2.1212897 
C     3.1019184    1.4219034   -0.8447181 
C     3.5505321    1.7183779   -3.3220780 
C     0.1398305   -4.8058503   -3.0344692 
C    -1.4761584   -3.5186451   -1.5889558 
C    -0.0997907    3.3805978   -0.7520806 
C    -2.1718214    4.8201092   -0.7098736 
C    -2.6314958   -2.2643623    1.6115206 
C    -4.6130141   -1.2660474    2.8209071 
H     1.5784450   -0.1043991   -3.6049030 
H     1.1087108   -3.0146980   -1.0295006 
H    -1.7587634    2.7323253    1.2433472 
H    -4.0787377   -0.3756465    0.1978546 
H     3.8048656   -1.1822539   -3.2210387 
H     3.4006387   -1.4268394   -1.5057091 
H     2.7122468   -3.4946363   -2.7220890 
H     1.8638695   -2.5211726   -3.9481207 
H    -4.2721694    2.3564075   -0.5069692 
H    -4.0826033    3.5009144    0.8406540 
H    -3.7389655    1.6717358    2.4548518 
H    -5.2176158    1.2763041    1.5439462 
H    -1.1331211   -0.5944805   -3.4413437 
H    -0.5565814    0.9730136   -2.8370876 
H    -2.8965906    0.8797297   -2.1409422 
H    -2.7579780   -0.8085862   -1.6221433 
H     1.6607783    1.9640470   -2.3451358 
H    -0.6946395   -2.8759695   -3.5023536 
H    -1.9466433    2.9842572   -1.8096206 
H    -2.5948391   -0.5147220    2.8697288 
H     2.3767623    1.0757663   -0.0825206 
H     3.3445542    2.4768048   -0.6296330 
H     4.0247234    0.8291680   -0.7313872 
H     3.1390586    1.6298480   -4.3432184 
H     3.8406876    2.7712718   -3.1629908 
H     4.4696853    1.1084227   -3.2694988 
H     0.5816843   -5.3529190   -2.1811667 
H    -0.7180681   -5.3936645   -3.4039245 
H     0.8896686   -4.7661328   -3.8414725 
H    -1.1580875   -4.0932034   -0.6999933 
H    -2.3465541   -4.0328251   -2.0309158 
H    -1.8100504   -2.5305230   -1.2334083 
H     0.3047686    2.3529996   -0.7219068 
H     0.3398605    3.9047754   -1.6177620 
H     0.2423786    3.8890304    0.1654229 
H    -3.2582340    4.8744135   -0.8899791 
H    -1.6770222    5.4701263   -1.4521380 
H    -1.9661669    5.2345583    0.2942259 
H    -3.2734700   -2.7566728    0.8587653 
H    -2.4743233   -2.9775611    2.4392499 
H    -1.6464716   -2.0678207    1.1434664 
H    -5.0414706   -0.3700711    3.2999739 
H    -5.3540903   -1.6566227    2.0993093 
H    -4.4731605   -2.0299011    3.6052415 
