97
Energy =
C     1.6962757   -1.5070988    1.7483339 
C     1.5420136   -0.2325853    2.3471121 
C     0.2603592    0.2332086    2.7600039 
H     2.3902830    0.4621084    2.3451897 
Pd    0.2562301   -0.2142934    0.5537232 
P    -1.7189642    0.8049598   -0.1475438 
P     0.5521603   -0.9497638   -1.6457135 
H     0.9126308   -2.2513573    1.9561775 
H    -0.4807347   -0.5300082    3.0357177 
C     5.2751215   -3.2577288    0.1213654 
C     4.1256198   -4.0331988    0.3313744 
C     2.9764873   -3.4480525    0.8786924 
C     2.9475323   -2.0748495    1.2208905 
C     4.1240327   -1.3142892    1.0277950 
C     5.2711339   -1.8987545    0.4822577 
H     6.1755817   -3.7104321   -0.3058450 
H     4.1245085   -5.0977048    0.0749945 
H     2.0859234   -4.0619968    1.0549186 
H     4.1446783   -0.2561608    1.3038083 
H     6.1720364   -1.2928272    0.3402478 
C    -0.5945656    4.1359392    4.3839171 
C    -1.5727208    3.1293328    4.3765187 
C    -1.2750156    1.8663045    3.8517742 
C    -0.0013411    1.5801507    3.3065579 
C     0.9715608    2.6055431    3.3226531 
C     0.6801207    3.8634990    3.8617002 
H    -0.8199681    5.1221772    4.8019486 
H    -2.5659311    3.3244751    4.7942721 
H    -2.0380710    1.0800618    3.8697173 
H     1.9678861    2.4279044    2.9057832 
H     1.4520950    4.6398619    3.8694183 
C     1.8712505   -0.1529712   -2.7610659 
C     1.1372403   -2.7151065   -2.0087813 
C    -2.2298715    2.5795898    0.1877200 
C    -3.3881460    0.0765139    0.4141058 
C     2.9434456   -1.2560908   -2.8766740 
C     2.2055608   -2.5745097   -3.1151764 
C    -3.7352974    2.5452562   -0.1457068 
C    -4.3179219    1.3189666    0.5706998 
C    -1.0996758   -0.6786415   -2.4906011 
C    -1.7887286    0.6143383   -2.0172121 
C     2.4148506    1.2572456   -2.4401283 
C     0.0524248   -3.7886648   -2.2540492 
C    -1.3761194    3.6952543   -0.4590584 
C    -3.3656743   -0.8104995    1.6864513 
C     1.3499058    2.3369986   -2.6585099 
C     3.0572869    1.3755894   -1.0506290 
C     0.6943666   -5.1359176   -2.6416819 
C    -0.8438130   -3.9655161   -1.0202400 
C    -0.0027830    3.7886730    0.2257272 
C    -2.0884402    5.0608408   -0.3944415 
C    -2.5365834   -2.0868521    1.5083766 
C    -4.7973568   -1.1849461    2.1234217 
H     1.3547130   -0.0950899   -3.7404071 
H     1.6720104   -2.9796487   -1.0766211 
H    -2.1249144    2.6653162    1.2901295 
H    -3.7236286   -0.5478004   -0.4366770 
H     3.6448671   -1.0152893   -3.6950661 
H     3.5349382   -1.3224520   -1.9442926 
H     2.8957209   -3.4343996   -3.0901988 
H     1.7223450   -2.5652396   -4.1114367 
H    -3.8865584    2.4906858   -1.2406797 
H    -4.2371943    3.4651987    0.1992552 
H    -4.3865232    1.5595333    1.6474582 
H    -5.3398189    1.0873189    0.2274930 
H    -1.7223579   -1.5531523   -2.2314633 
H    -0.9733217   -0.6809025   -3.5878944 
H    -1.2918176    1.4988134   -2.4487643 
H    -2.8396541    0.6356948   -2.3540966 
H     3.2139457    1.4235953   -3.1904990 
H    -0.5759934   -3.4602784   -3.1063751 
H    -1.2331834    3.4526955   -1.5308229 
H    -2.9097106   -0.2055305    2.4948314 
H     0.9020270    2.2705873   -3.6661559 
H     1.7747783    3.3476681   -2.5386531 
H     0.5457451    2.2295020   -1.9128665 
H     3.9014245    0.6783028   -0.9318434 
H     3.4326300    2.3992900   -0.8815416 
H     2.3124119    1.1516180   -0.2593572 
H     1.4004268   -5.4712174   -1.8594173 
H    -0.0836609   -5.9112309   -2.7495256 
H     1.2424261   -5.0779471   -3.5963837 
H    -0.2540222   -4.3236866   -0.1566587 
H    -1.6457338   -4.6993412   -1.2094599 
H    -1.3155833   -3.0173145   -0.7197096 
H     0.4961037    2.8047241    0.2888619 
H     0.6653404    4.4788798   -0.3165411 
H    -0.1199107    4.1617842    1.2567918 
H    -3.0170775    5.0769093   -0.9890449 
H    -1.4258662    5.8505508   -0.7886967 
H    -2.3394954    5.3228501    0.6497895 
H    -3.0054205   -2.7576580    0.7668393 
H    -2.4540378   -2.6419144    2.4589086 
H    -1.5106048   -1.8556237    1.1584645 
H    -5.3162243   -1.7390176    1.3195549 
H    -4.7645312   -1.8369789    3.0132265 
H    -5.4078884   -0.3037805    2.3792382 
