97
Energy =
C     1.8449110   -1.3931313    1.7885836 
C     1.6197145   -0.1461325    2.4263011 
C     0.3176701    0.1907795    2.8988919 
H     2.4025096    0.6218747    2.4034853 
Pd    0.2463998   -0.1930770    0.7079379 
P    -1.7099067    0.9134323    0.1297561 
P     0.3224813   -0.9533344   -1.4998319 
H     1.1404964   -2.2045548    2.0299176 
H    -0.3265112   -0.6473206    3.2037308 
C     5.4480105   -2.7948805   -0.1036056 
C     4.3840699   -3.6710405    0.1570120 
C     3.2293681   -3.2004560    0.7947887 
C     3.1048561   -1.8420389    1.1730531 
C     4.1969992   -0.9782643    0.9252890 
C     5.3523792   -1.4501595    0.2944886 
H     6.3531606   -3.1583904   -0.6003273 
H     4.4566524   -4.7259370   -0.1271207 
H     2.4118563   -3.8956684    1.0176728 
H     4.1442208    0.0735404    1.2213343 
H     6.1867861   -0.7651541    0.1116040 
C    -0.9949251    4.0132398    4.3915836 
C     0.2093552    3.9230961    3.6732648 
C     0.6587828    2.6864608    3.1969250 
C    -0.0831164    1.5064117    3.4340310 
C    -1.2840828    1.6104483    4.1730889 
C    -1.7377477    2.8496242    4.6432879 
H    -1.3465089    4.9829225    4.7579883 
H     0.7981440    4.8252421    3.4770917 
H     1.5860296    2.6420041    2.6163750 
H    -1.8660391    0.7052276    4.3803174 
H    -2.6709132    2.9059987    5.2133664 
C     1.5910686   -0.2826995   -2.7160042 
C     0.8048650   -2.7556630   -1.7576067 
C    -2.0811641    2.6915354    0.6043540 
C    -3.3505795    0.2086900    0.7738586 
C     2.6646488   -1.3945172   -2.7142238 
C     1.9136088   -2.7296400   -2.8382150 
C    -3.6201851    2.7118127    0.7244262 
C    -4.0436392    1.4248755    1.4423700 
C    -1.3560034   -0.5648356   -2.2335661 
C    -1.8449417    0.8067501   -1.7333120 
C     2.0598641    1.1800620   -2.5276621 
C    -0.3373013   -3.7946388   -1.9218758 
C    -1.4484316    3.7800758   -0.2920554 
C    -3.2392988   -1.0401161    1.6830115 
C     2.8696024    1.4035729   -1.2427017 
C     2.8427331    1.6611239   -3.7647809 
C    -0.9291920   -3.8558167   -3.3414682 
C     0.1531199   -5.1881318   -1.4808840 
C     0.0839879    3.6611572   -0.3233911 
C    -1.8647505    5.1869782    0.1803560 
C    -2.6104224   -2.2361899    0.9532473 
C    -4.6155199   -1.4284062    2.2579123 
H     1.0574031   -0.3394419   -3.6869202 
H     1.3048355   -2.9692951   -0.7961335 
H    -1.6507256    2.7830414    1.6215061 
H    -3.9146634   -0.0733948   -0.1378108 
H     3.3776988   -1.2523030   -3.5444062 
H     3.2451620   -1.3714187   -1.7732954 
H     2.5923461   -3.5904983   -2.7104464 
H     1.4689212   -2.8042211   -3.8465281 
H    -4.0756077    2.7650599   -0.2839387 
H    -3.9580047    3.6026400    1.2807768 
H    -3.7230373    1.4823455    2.4993136 
H    -5.1392164    1.2980092    1.4374786 
H    -2.0467265   -1.3648588   -1.9121719 
H    -1.3064701   -0.5880726   -3.3360967 
H    -1.2153854    1.6128888   -2.1499386 
H    -2.8843873    1.0024916   -2.0515552 
H     1.1442641    1.8002843   -2.4630067 
H    -1.1466947   -3.5020141   -1.2251703 
H    -1.8377677    3.6439565   -1.3211186 
H    -2.5786890   -0.7688422    2.5303974 
H     2.3155599    1.0382456   -0.3553957 
H     3.0740650    2.4777833   -1.0964184 
H     3.8364372    0.8745368   -1.2826412 
H     2.2563478    1.5288774   -4.6912791 
H     3.0931828    2.7318819   -3.6703857 
H     3.7910449    1.1065851   -3.8786672 
H    -0.2120684   -4.2981627   -4.0549451 
H    -1.8325477   -4.4894370   -3.3496812 
H    -1.2133162   -2.8619278   -3.7268203 
H    -0.6565665   -5.9330900   -1.5676833 
H     0.4958624   -5.1794682   -0.4309630 
H     0.9930597   -5.5313879   -2.1112291 
H     0.4112225    2.6374480   -0.5763957 
H     0.5220905    4.3538916   -1.0621210 
H     0.5077486    3.9007933    0.6663753 
H    -2.9519326    5.3493153    0.0943944 
H    -1.3622893    5.9588303   -0.4278511 
H    -1.5742600    5.3415412    1.2358736 
H    -3.2207978   -2.5347385    0.0804761 
H    -2.5285186   -3.1107076    1.6213836 
H    -1.5890958   -1.9920357    0.5972533 
H    -5.3331749   -1.6455751    1.4452422 
H    -4.5287741   -2.3352392    2.8808478 
H    -5.0437061   -0.6310580    2.8876253 
