97
Energy =
C     1.7446815   -1.4543064    1.8420766 
C     1.5069519   -0.1933098    2.4353561 
C     0.1857866    0.1729635    2.8470726 
H     2.2985614    0.5664008    2.4277433 
Pd    0.1845543   -0.2506405    0.6744600 
P    -1.8740808    0.6431455    0.0820388 
P     0.5275614   -0.7723298   -1.5756248 
H     0.9893589   -2.2352770    2.0233102 
H    -0.4581092   -0.6354404    3.2207600 
C     5.4073130   -3.0099528    0.2114220 
C     4.2530728   -3.8054939    0.2779239 
C     3.0766058   -3.2859779    0.8302278 
C     3.0223503   -1.9570526    1.3153754 
C     4.2020084   -1.1787126    1.2678425 
C     5.3782319   -1.6996943    0.7188930 
H     6.3303637   -3.4127881   -0.2174272 
H     4.2725452   -4.8355013   -0.0928872 
H     2.1825845   -3.9167755    0.8969372 
H     4.2040574   -0.1595330    1.6648957 
H     6.2822357   -1.0825715    0.6916674 
C    -1.0301230    4.1401067    4.0212912 
C     0.0919677    3.9670955    3.1935567 
C     0.5028862    2.6829462    2.8191761 
C    -0.1928426    1.5373419    3.2723545 
C    -1.3108794    1.7269794    4.1156399 
C    -1.7276945    3.0135036    4.4827002 
H    -1.3535483    5.1456766    4.3085098 
H     0.6441778    4.8402481    2.8302543 
H     1.3565027    2.5686610    2.1421911 
H    -1.8533398    0.8538855    4.4951454 
H    -2.5956561    3.1358686    5.1390321 
C     2.0173347   -0.1541730   -2.5506564 
C     0.8577942   -2.5950134   -2.0001477 
C    -2.2204506    2.4843129    0.2443141 
C    -3.4706262    0.1032977    0.9583651 
C     2.9871532   -1.3472466   -2.4796319 
C     2.1564922   -2.5843086   -2.8469707 
C    -3.7523398    2.5391963    0.4187888 
C    -4.1326829    1.4304119    1.4065992 
C    -0.9057957   -0.0189756   -2.5310749 
C    -2.1896711    0.1553599   -1.7048335 
C     2.5563336    1.2581459   -2.2336967 
C    -0.3154411   -3.4073030   -2.5948623 
C    -1.6061256    3.3875706   -0.8486618 
C    -3.3025847   -0.9423249    2.0862991 
C     3.1184904    1.4020786   -0.8130998 
C     3.5976470    1.6889773   -3.2857007 
C     0.1465408   -4.8153408   -3.0203377 
C    -1.4790724   -3.5141312   -1.5984687 
C    -0.0722521    3.3776786   -0.7641072 
C    -2.1345023    4.8316625   -0.7449168 
C    -2.6645722   -2.2453849    1.5848998 
C    -4.6518453   -1.2319038    2.7723678 
H     1.6180601   -0.1229462   -3.5866121 
H     1.1026530   -3.0241371   -1.0104708 
H    -1.7548950    2.7462594    1.2164354 
H    -4.0839129   -0.3493210    0.1535023 
H     3.8342280   -1.2118508   -3.1734489 
H     3.4077639   -1.4506002   -1.4626704 
H     2.7223018   -3.5169528   -2.6836115 
H     1.8938203   -2.5408901   -3.9212562 
H    -4.2536158    2.3832297   -0.5570307 
H    -4.0690470    3.5282884    0.7908455 
H    -3.7553101    1.6993971    2.4109171 
H    -5.2264322    1.3117313    1.4847303 
H    -1.0989059   -0.5976144   -3.4515503 
H    -0.5200552    0.9684730   -2.8457841 
H    -2.8681747    0.8899873   -2.1746761 
H    -2.7441251   -0.7974410   -1.6492021 
H     1.6980498    1.9486606   -2.3316516 
H    -0.6711686   -2.8821561   -3.5045977 
H    -1.9115484    2.9918733   -1.8387475 
H    -2.6290804   -0.4944307    2.8410973 
H     2.3822257    1.0629706   -0.0584079 
H     3.3656639    2.4559881   -0.5982137 
H     4.0359654    0.8035588   -0.6874077 
H     3.1978389    1.5995506   -4.3114159 
H     3.8918301    2.7407387   -3.1264028 
H     4.5126731    1.0740406   -3.2203306 
H     0.5755058   -5.3618104   -2.1600679 
H    -0.7103741   -5.3996847   -3.3975455 
H     0.9058015   -4.7827175   -3.8188254 
H    -1.1748337   -4.0875808   -0.7039446 
H    -2.3471113   -4.0248125   -2.0490708 
H    -1.8114717   -2.5229552   -1.2500639 
H     0.3795800    3.8969591   -1.6264749 
H     0.2645909    3.8854692    0.1557649 
H     0.3247369    2.3472967   -0.7279242 
H    -3.2188051    4.8930478   -0.9353385 
H    -1.6282707    5.4766527   -1.4838656 
H    -1.9354145    5.2468381    0.2602327 
H    -3.3017367   -2.7341997    0.8257679 
H    -2.5211326   -2.9587408    2.4150117 
H    -1.6731734   -2.0560346    1.1273725 
H    -5.3882799   -1.6179895    2.0436077 
H    -4.5255148   -1.9958708    3.5589013 
H    -5.0788088   -0.3323258    3.2460417 
