97
Energy =
C     1.8427165   -1.3839286    1.7992440 
C     1.6061993   -0.1381014    2.4349805 
C     0.2999027    0.1896357    2.9021600 
H     2.3838353    0.6351805    2.4152472 
Pd    0.2416774   -0.1942188    0.7109494 
P    -1.7171665    0.9021172    0.1210347 
P     0.3378524   -0.9483001   -1.4990193 
H     1.1421226   -2.1996433    2.0371946 
H    -0.3399130   -0.6530709    3.2035766 
C     5.4653013   -2.7640367   -0.0715639 
C     4.4028516   -3.6453556    0.1775547 
C     3.2413508   -3.1816983    0.8079770 
C     3.1085139   -1.8251986    1.1903047 
C     4.1989602   -0.9561064    0.9538676 
C     5.3610168   -1.4210629    0.3302045 
H     6.3759695   -3.1222601   -0.5619951 
H     4.4819844   -4.6989731   -0.1095473 
H     2.4249833   -3.8810127    1.0221010 
H     4.1399061    0.0942555    1.2538292 
H     6.1940255   -0.7320621    0.1561712 
C    -1.0471807    4.0013489    4.3917119 
C    -1.7875278    2.8335045    4.6309141 
C    -1.3228922    1.5981065    4.1616127 
C    -0.1130467    1.5019952    3.4359604 
C     0.6258603    2.6862628    3.2110404 
C     0.1653285    3.9191892    3.6864610 
H    -1.4070540    4.9680864    4.7578387 
H    -2.7271905    2.8835892    5.1908180 
H    -1.9028656    0.6894746    4.3592154 
H     1.5600684    2.6482423    2.6413174 
H     0.7523225    4.8246148    3.5002993 
C     1.6127237   -0.2685849   -2.7033376 
C     0.8301811   -2.7477594   -1.7582296 
C    -2.1027799    2.6761921    0.5988681 
C    -3.3578452    0.1847775    0.7504811 
C     2.6930874   -1.3736531   -2.6925301 
C     1.9521600   -2.7136231   -2.8250797 
C    -3.6426913    2.6867268    0.7085126 
C    -4.0638535    1.3941931    1.4178491 
C    -1.3367715   -0.5657897   -2.2447168 
C    -1.8372438    0.8011600   -1.7433570 
C     2.0709953    1.1967608   -2.5093396 
C    -0.3060233   -3.7901945   -1.9408896 
C    -1.4707422    3.7716779   -0.2894851 
C    -3.2446388   -1.0662654    1.6564041 
C     2.8681785    1.4235451   -1.2170799 
C     2.8618715    1.6839070   -3.7389799 
C    -0.8800795   -3.8478262   -3.3679403 
C     0.1839491   -5.1836194   -1.4992127 
C     0.0624651    3.6611917   -0.3123795 
C    -1.8974083    5.1743490    0.1863026 
C    -2.6029532   -2.2558342    0.9270766 
C    -4.6221336   -1.4654792    2.2205818 
H     1.0879826   -0.3278226   -3.6789595 
H     1.3188348   -2.9636335   -0.7914631 
H    -1.6798380    2.7668795    1.6192176 
H    -3.9134324   -0.0981328   -0.1661429 
H     3.4131916   -1.2260153   -3.5156475 
H     3.2644124   -1.3477667   -1.7461003 
H     2.6350075   -3.5699435   -2.6891263 
H     1.5203229   -2.7911169   -3.8387207 
H    -4.0914394    2.7418008   -0.3027374 
H    -3.9895827    3.5730737    1.2664382 
H    -3.7522514    1.4494956    2.4775710 
H    -5.1585494    1.2605875    1.4036694 
H    -2.0257720   -1.3707613   -1.9320659 
H    -1.2780844   -0.5845536   -3.3468761 
H    -1.2091182    1.6124015   -2.1521263 
H    -2.8753457    0.9922276   -2.0687673 
H     1.1511638    1.8114587   -2.4520835 
H    -1.1250967   -3.5032936   -1.2531768 
H    -1.8533850    3.6376275   -1.3213360 
H    -2.5914337   -0.7935603    2.5091048 
H     2.3087776    1.0536049   -0.3350875 
H     3.0647444    2.4987993   -1.0676658 
H     3.8385541    0.9005305   -1.2494576 
H     2.2847406    1.5486073   -4.6708291 
H     3.1044682    2.7561939   -3.6414989 
H     3.8147548    1.1356299   -3.8446787 
H    -0.1530037   -4.2857331   -4.0740343 
H    -1.7815490   -4.4837997   -3.3895987 
H    -1.1620311   -2.8532785   -3.7532409 
H     1.0334215   -5.5210172   -2.1198782 
H    -0.6216406   -5.9312886   -1.5997756 
H     0.5127611   -5.1780204   -0.4448069 
H     0.3967803    2.6405914   -0.5686657 
H     0.5011035    4.3600532   -1.0449911 
H     0.4790738    3.8979875    0.6811147 
H    -2.9850034    5.3310246    0.0951007 
H    -1.3959719    5.9514246   -0.4160679 
H    -1.6134532    5.3261439    1.2439942 
H    -3.2053012   -2.5553877    0.0490851 
H    -2.5200934   -3.1319899    1.5929376 
H    -1.5807195   -2.0040093    0.5790772 
H    -5.3327114   -1.6847100    1.4022694 
H    -4.5337069   -2.3737298    2.8412025 
H    -5.0599403   -0.6730049    2.8498447 
