123
Energy =
C     3.5700602   -1.2006743    0.3076721 
C     3.0395283   -2.4799676   -0.0320096 
C     2.4758332   -2.7348129   -1.3020032 
H     2.9123165   -3.2327465    0.7569184 
Pd    1.4253147   -0.9812659   -0.2765681 
P    -0.8314707   -1.2375455   -0.8585759 
P     1.1602493    1.2312991    0.4489354 
H     4.0255057   -0.6106151   -0.4994469 
H     2.7191518   -2.0354794   -2.1183747 
C     4.8534742   -0.0687570    4.2603518 
C     3.9159751   -1.1037254    4.1020452 
C     3.4949006   -1.4831169    2.8246345 
C     4.0023085   -0.8376696    1.6717514 
C     4.9453819    0.1987243    1.8471651 
C     5.3663760    0.5785062    3.1275411 
H     5.1794738    0.2294379    5.2621538 
H     3.5067448   -1.6117899    4.9816392 
H     2.7473793   -2.2777802    2.7215321 
H     5.3451491    0.7138252    0.9670762 
H     6.0958294    1.3876706    3.2379402 
C     0.8693282   -6.4948876   -2.6235573 
C     1.7244575   -6.4565740   -1.5116459 
C     2.2446170   -5.2365516   -1.0654582 
C     1.9256350   -4.0307803   -1.7310090 
C     1.0734715   -4.0871370   -2.8578007 
C     0.5438489   -5.3047524   -3.2937501 
H     0.4626803   -7.4498535   -2.9720771 
H     1.9945200   -7.3832182   -0.9945108 
H     2.9308423   -5.2256745   -0.2124124 
H     0.8086783   -3.1584418   -3.3763316 
H    -0.1282746   -5.3273266   -4.1572404 
O    -2.7769102    2.8372304    1.6598726 
O    -3.6354914    2.2205808   -1.1612106 
O    -3.3878282   -1.5899601    3.5880784 
O     0.0546044    4.4313968   -3.4397007 
C    -1.4218939    1.8644842   -0.4727785 
C    -1.9702756    0.9317929    0.5540048 
C    -0.0422467    2.1546694   -0.6058824 
C    -1.8442995   -0.4775353    0.4881577 
C    -2.6680776    1.4817755    1.6599737 
C    -2.3230178    2.5254687   -1.3449474 
C    -2.3464495   -1.2982608    1.5095174 
C     0.4206333    3.0338746   -1.5962322 
C     2.7323533    2.1678357    0.2951037 
C    -1.3642063   -2.9917076   -0.9162097 
C    -1.3992052   -0.4671529   -2.4169267 
C     0.5750018    1.4415770    2.1662412 
C    -0.4920975    3.6344464   -2.4825248 
C    -2.9836492   -0.7205983    2.6229273 
C    -3.1674906    0.6716733    2.6939870 
C    -1.8714214    3.3966022   -2.3514169 
C     0.1954001    2.7062351    2.6646470 
C     3.4721722    2.0343047   -0.9015123 
C    -0.7858903   -3.8827018    0.0143187 
C    -0.4456649    0.0071438   -3.3363572 
C     3.2585964    2.9668154    1.3254044 
C     0.4742164    0.3141493    3.0003915 
C    -2.2942285   -3.4955949   -1.8436569 
C    -2.7717074   -0.3236820   -2.7154189 
C     4.6861741    2.7067157   -1.0693735 
C    -0.8541311    0.6199374   -4.5281319 
C    -0.2615135    2.8278323    3.9799686 
C    -1.1529387   -5.2294497    0.0333410 
C    -0.0002060    0.4458180    4.3107204 
C    -2.6488589   -4.8508987   -1.8227858 
C     4.4800472    3.6331020    1.1503094 
C    -3.1674427    0.2696239   -3.9170407 
C    -0.3753382    1.7014442    4.8237842 
C    -2.2190265    0.7622992   -4.8394325 
C    -2.0911004   -5.7412525   -0.8871984 
C     5.2136614    3.5239752   -0.0455097 
C    -3.5253742    3.4734900    2.6898749 
C    -4.6209803    2.9057932   -1.9264829 
C    -2.4531275   -7.2072948   -0.8753584 
C    -0.8932729    1.8493618    6.2362529 
C     6.5169452    4.2631809   -0.2404135 
C    -2.6685938    1.4420888   -6.1123830 
C    -4.0171515   -1.0757580    4.7590291 
C    -0.8043679    5.0570112   -4.3895691 
H    -2.2567664   -2.3861455    1.4766784 
H     1.4780961    3.2780110   -1.7117432 
H    -3.6658735    1.1232520    3.5511877 
H    -2.5828312    3.8628294   -3.0325051 
H     0.2313706    3.5864917    2.0144835 
H     0.6216970   -0.0790777   -3.1004216 
H     3.0937588    1.3923040   -1.7067328 
H    -0.0301968   -3.5139925    0.7189414 
H     2.7314943    3.0556356    2.2793317 
H    -2.7356240   -2.8399164   -2.5991219 
H     0.7440478   -0.6714490    2.6080100 
H    -3.5270387   -0.6441537   -1.9908539 
H    -0.5500184    3.8158015    4.3574155 
H    -0.0983885    1.0068914   -5.2205755 
H    -0.6856088   -5.9032191    0.7596789 
H     5.2402155    2.5905336   -2.0077332 
H    -0.0941604   -0.4464098    4.9396186 
H    -4.2365515    0.3676759   -4.1390085 
H    -3.3702507   -5.2249160   -2.5580215 
H     4.8754589    4.2420521    1.9710651 
H    -5.5912980    2.5221145   -1.5793262 
H    -4.5721920    3.9980266   -1.7560751 
H    -3.0728767    3.2967438    3.6843317 
H    -4.5110362    2.6957297   -3.0076859 
H    -3.4941131    4.5491085    2.4631807 
H    -4.5760996    3.1265297    2.6944974 
H    -1.5577126   -7.8286351   -1.0603152 
H    -3.2033863   -7.4483980   -1.6455942 
H    -2.8589177   -7.5076765    0.1074146 
H    -3.2729325    0.7593197   -6.7365596 
H    -3.3038284    2.3188578   -5.8871372 
H    -1.8117050    1.7861005   -6.7141546 
H     7.2562210    3.6414544   -0.7740346 
H     6.9535483    4.5764904    0.7219793 
H    -1.8400274    2.4190106    6.2563188 
H    -0.1715249    2.4020320    6.8656037 
H    -1.0698544    0.8690037    6.7086550 
H     6.3571483    5.1739863   -0.8477665 
H    -4.2349552   -1.9479153    5.3921692 
H    -4.9633724   -0.5555085    4.5155290 
H    -3.3471780   -0.3829227    5.3046707 
H    -1.3655855    4.3067253   -4.9799367 
H    -0.1470993    5.6306677   -5.0587955 
H    -1.5176692    5.7467540   -3.8986986 
