123
Energy =
C     3.5406323   -1.4950455   -0.2153996 
C     2.7732224   -2.6450080    0.0844849 
C     1.9519051   -3.2521406   -0.9105100 
H     2.7155878   -3.0070761    1.1198768 
Pd    1.2980874   -1.1387434   -0.5136652 
P    -1.0033230   -1.1258484   -0.9635412 
P     1.2539294    1.0914564    0.2822415 
H     3.7682575   -1.3153762   -1.2777054 
H     2.2814803   -3.1491898   -1.9557746 
C     6.2254619    0.5437547    2.4548831 
C     5.1262873   -0.1552970    2.9808934 
C     4.2409382   -0.8213524    2.1285108 
C     4.4282116   -0.7937310    0.7275621 
C     5.5342438   -0.0808986    0.2130554 
C     6.4273798    0.5749819    1.0675103 
H     6.9185482    1.0630066    3.1248788 
H     4.9574658   -0.1804568    4.0624781 
H     3.3896121   -1.3560416    2.5575722 
H     5.6919177   -0.0444905   -0.8697410 
H     7.2790156    1.1191635    0.6467144 
C    -0.5293346   -6.6799781   -0.1189887 
C     0.2635815   -6.6282564   -1.2743666 
C     1.0651303   -5.5083058   -1.5288723 
C     1.1041310   -4.4275915   -0.6223865 
C     0.3150200   -4.5015503    0.5473882 
C    -0.4988990   -5.6113291    0.7926025 
H    -1.1712352   -7.5463212    0.0706323 
H     0.2487073   -7.4591014   -1.9874991 
H     1.6699919   -5.4667389   -2.4417651 
H     0.3173663   -3.6564787    1.2461228 
H    -1.1220860   -5.6425034    1.6927937 
O    -2.3825259    2.5819918    2.3793586 
O    -3.6962644    2.3408084   -0.3814476 
O    -2.5124158   -1.9079698    3.9765261 
O    -0.3277023    4.9834176   -2.7026814 
C    -1.4167979    1.9171690   -0.0654063 
C    -1.8115114    0.8494460    0.8971304 
C    -0.0643932    2.2123730   -0.3658451 
C    -1.6953257   -0.5274830    0.6327906 
C    -2.2674850    1.2425857    2.1916929 
C    -2.4212560    2.7034453   -0.6793389 
C    -1.9122854   -1.4927116    1.6448006 
C     0.2700355    3.2562249   -1.2398714 
C     2.8150968    1.9788177   -0.0848926 
C    -1.9198032   -2.6644924   -1.3665257 
C    -1.5722336   -0.0230976   -2.3195103 
C     1.0071867    1.1192954    2.0970619 
C    -0.7488522    4.0161130   -1.8444364 
C    -2.3131686   -1.0714332    2.9208287 
C    -2.5255478    0.2959819    3.1868646 
C    -2.1001444    3.7461656   -1.5664177 
C     0.9709015   -0.0892092    2.8197122 
C     3.3012382    1.9216617   -1.4083808 
C    -1.3764255   -3.4939313   -2.3672076 
C    -2.9473629    0.1071071   -2.5987504 
C     3.5445673    2.7028525    0.8748016 
C     0.7990711    2.3324447    2.7828385 
C    -3.1789323   -2.9922063   -0.8247211 
C    -0.6404701    0.6396485   -3.1392136 
C     4.4649553    2.6093312   -1.7691900 
C    -3.3722048    0.9072937   -3.6640530 
C     0.7441044   -0.0858997    4.1983361 
C    -2.0582361   -4.6368996   -2.7900921 
C     0.5872797    2.3264550    4.1670679 
C    -3.8496108   -4.1469127   -1.2489026 
C     4.7165307    3.3748313    0.5064915 
C    -1.0759030    1.4395867   -4.2014691 
C     0.5485321    1.1221535    4.8982916 
C    -2.4482290    1.5901746   -4.4818520 
C    -3.3006330   -4.9953431   -2.2286598 
C     5.1932287    3.3531782   -0.8184928 
C    -2.8817267    3.0614076    3.6253676 
C    -4.7778287    3.0842857   -0.9348846 
C    -4.0159760   -6.2465409   -2.6815821 
C     0.2687410    1.1100646    6.3832364 
C     6.4465327    4.1036222   -1.2047372 
C    -2.9095045    2.4418921   -5.6421394 
C    -2.3012915   -3.3048112    3.7879251 
C    -1.2966531    5.8130824   -3.3386007 
H    -1.7641006   -2.5508438    1.4242747 
H     1.3051755    3.5023923   -1.4837582 
H    -2.8436278    0.5767840    4.1919978 
H    -2.8915336    4.3191929   -2.0487314 
H     1.0817699   -1.0371207    2.2803659 
H    -3.6866360   -0.4073232   -1.9771381 
H     2.7636090    1.3323755   -2.1615105 
H    -0.4076424   -3.2425529   -2.8121263 
H     3.2159766    2.7258600    1.9174562 
H    -3.6425835   -2.3495993   -0.0702510 
H     0.7754300    3.2783472    2.2317646 
H     0.4308070    0.5414274   -2.9288800 
H     0.6884064   -1.0379339    4.7379677 
H    -4.4450175    1.0016727   -3.8686648 
H    -1.6082410   -5.2759463   -3.5575857 
H     4.8220836    2.5571412   -2.8039617 
H     0.4319584    3.2776648    4.6888663 
H    -0.3366120    1.9666283   -4.8148758 
H    -4.8224189   -4.3917299   -0.8073044 
H     5.2806633    3.9174532    1.2732402 
H    -4.7789662    3.0266183   -2.0401384 
H    -5.6936344    2.6179044   -0.5439390 
H    -2.2173388    2.7710647    4.4609060 
H    -4.7402639    4.1440734   -0.6189672 
H    -2.9029482    4.1573147    3.5379233 
H    -3.9036983    2.6839472    3.8172240 
H    -4.4225302   -6.1185562   -3.7021515 
H    -4.8552397   -6.4998700   -2.0136268 
H    -3.3244828   -7.1071415   -2.7129571 
H    -2.3217600    3.3739613   -5.7133947 
H    -2.7778143    1.9037113   -6.5995127 
H    -3.9761874    2.7069681   -5.5540252 
H     6.2148488    5.1651902   -1.4135096 
H     6.9097384    3.6812375   -2.1118551 
H     1.0788537    0.6025320    6.9370181 
H    -0.6645593    0.5570935    6.5974415 
H     0.1645190    2.1301653    6.7871804 
H     7.1914952    4.0863288   -0.3909094 
H    -2.5314649   -3.7787216    4.7529162 
H    -1.2491993   -3.5187730    3.5152690 
H    -2.9699999   -3.7153391    3.0071368 
H    -1.9775286    5.2207102   -3.9799754 
H    -0.7277458    6.5164279   -3.9635850 
H    -1.8920956    6.3797841   -2.5974210 
