123
Energy =
C     2.9083212   -1.5266190   -1.6960505 
C     3.1702126   -2.1523272   -0.4422103 
C     2.2912587   -3.1169079    0.0996882 
H     3.9771179   -1.7635609    0.1924725 
Pd    1.1993944   -1.1498443   -0.3037613 
P    -0.3033802   -0.9422991    1.4832395 
P     0.1349598    0.4887666   -1.5989536 
H     2.3763725   -2.1180821   -2.4538795 
H     1.5707555   -3.5913042   -0.5861681 
C     5.1662831    1.7686022   -3.3064487 
C     5.1553876    1.5438822   -1.9192193 
C     4.4301398    0.4756629   -1.3843405 
C     3.6976686   -0.3967967   -2.2240695 
C     3.7207473   -0.1593939   -3.6160871 
C     4.4473774    0.9112808   -4.1512061 
H     5.7325941    2.6078734   -3.7232192 
H     5.7109797    2.2109864   -1.2516976 
H     4.4171105    0.3281545   -0.2985836 
H     3.1560380   -0.8215262   -4.2812048 
H     4.4473585    1.0766638   -5.2336798 
C     2.8513922   -5.2467719    3.7891796 
C     1.5880165   -5.1965690    3.1785109 
C     1.4163563   -4.5008684    1.9787093 
C     2.5006570   -3.8260602    1.3719314 
C     3.7666427   -3.8835216    1.9985262 
C     3.9396567   -4.5916424    3.1929296 
H     2.9876109   -5.8005451    4.7237782 
H     0.7338360   -5.6995058    3.6424751 
H     0.4266760   -4.4540275    1.5101565 
H     4.6308739   -3.3994144    1.5321309 
H     4.9306528   -4.6401674    3.6562426 
O    -2.3977945    3.6113850    0.2053276 
O    -4.1400342    1.3480750    1.1417996 
O     0.9071043    3.4941417    3.7768499 
O    -4.7526267   -0.8393289   -3.0507512 
C    -2.2536556    0.9456773   -0.1986662 
C    -1.4436015    1.5787508    0.8823288 
C    -1.7009530    0.4640052   -1.4024993 
C    -0.5848097    0.8649441    1.7539810 
C    -1.5456853    2.9829425    1.0581798 
C    -3.6651254    0.8552587   -0.0318916 
C     0.1756846    1.5323952    2.7260285 
C    -2.5077917   -0.1287473   -2.3966689 
C     0.4049863    0.1750446   -3.3891434 
C     0.3615873   -1.5652477    3.0741605 
C    -1.9570283   -1.6908306    1.2742519 
C     0.6419584    2.2116390   -1.2673761 
C    -3.8903982   -0.2469000   -2.1805555 
C     0.0944916    2.9322272    2.8418976 
C    -0.7822397    3.6640298    2.0215345 
C    -4.4740754    0.2587306   -1.0036779 
C    -0.0419363    3.3041472   -1.8411712 
C     0.2447057   -1.1478550   -3.8615136 
C     1.7386950   -1.3826407    3.3283762 
C    -3.0255585   -1.3841641    2.1407953 
C     0.7962317    1.1707647   -4.3002114 
C     1.7153961    2.4541868   -0.3914347 
C    -0.4186994   -2.2344017    4.0347182 
C    -2.1764597   -2.5797285    0.2028631 
C     0.4441705   -1.4540721   -5.2105228 
C    -4.2833022   -1.9619282    1.9319078 
C     0.3625141    4.6103006   -1.5492142 
C     2.3068863   -1.8275273    4.5233932 
C     2.1007726    3.7660024   -0.0940771 
C     0.1632470   -2.6865525    5.2263139 
C     1.0003040    0.8533496   -5.6516161 
C    -3.4418996   -3.1349591   -0.0076292 
C     1.4350262    4.8659135   -0.6678592 
C    -4.5204944   -2.8299606    0.8475794 
C     1.5300684   -2.4907073    5.4961601 
C     0.8272137   -0.4562809   -6.1347528 
C    -2.6315604    5.0070720    0.3593281 
C    -5.5488854    1.3825169    1.3525982 
C     2.1640449   -2.9873484    6.7737151 
C     1.8563327    6.2839875   -0.3572110 
C     1.0627659   -0.8020963   -7.5869208 
C    -5.8976636   -3.3850624    0.5690715 
C     0.8939188    4.9100024    3.9401577 
C    -4.2339500   -1.3817034   -4.2632690 
H     0.8418845    0.9998056    3.4080614 
H    -2.0598964   -0.4821170   -3.3252941 
H    -0.8528220    4.7476750    2.1102523 
H    -5.5527612    0.1503919   -0.8802676 
H    -0.9075739    3.1320086   -2.4891013 
H    -2.8855058   -0.6642962    2.9534233 
H    -0.0369179   -1.9441508   -3.1609393 
H     2.3702275   -0.9009819    2.5716178 
H     0.9644518    2.1959687   -3.9588980 
H    -1.4802396   -2.4232513    3.8531693 
H     2.2274833    1.6086322    0.0786558 
H    -1.3528283   -2.8077527   -0.4844835 
H    -0.1750683    5.4513054   -2.0024029 
H    -5.1050778   -1.7171799    2.6144417 
H     3.3789011   -1.6822859    4.6950056 
H     0.3101058   -2.4863682   -5.5539680 
H     2.9238345    3.9371719    0.6086717 
H    -3.6028905   -3.8025733   -0.8615558 
H    -0.4601780   -3.2125585    5.9581294 
H     1.3120911    1.6448024   -6.3422951 
H    -6.0530748    1.9893199    0.5771051 
H    -5.9798328    0.3635423    1.3595354 
H    -3.0399740    5.2363757    1.3617901 
H    -5.6936604    1.8475911    2.3384843 
H    -1.7059460    5.5909292    0.1938898 
H    -3.3715076    5.2738523   -0.4091634 
H     2.5233365   -2.1426680    7.3897409 
H     3.0398806   -3.6238848    6.5531638 
H     1.4543958   -3.5734044    7.3797443 
H    -5.8660741   -4.4767908    0.4066995 
H    -6.5968118   -3.1780696    1.3955873 
H    -6.3108430   -2.9308940   -0.3513188 
H     1.2659876    0.0970505   -8.1904960 
H     0.1867544   -1.3176989   -8.0193062 
H     2.4651234    6.3341437    0.5609820 
H     0.9815429    6.9461315   -0.2327612 
H     2.4638130    6.7013721   -1.1821190 
H     1.9251236   -1.4859027   -7.6924706 
H     1.6275408    5.1294969    4.7291926 
H    -0.1029880    5.2721902    4.2567960 
H     1.1922680    5.4255565    3.0064090 
H    -5.0956150   -1.8105419   -4.7947332 
H    -3.4902569   -2.1773934   -4.0625728 
H    -3.7673471   -0.5981142   -4.8902766 
