123
Energy =
C     3.1045153   -1.6620466   -1.6697870 
C     3.3992269   -1.8259410   -0.2810616 
C     2.7212518   -2.7752618    0.5160076 
H     4.0638420   -1.1015286    0.2076005 
Pd    1.2733804   -1.2908579   -0.4483264 
P    -0.1202779   -0.8671969    1.4091336 
P     0.0194227    0.0610099   -1.8765127 
H     2.7938007   -2.5523496   -2.2357716 
H     2.2472036   -3.6221966   -0.0045109 
C     4.7188256    1.5670323   -4.0225085 
C     4.5007482    1.7436118   -2.6461985 
C     3.9891562    0.6939863   -1.8766694 
C     3.6798691   -0.5564108   -2.4625433 
C     3.9097575   -0.7179177   -3.8457409 
C     4.4241562    0.3315752   -4.6167586 
H     5.1105060    2.3906881   -4.6281336 
H     4.7040883    2.7098007   -2.1726109 
H     3.7887260    0.8619734   -0.8128118 
H     3.6784311   -1.6772978   -4.3194694 
H     4.5887666    0.1847187   -5.6891775 
C     3.3422982   -3.4809538    4.7129864 
C     2.8096647   -4.4802713    3.8859160 
C     2.5986089   -4.2281801    2.5257542 
C     2.9302388   -2.9768542    1.9594462 
C     3.4630274   -1.9776675    2.8067324 
C     3.6633072   -2.2269370    4.1674113 
H     3.5026508   -3.6747687    5.7786159 
H     2.5533371   -5.4599138    4.3018253 
H     2.1760203   -5.0106159    1.8869042 
H     3.7121827   -0.9917676    2.4049691 
H     4.0714800   -1.4376430    4.8072508 
O    -3.5010039    2.4277335   -0.6487761 
O    -1.7794760    3.2179823    1.7950390 
O    -5.2036025   -1.6772001    1.3421101 
O     2.3922780    4.3560255   -0.4439535 
C    -0.9432592    1.8630988    0.0719457 
C    -2.0510864    0.9180087    0.3998918 
C     0.0184435    1.6422589   -0.9424372 
C    -1.8490985   -0.3018208    1.0926335 
C    -3.3769207    1.2635387    0.0414348 
C    -0.8115028    3.0388079    0.8581873 
C    -2.9265965   -1.1392608    1.4136618 
C     1.1246703    2.4967723   -1.0928214 
C    -1.7200873   -0.4179790   -2.2265720 
C     0.6041784    0.4956523    2.4007556 
C    -0.3050017   -2.3253390    2.5022168 
C     0.6060136    0.3618423   -3.5905397 
C     1.2599987    3.6199675   -0.2602941 
C    -4.2312329   -0.7802069    1.0275100 
C    -4.4649477    0.4255230    0.3436197 
C     0.2726477    3.9189573    0.6960147 
C     0.7587090   -0.7944690   -4.3839282 
C    -2.5344854    0.4319536   -3.0051413 
C     1.8573860    1.0307631    2.0492294 
C    -0.1012746   -2.2952349    3.8934178 
C    -2.2277250   -1.6573492   -1.8041516 
C     0.7765212    1.6223213   -4.1920492 
C    -0.1018137    1.0643256    3.4809239 
C    -0.6752883   -3.5439784    1.8949560 
C    -3.8405524    0.0512260   -3.3194697 
C    -0.2944191   -3.4530700    4.6566311 
C     1.0789558   -0.6915395   -5.7401716 
C     2.4045077    2.0969572    2.7706817 
C     1.1202850    1.7132401   -5.5474464 
C     0.4593715    2.1214246    4.2057660 
C    -3.5415781   -2.0282904   -2.1219439 
C    -0.8838203   -4.6903797    2.6691037 
C     1.2809391    0.5649566   -6.3459527 
C    -0.6988781   -4.6661124    4.0660036 
C     1.7193610    2.6578463    3.8662063 
C    -4.3719743   -1.1803481   -2.8765052 
C    -4.7964907    2.8640715   -1.0478667 
C    -1.7655754    4.3969486    2.5931866 
C     2.3176797    3.7968169    4.6596435 
C     1.6905261    0.6764353   -7.7959360 
C    -5.7972229   -1.5624564   -3.2040646 
C    -0.8753471   -5.9127907    4.9011471 
C    -6.5505454   -1.3955088    0.9701507 
C     2.6056299    5.5058528    0.3718197 
H    -2.7906092   -2.0844495    1.9427930 
H     1.9110484    2.2975473   -1.8222114 
H    -5.4714874    0.6985084    0.0280234 
H     0.3680885    4.7936324    1.3387616 
H     0.6140154   -1.7845706   -3.9341907 
H     0.2230972   -1.3737029    4.3848636 
H    -2.1463601    1.3936679   -3.3557417 
H     2.3831345    0.6294509    1.1753200 
H    -1.5976983   -2.3249827   -1.2059280 
H    -1.1016065    0.6980922    3.7366267 
H     0.6283329    2.5392120   -3.6151699 
H    -0.8055022   -3.5925717    0.8067900 
H     1.1861091   -1.6036653   -6.3382008 
H    -0.1207915   -3.4121053    5.7378144 
H     3.3703367    2.5137378    2.4628687 
H    -4.4634806    0.7208035   -3.9242828 
H     1.2570814    2.7043014   -5.9949295 
H    -1.1860883   -5.6230798    2.1795629 
H    -0.1000909    2.5506202    5.0450228 
H    -3.9305330   -2.9872874   -1.7625397 
H    -1.8428763    5.3057269    1.9667389 
H    -2.6462798    4.3258642    3.2477550 
H    -5.2696022    2.1372811   -1.7356281 
H    -0.8514302    4.4507695    3.2145771 
H    -5.4534193    3.0277630   -0.1724974 
H    -4.6433593    3.8173117   -1.5741763 
H     1.5368578    4.4625709    5.0653879 
H     3.0070337    4.4002223    4.0448306 
H     2.8974252    3.4110768    5.5194229 
H    -1.3383927   -5.6821726    5.8755960 
H    -1.4985871   -6.6625586    4.3868105 
H     0.1060588   -6.3806050    5.1091913 
H    -5.9593171   -1.5991965   -4.2965002 
H    -6.5077977   -0.8176355   -2.7993070 
H     1.3691946   -0.2033127   -8.3777841 
H     2.7922123    0.7457436   -7.8801810 
H     1.2697298    1.5806955   -8.2670775 
H    -6.0600668   -2.5479813   -2.7864535 
H    -7.1463014   -2.2481302    1.3265510 
H    -6.6547523   -1.3088977   -0.1285808 
H    -6.9171605   -0.4673727    1.4490587 
H     3.5713657    5.9255917    0.0554943 
H     2.6557079    5.2347009    1.4442830 
H     1.8112535    6.2615928    0.2214080 
