123
Energy =
C     3.1030389   -1.6825509   -1.6482280 
C     3.3942943   -1.8368628   -0.2577071 
C     2.7117858   -2.7779603    0.5451550 
H     4.0603502   -1.1109647    0.2267639 
Pd    1.2702225   -1.2964226   -0.4340039 
P    -0.1287555   -0.8554806    1.4153072 
P     0.0246024    0.0483584   -1.8763143 
H     2.7906409   -2.5761204   -2.2080972 
H     2.2354394   -3.6269132    0.0300365 
C     4.7350402    1.5225131   -4.0214153 
C     4.5129765    1.7108137   -2.6473067 
C     3.9954076    0.6690512   -1.8711091 
C     3.6839095   -0.5849325   -2.4480512 
C     3.9175469   -0.7581804   -3.8291989 
C     4.4380491    0.2833879   -4.6068080 
H     5.1315789    2.3399317   -4.6322939 
H     4.7179729    2.6800912   -2.1807877 
H     3.7920285    0.8460875   -0.8092843 
H     3.6845048   -1.7205459   -4.2960099 
H     4.6058028    0.1275283   -5.6774642 
C     3.3274607   -3.4589689    4.7467502 
C     2.7881870   -4.4603840    3.9265813 
C     2.5796577   -4.2159491    2.5646501 
C     2.9184526   -2.9703350    1.9901341 
C     3.4565650   -1.9684243    2.8309204 
C     3.6558315   -2.2103461    4.1930619 
H     3.4867489   -3.6465850    5.8136757 
H     2.5226382   -5.4346715    4.3492287 
H     2.1524080   -4.9999765    1.9308815 
H     3.7109616   -0.9864307    2.4228270 
H     4.0688518   -1.4194768    4.8278381 
O    -3.4922849    2.4345581   -0.6778639 
O    -1.7768490    3.2369948    1.7665909 
O    -5.2136935   -1.6545930    1.3288266 
O     2.4065028    4.3454536   -0.4656902 
C    -0.9389923    1.8673254    0.0560618 
C    -2.0507618    0.9278318    0.3865515 
C     0.0252889    1.6362478   -0.9535730 
C    -1.8548310   -0.2880152    1.0879533 
C    -3.3741254    1.2744246    0.0201640 
C    -0.8062305    3.0481413    0.8343943 
C    -2.9357610   -1.1210196    1.4090528 
C     1.1348473    2.4860650   -1.1060908 
C    -1.7147857   -0.4294436   -2.2288655 
C     0.5960628    0.5125530    2.3994351 
C    -0.3209358   -2.3037475    2.5203519 
C     0.6168575    0.3356951   -3.5906675 
C     1.2710568    3.6145732   -0.2809148 
C    -4.2376812   -0.7614637    1.0143020 
C    -4.4654607    0.4408331    0.3224536 
C     0.2813501    3.9235969    0.6697710 
C     0.7671799   -0.8268670   -4.3762627 
C    -2.5254198    0.4167383   -3.0154071 
C     1.8529678    1.0402283    2.0496773 
C    -0.6904897   -3.5276653    1.9237781 
C    -2.2256122   -1.6654239   -1.8003551 
C     0.7933199    1.5910592   -4.1999287 
C    -0.1123042    1.0912969    3.4725947 
C    -0.1119693   -2.2629198    3.9107503 
C    -3.8309490    0.0357898   -3.3317790 
C    -0.8924067   -4.6691716    2.7073072 
C     1.0902879   -0.7342007   -5.7319852 
C     2.4010530    2.1092967    2.7660233 
C     1.1406199    1.6716950   -5.5556516 
C     0.4499111    2.1512477    4.1925702 
C    -3.5387537   -2.0367624   -2.1206080 
C    -0.2984770   -3.4154388    4.6830168 
C     1.2983189    0.5180419   -6.3459024 
C    -0.7032940   -4.6337997    4.1031844 
C     1.7133595    2.6804170    3.8547460 
C    -4.3653281   -1.1926094   -2.8835502 
C    -4.7850186    2.8721481   -1.0844612 
C    -1.7618995    4.4215096    2.5564717 
C     2.3134384    3.8221668    4.6428531 
C     1.7109274    0.6133765   -7.7961617 
C    -5.7881050   -1.5777938   -3.2183549 
C    -0.9171954   -5.8623364    4.9564705 
C    -6.5576814   -1.3726799    0.9463080 
C     2.6209947    5.5001331    0.3428572 
H    -2.8042870   -2.0632885    1.9445024 
H     1.9230513    2.2791585   -1.8313497 
H    -5.4698557    0.7142114    0.0004754 
H     0.3774208    4.8024853    1.3066452 
H     0.6178123   -1.8132710   -3.9199618 
H    -0.8184461   -3.5865208    0.8358751 
H    -2.1349323    1.3759932   -3.3701068 
H     2.3809672    0.6305768    1.1810272 
H    -1.5987555   -2.3298215   -1.1952070 
H    -1.1144495    0.7304241    3.7267230 
H     0.6471708    2.5124363   -3.6297396 
H     0.2177376   -1.3385449    4.3931971 
H     1.1951755   -1.6507238   -6.3237407 
H    -1.1865202   -5.6081594    2.2249456 
H     3.3698792    2.5201338    2.4596077 
H    -4.4512678    0.7028334   -3.9420523 
H     1.2821918    2.6591517   -6.0094404 
H    -0.1125554   -3.3678670    5.7618705 
H    -0.1113440    2.5882747    5.0265647 
H    -3.9303771   -2.9927470   -1.7561197 
H    -0.8496436    4.4768758    3.1804955 
H    -1.8343090    5.3260873    1.9233877 
H    -5.2575758    2.1426650   -1.7697447 
H    -2.6449756    4.3577653    3.2085941 
H    -5.4448298    3.0427871   -0.2125885 
H    -4.6272158    3.8218565   -1.6157472 
H     1.5333695    4.4831266    5.0575763 
H     2.9927817    4.4299720    4.0211491 
H     2.9050526    3.4389471    5.4956546 
H    -0.9316484   -6.7820102    4.3489126 
H    -0.1257740   -5.9606465    5.7199508 
H    -1.8818320   -5.8006543    5.4943476 
H    -5.9272916   -1.6753580   -4.3104647 
H    -6.4989119   -0.8046925   -2.8721569 
H     1.4156893    1.5786763   -8.2397744 
H     1.2681899   -0.1986053   -8.3973251 
H     2.8108586    0.5294409   -7.8897290 
H    -6.0697162   -2.5363569   -2.7528260 
H    -7.1571144   -2.2228337    1.3024500 
H    -6.6542183   -1.2907364   -0.1534892 
H    -6.9262258   -0.4418939    1.4185558 
H     3.5895602    5.9140098    0.0274625 
H     2.6658319    5.2362835    1.4173719 
H     1.8300847    6.2577912    0.1840452 
