123
Energy =
C     1.7466964   -2.7671467   -1.8491814 
C     2.6884181   -2.6127248   -0.8062711 
C     2.3235098   -2.9189406    0.5446771 
H     3.6347715   -2.0960756   -1.0098709 
Pd    0.9838676   -1.3443532   -0.2419427 
P    -0.1952479   -0.7954289    1.6992040 
P     0.1072215    0.3921170   -1.5284647 
H     0.8835662   -3.4196491   -1.6405242 
H     1.6142081   -3.7433439    0.7011923 
C     2.1814729   -1.9017899   -6.0347820 
C     3.2734080   -1.7112876   -5.1729038 
C     3.1516468   -1.9767016   -3.8057078 
C     1.9317549   -2.4499742   -3.2713625 
C     0.8401649   -2.6373734   -4.1523813 
C     0.9612093   -2.3630354   -5.5180966 
H     2.2833569   -1.6936423   -7.1048729 
H     4.2293970   -1.3560909   -5.5706026 
H     4.0172163   -1.8288970   -3.1534032 
H    -0.1138605   -2.9989751   -3.7538661 
H     0.1038596   -2.5147766   -6.1819063 
C     4.6209893   -1.8721721    4.0340493 
C     3.6685390   -2.8998760    4.0843844 
C     2.9395594   -3.2435807    2.9393943 
C     3.1452928   -2.5644061    1.7178780 
C     4.1101461   -1.5286150    1.6822999 
C     4.8397004   -1.1893634    2.8252135 
H     5.1902047   -1.6017048    4.9293324 
H     3.4870926   -3.4373195    5.0210284 
H     2.1912602   -4.0419449    2.9890380 
H     4.2760887   -0.9682034    0.7549328 
H     5.5796424   -0.3832183    2.7780371 
O    -3.6772548    2.3102353   -0.4961389 
O    -2.3251539    3.0478073    2.1466862 
O    -5.1172617   -2.1206700    0.9184714 
O     1.5608092    5.1143965    0.3084853 
C    -1.1694876    1.9384244    0.4287731 
C    -2.1824718    0.8512218    0.5678948 
C    -0.1241592    1.9195828   -0.5164188 
C    -1.9303652   -0.3905366    1.2030639 
C    -3.4926200    1.0942074    0.0825636 
C    -1.2857924    3.0801268    1.2722530 
C    -2.9392619   -1.3583766    1.3192003 
C     0.8050224    2.9775184   -0.6036410 
C    -1.4916471    0.1015268   -2.3606601 
C     0.4002721    0.6156849    2.6883941 
C    -0.3063349   -2.2326358    2.8352550 
C     1.3447190    0.8661182   -2.7964210 
C     0.6934963    4.0664460    0.2766826 
C    -4.2192761   -1.1068542    0.7900545 
C    -4.5069110    0.1251206    0.1768432 
C    -0.3607048    4.1267610    1.2074556 
C     1.0364578    1.0921206   -4.1497565 
C    -2.1898079    1.1364291   -3.0124725 
C     1.6565691    1.1797759    2.3927369 
C     0.0104239   -2.1487174    4.2039123 
C    -2.0722133   -1.1810269   -2.2886050 
C     2.6849981    1.0086859   -2.3727107 
C    -0.3782390    1.1654007    3.7262136 
C    -0.6307978   -3.4966181    2.2942172 
C    -3.4377304    0.8790223   -3.5941539 
C    -0.0235464   -3.2948154    5.0097513 
C     2.0399133    1.4862976   -5.0434888 
C     2.1148479    2.2887394    3.1083016 
C     3.6754498    1.4245553   -3.2690850 
C     0.0997053    2.2663034    4.4466263 
C    -3.3256486   -1.4223729   -2.8565061 
C    -0.6720303   -4.6330108    3.1082955 
C     3.3707917    1.6746744   -4.6220443 
C    -0.3709056   -4.5543478    4.4849648 
C     1.3418388    2.8581073    4.1409264 
C    -4.0312961   -0.3967363   -3.5202144 
C    -4.9781996    2.6776234   -0.9426466 
C    -2.5608683    4.1827792    2.9755206 
C     1.8242400    4.0930535    4.8652933 
C     4.4442570    2.0776530   -5.6058963 
C    -5.3957544   -0.6651786   -4.1125312 
C    -0.4352616   -5.7782331    5.3685417 
C    -6.4335300   -1.9459201    0.4014237 
C     2.6600550    5.1184337   -0.5999184 
H    -2.7740963   -2.3153283    1.8176917 
H     1.5979225    2.9469789   -1.3506128 
H    -5.4967262    0.3257684   -0.2321473 
H    -0.4120311    4.9942620    1.8672525 
H     0.0134471    0.9546201   -4.5122005 
H     0.3070024   -1.1920692    4.6431582 
H    -1.7722229    2.1480920   -3.0414839 
H     2.2613203    0.7525891    1.5857620 
H    -1.5486447   -1.9781763   -1.7482562 
H    -1.3661324    0.7510364    3.9523586 
H     2.9482319    0.8002484   -1.3277394 
H    -0.8425699   -3.5933329    1.2223763 
H     1.7804409    1.6506273   -6.0953905 
H     0.2371137   -3.2064064    6.0705236 
H     3.0838896    2.7318594    2.8527309 
H    -3.9698011    1.6911413   -4.1027334 
H     4.7063442    1.5435372   -2.9160068 
H    -0.9313338   -5.6017107    2.6664154 
H    -0.5112348    2.6847184    5.2546205 
H    -3.7737168   -2.4186254   -2.7684458 
H    -3.4551654    3.9411604    3.5680272 
H    -1.7079141    4.3675780    3.6554564 
H    -5.3304575    2.0073320   -1.7498653 
H    -2.7500947    5.0875687    2.3678193 
H    -5.7052137    2.6686658   -0.1086128 
H    -4.8824842    3.7001676   -1.3356531 
H     2.8657058    3.9739205    5.2123118 
H     1.1933300    4.3278574    5.7380203 
H     1.8066808    4.9656052    4.1852452 
H     0.2975427   -5.7216358    6.1908657 
H    -1.4382073   -5.8696835    5.8270621 
H    -0.2488895   -6.7019881    4.7959510 
H    -5.3452206   -1.4523088   -4.8863681 
H    -5.8260459    0.2389634   -4.5728915 
H     4.7759299    1.2017550   -6.1956900 
H     5.3303389    2.4901869   -5.0960788 
H     4.0720660    2.8289157   -6.3230746 
H    -6.0975493   -1.0226710   -3.3360193 
H    -6.9685853   -2.8825050    0.6142806 
H    -6.4165745   -1.7734669   -0.6928236 
H    -6.9556066   -1.1050198    0.8968435 
H     3.3145918    4.2388137   -0.4440612 
H     3.2238206    6.0380093   -0.3868395 
H     2.3163114    5.1326611   -1.6517921 
