123
Energy =
C     1.7164544   -2.7875753   -1.9247768 
C     2.6561608   -2.6256813   -0.8810533 
C     2.2809270   -2.9088597    0.4722011 
H     3.6093249   -2.1235121   -1.0889399 
Pd    0.9657534   -1.3277926   -0.3409942 
P    -0.2232165   -0.7459455    1.5835933 
P     0.1141908    0.4001303   -1.6557571 
H     0.8444413   -3.4247934   -1.7059328 
H     1.5619379   -3.7235953    0.6347195 
C     2.1728623   -2.0260341   -6.1269546 
C     3.2628980   -1.8214078   -5.2659226 
C     3.1339303   -2.0518588   -3.8931460 
C     1.9082017   -2.5020177   -3.3522120 
C     0.8176629   -2.7011960   -4.2322383 
C     0.9464562   -2.4634381   -5.6039652 
H     2.2804694   -1.8457476   -7.2015493 
H     4.2220868   -1.4803291   -5.6682589 
H     3.9978820   -1.8938095   -3.2411480 
H    -0.1413330   -3.0432021   -3.8281115 
H     0.0903642   -2.6241277   -6.2672561 
C     4.5602051   -1.8428267    3.9675759 
C     3.5941873   -2.8576561    4.0232443 
C     2.8722735   -3.2086154    2.8760318 
C     3.0980691   -2.5493551    1.6469507 
C     4.0769112   -1.5270711    1.6059310 
C     4.7997577   -1.1809197    2.7511489 
H     5.1243382   -1.5669188    4.8644131 
H     3.3976989   -3.3794943    4.9657595 
H     2.1142503   -3.9976720    2.9287077 
H     4.2592056   -0.9822625    0.6724507 
H     5.5509117   -0.3855343    2.6993138 
O    -3.6576600    2.3928467   -0.6317004 
O    -2.2796205    3.1101771    2.0079503 
O    -5.3115496   -1.8532380    0.7799999 
O     1.7628727    4.9841413    0.0475428 
C    -1.1462022    1.9785966    0.2950428 
C    -2.1822307    0.9143299    0.4415917 
C    -0.0917787    1.9344041   -0.6487147 
C    -1.9530877   -0.3177580    1.0897108 
C    -3.4960454    1.1805378   -0.0404949 
C    -1.2370731    3.1170090    1.1350314 
C    -2.9821903   -1.2719127    1.2345972 
C     0.8543259    2.9674984   -0.7233137 
C    -1.4938710    0.1244873   -2.4725990 
C     0.3880684    0.6519148    2.5844019 
C    -0.3662902   -2.1847550    2.7169129 
C     1.3478959    0.8370221   -2.9380138 
C     0.7706234    4.0604706    0.1593379 
C    -4.2582818   -0.9947848    0.7153973 
C    -4.5191923    0.2347256    0.0806676 
C    -0.2850774    4.1498749    1.0831532 
C     1.0316051    1.0153899   -4.2974993 
C    -2.0942833   -1.1479762   -2.3858199 
C     1.6541141    1.1954892    2.3037045 
C    -0.0824267   -2.1097917    4.0937279 
C    -2.1780557    1.1642184   -3.1314431 
C     2.6923747    0.9769451   -2.5294209 
C    -0.3906016    1.2082844    3.6217895 
C    -0.6992366   -3.4415318    2.1655898 
C    -3.3554446   -1.3734934   -2.9426304 
C    -0.1533165   -3.2569304    4.8947432 
C     2.0328970    1.3604811   -5.2121791 
C     2.1295944    2.2884429    3.0384641 
C     3.6814295    1.3441762   -3.4488817 
C     0.1023612    2.2879827    4.3592335 
C    -3.4336794    0.9219379   -3.7025354 
C    -0.7775407   -4.5803463    2.9751503 
C     3.3697957    1.5467097   -4.8071348 
C    -0.5037867   -4.5111043    4.3572416 
C     1.3634997    2.8555669    4.0736871 
C    -4.0494815   -0.3419759   -3.6096194 
C    -4.9549637    2.7686509   -1.0852241 
C    -2.5019158    4.2486922    2.8332491 
C     1.8566274    4.0554527    4.8494469 
C     4.4322489    1.9243584   -5.8128530 
C    -5.4291356   -0.5882099   -4.1749788 
C    -0.5491932   -5.7438172    5.2303024 
C    -5.1288509   -3.1140983    1.4204218 
C     1.7594907    6.1085387    0.9234769 
H    -2.7891756   -2.2072563    1.7600987 
H     1.6712794    2.9577922   -1.4469631 
H    -5.5255055    0.4084657   -0.3036009 
H    -0.3567007    4.9960167    1.7658872 
H     0.0047067    0.8743662   -4.6473271 
H     0.2127436   -1.1578122    4.5439382 
H    -1.5783693   -1.9490297   -1.8436215 
H     2.2573678    0.7690652    1.4955009 
H    -1.7418980    2.1674503   -3.1763048 
H    -1.3895287    0.8122011    3.8318092 
H     2.9629879    0.8017350   -1.4804418 
H    -0.8923412   -3.5299226    1.0893066 
H     1.7683568    1.4833035   -6.2685136 
H     0.0771446   -3.1741830    5.9630514 
H     3.1087772    2.7146502    2.7940646 
H    -3.8208853   -2.3605355   -2.8434681 
H     4.7165114    1.4611253   -3.1084686 
H    -1.0451935   -5.5432516    2.5253744 
H    -0.5078220    2.7088851    5.1669443 
H    -3.9546755    1.7373701   -4.2171789 
H    -3.4065448    4.0244107    3.4168013 
H    -1.6537441    4.4172535    3.5241493 
H    -5.3162172    2.0851696   -1.8767178 
H    -2.6696846    5.1574737    2.2248348 
H    -5.6807600    2.7839864   -0.2504782 
H    -4.8461605    3.7816283   -1.4990677 
H     2.8755063    4.3453980    4.5453064 
H     1.8661494    3.8534913    5.9354535 
H     1.1922687    4.9256205    4.6899408 
H     0.4741045   -6.0821625    5.4792699 
H    -1.0642545   -5.5383667    6.1846124 
H    -1.0652185   -6.5785561    4.7287249 
H    -5.7989422    0.2818769   -4.7414033 
H    -6.1488068   -0.7994181   -3.3620508 
H     4.2202504    2.9131665   -6.2586693 
H     4.4641211    1.1961013   -6.6436804 
H     5.4328217    1.9654793   -5.3528102 
H    -5.4347724   -1.4648877   -4.8467921 
H    -6.0969623   -3.6305525    1.3509144 
H    -4.8526787   -2.9910154    2.4850315 
H    -4.3520222   -3.7167285    0.9106982 
H     0.8533563    6.7287479    0.7834732 
H     2.6481691    6.6995532    0.6591691 
H     1.8292167    5.7933846    1.9828684 
