123
Energy =
C     2.9628659   -1.9252908   -1.6451103 
C     3.3076682   -1.9167759   -0.2615619 
C     2.6202109   -2.7421456    0.6590112 
H     4.0325477   -1.1774878    0.1047533 
Pd    1.2191632   -1.2643874   -0.3896767 
P    -0.1645862   -0.8071212    1.4768018 
P    -0.0105619    0.1722100   -1.7759309 
H     2.5533113   -2.8641572   -2.0482027 
H     2.0984123   -3.6182600    0.2434549 
C     4.8788945    0.6133911   -4.5463048 
C     4.4812200    1.1417319   -3.3066397 
C     3.8706181    0.3189566   -2.3556038 
C     3.6288938   -1.0462023   -2.6284673 
C     4.0345007   -1.5641283   -3.8768061 
C     4.6624914   -0.7441675   -4.8228154 
H     5.3526423    1.2592435   -5.2927327 
H     4.6404747    2.2030593   -3.0880777 
H     3.5364772    0.7384490   -1.3992608 
H     3.8536561   -2.6205459   -4.1051931 
H     4.9734108   -1.1642978   -5.7850176 
C     3.4272427   -3.0999564    4.8678485 
C     2.8581080   -4.1619927    4.1504232 
C     2.5892461   -4.0220489    2.7844455 
C     2.8955556   -2.8226678    2.1033459 
C     3.4758566   -1.7635605    2.8381659 
C     3.7329615   -1.8994834    4.2053820 
H     3.6306005   -3.2042252    5.9386744 
H     2.6137735   -5.1009496    4.6575224 
H     2.1351839   -4.8510888    2.2321048 
H     3.7174168   -0.8197869    2.3423911 
H     4.1732878   -1.0633167    4.7584434 
O    -3.6048990    2.4466057   -0.5452716 
O    -1.9515060    3.2504520    1.9098880 
O    -5.2251191   -1.7531793    1.3121552 
O     2.1895402    4.5818209   -0.0416251 
C    -1.0401942    1.9201312    0.2002374 
C    -2.1331751    0.9479311    0.4868437 
C    -0.0467054    1.7158912   -0.7747871 
C    -1.9057451   -0.2839059    1.1481127 
C    -3.4615797    1.2695793    0.1182808 
C    -0.9518078    3.0959019    1.0048279 
C    -2.9645556   -1.1578341    1.4315707 
C     1.0668920    2.5821450   -0.8841959 
C    -1.7331797   -0.3318549   -2.1728314 
C     0.5292838    0.5641378    2.4730621 
C    -0.3362297   -2.2680626    2.5701350 
C     0.5956649    0.6609995   -3.4380453 
C     1.1486873    3.7040008   -0.0467933 
C    -4.2731341   -0.8221789    1.0368036 
C    -4.5306668    0.3955643    0.3833427 
C     0.1212584    3.9819715    0.8766747 
C     1.0148474   -0.3724722   -4.2981575 
C    -2.5652584    0.5179084   -2.9324071 
C     1.7786555    1.1183415    2.1325491 
C    -0.6717327   -3.4986121    1.9636541 
C    -2.2127499   -1.5957914   -1.7896740 
C     0.5449842    1.9788163   -3.9363475 
C    -0.1931253    1.1165678    3.5493377 
C    -0.1545898   -2.2262667    3.9626623 
C    -3.8581811    0.1114159   -3.2690228 
C    -0.8613900   -4.6454141    2.7396746 
C     1.4059664   -0.0911370   -5.6093558 
C     2.3005153    2.1923778    2.8579703 
C     0.9504727    2.2515073   -5.2490241 
C     0.3451580    2.1831672    4.2796035 
C    -3.5129531   -1.9929340   -2.1298225 
C    -0.3327936   -3.3855657    4.7301318 
C     1.4011431    1.2281441   -6.1047880 
C    -0.6986283   -4.6096493    4.1410543 
C     1.5937634    2.7449484    3.9455243 
C    -4.3594623   -1.1467939   -2.8685003 
C    -4.9069191    2.8677201   -0.9400858 
C    -1.9715977    4.4240798    2.7184206 
C     2.1496561    3.9324657    4.6966191 
C     1.8971161    1.5301778   -7.4990811 
C    -5.7654863   -1.5649244   -3.2330145 
C    -0.9043684   -5.8534692    4.9740516 
C    -6.5739632   -1.4964680    0.9285687 
C     3.2739006    4.3580417   -0.9390529 
H    -2.8121105   -2.1122291    1.9390084 
H     1.8485240    2.3694378   -1.6149181 
H    -5.5399794    0.6504401    0.0615458 
H     0.2244801    4.8694681    1.5028526 
H     1.0357572   -1.4053508   -3.9339844 
H    -0.7837659   -3.5556741    0.8736784 
H    -2.2042837    1.5011497   -3.2494257 
H     2.3193656    0.7240680    1.2642353 
H    -1.5710040   -2.2635833   -1.2035351 
H    -1.1873521    0.7317845    3.7993741 
H     0.1858290    2.7970855   -3.3049226 
H     0.1486555   -1.2975303    4.4538696 
H     1.7389224   -0.9095426   -6.2567729 
H    -1.1281763   -5.5888274    2.2496874 
H     3.2596966    2.6297816    2.5588905 
H    -4.4946555    0.7827289   -3.8575364 
H     0.9109308    3.2834356   -5.6164232 
H    -0.1696737   -3.3364515    5.8124175 
H    -0.2252000    2.5994891    5.1177905 
H    -3.8787545   -2.9716717   -1.8005634 
H    -1.0727395    4.4829471    3.3605598 
H    -2.0418149    5.3357554    2.0958866 
H    -5.3604082    2.1520346   -1.6523071 
H    -2.8676968    4.3376381    3.3497807 
H    -5.5720972    2.9913238   -0.0644970 
H    -4.7706080    3.8392941   -1.4365836 
H     1.5198102    4.2002772    5.5604831 
H     2.2149509    4.8142393    4.0321916 
H     3.1711819    3.7297610    5.0645977 
H    -0.4118045   -6.7284884    4.5147906 
H    -0.5084144   -5.7275843    5.9949459 
H    -1.9807822   -6.0937051    5.0577444 
H    -6.4984002   -0.7904007   -2.9420817 
H    -6.0481651   -2.5102189   -2.7415237 
H     1.5861626    0.7509500   -8.2158556 
H     3.0035919    1.5628553   -7.5114807 
H     1.5301348    2.5047313   -7.8607728 
H    -5.8654405   -1.7079663   -4.3247478 
H    -7.1511046   -2.3755596    1.2495069 
H    -6.6646776   -1.3782191   -0.1684625 
H    -6.9725243   -0.5939890    1.4303652 
H     3.9793925    5.1849066   -0.7734225 
H     2.9373822    4.3663886   -1.9935124 
H     3.7795126    3.3957255   -0.7261126 
