123
Energy =
C     3.6346407   -0.5969914   -0.7321776 
C     3.3365830   -1.9477057   -0.4410709 
C     2.3196932   -2.6500367   -1.1486902 
H     3.8131488   -2.4219341    0.4247792 
Pd    1.4464660   -0.8469008   -0.0993282 
P    -0.8377032   -1.2737180   -0.5717807 
P     0.9732724    1.2675287    0.7620272 
H     3.2807069   -0.2079199   -1.6997309 
H     2.1015697   -2.3154074   -2.1721341 
C     6.8041983    1.8021960    0.8939138 
C     6.5470267    0.5353858    1.4445011 
C     5.5010207   -0.2495815    0.9511265 
C     4.6951267    0.2113238   -0.1166345 
C     4.9601295    1.4944793   -0.6506540 
C     6.0010628    2.2827391   -0.1509282 
H     7.6272175    2.4118516    1.2810699 
H     7.1700053    0.1569986    2.2616258 
H     5.3207302   -1.2355857    1.3912336 
H     4.3412630    1.8688057   -1.4735566 
H     6.1857334    3.2737978   -0.5768426 
C     1.2241242   -6.7554232   -0.4653207 
C     2.0202696   -6.0855228    0.4774805 
C     2.3637869   -4.7438115    0.2846886 
C     1.9337647   -4.0436398   -0.8671837 
C     1.1186641   -4.7283608   -1.7978162 
C     0.7660851   -6.0670549   -1.5990205 
H     0.9613628   -7.8077655   -0.3153320 
H     2.3760190   -6.6133868    1.3686115 
H     2.9782444   -4.2402112    1.0381112 
H     0.7601282   -4.1963280   -2.6860499 
H     0.1326764   -6.5760077   -2.3325301 
O    -3.0586175    3.1358700    0.9262318 
O    -3.3430858    2.1607014   -1.9519948 
O    -4.5141485   -0.8228354    3.1520859 
O     0.9491734    3.3950492   -3.8841596 
C    -1.3547157    1.8225747   -0.7532394 
C    -2.1733475    1.0750566    0.2441393 
C     0.0438659    1.9956928   -0.6466635 
C    -2.1091671   -0.3279071    0.3804456 
C    -3.0727320    1.7874417    1.0844749 
C    -1.9943177    2.3199351   -1.9200444 
C    -2.9013218   -1.0101016    1.3264029 
C     0.7939545    2.5206983   -1.7154785 
C     2.3169743    2.4286107    1.2133922 
C    -1.3302585   -3.0205676   -0.3249486 
C    -1.2014128   -0.8459710   -2.3207065 
C    -0.0393253    1.3477534    2.2917162 
C     0.1416907    2.9455678   -2.8855392 
C    -3.7569820   -0.2747504    2.1629698 
C    -3.8550344    1.1234194    2.0346798 
C    -1.2616772    2.8855458   -2.9768563 
C    -0.3378479    0.1735619    3.0071007 
C     3.2332171    1.9530834    2.1765215 
C    -0.8347298   -3.6755265    0.8230601 
C    -0.1575471   -0.5541606   -3.2178932 
C     2.4069351    3.7673990    0.7903127 
C    -0.4521696    2.5923113    2.8079513 
C    -2.2017192   -3.7178826   -1.1809214 
C    -2.5344618   -0.7683571   -2.7799069 
C     4.2131076    2.7973713    2.6989060 
C    -0.4350321   -0.2055450   -4.5455321 
C    -1.0787444    0.2388031    4.1914742 
C    -1.2322343   -4.9805737    1.1227296 
C    -1.1976324    2.6445843    3.9904875 
C    -2.5851673   -5.0311762   -0.8777278 
C     3.4077308    4.6017214    1.3101232 
C    -2.8006325   -0.4364612   -4.1115335 
C    -1.5411932    1.4711270    4.6931054 
C    -1.7590699   -0.1453725   -5.0186135 
C    -2.1159485   -5.6840664    0.2775306 
C     4.3272950    4.1361648    2.2674661 
C    -3.9382026    3.9302412    1.7184922 
C    -4.0819053    2.7070400   -3.0399779 
C    -2.5012645   -7.1110786    0.5872320 
C    -2.4169257    1.5137133    5.9232617 
C     5.4245920    5.0239125    2.8052111 
C    -2.0643524    0.2179084   -6.4536986 
C    -4.4446300   -2.2321292    3.3627563 
C     0.3584462    3.8163651   -5.1120054 
H    -2.8262563   -2.0939430    1.4176390 
H     1.8836472    2.5954586   -1.6756967 
H    -4.5244286    1.6532991    2.7141094 
H    -1.7733774    3.2258867   -3.8765402 
H    -0.0047663   -0.7952836    2.6175116 
H     0.8782357   -0.5608624   -2.8631288 
H     3.1672631    0.9155028    2.5237027 
H    -0.1248602   -3.1566307    1.4784157 
H     1.6915714    4.1715104    0.0679947 
H    -2.5802240   -3.2446504   -2.0914926 
H    -0.2057563    3.5172329    2.2767517 
H    -3.3637613   -0.9333318   -2.0844580 
H    -1.3219479   -0.6867708    4.7257114 
H     0.3932836    0.0412519   -5.2190149 
H    -0.8307839   -5.4728669    2.0151099 
H     4.9137979    2.4083769    3.4453358 
H    -1.5239703    3.6172643    4.3763388 
H    -3.8415314   -0.3861205   -4.4515719 
H    -3.2614505   -5.5608437   -1.5582116 
H     3.4653495    5.6414830    0.9683645 
H    -3.7945661    2.2354226   -3.9990690 
H    -5.1375150    2.4847236   -2.8271911 
H    -3.7141458    3.8202940    2.7963124 
H    -3.9407874    3.8022187   -3.1086268 
H    -3.7615366    4.9711366    1.4112294 
H    -4.9955818    3.6631970    1.5326371 
H    -1.6399923   -7.7847526    0.4202334 
H    -3.3304666   -7.4577897   -0.0504932 
H    -2.8017680   -7.2257276    1.6434040 
H    -1.1986218    0.6912599   -6.9459239 
H    -2.3275192   -0.6836066   -7.0379493 
H    -2.9239617    0.9079892   -6.5198390 
H     5.4896746    4.9584013    3.9054287 
H     5.2691431    6.0792148    2.5281206 
H    -1.9845421    0.9191386    6.7471862 
H    -3.4084417    1.0797654    5.6928959 
H    -2.5693017    2.5444123    6.2827233 
H     6.4061575    4.7090417    2.4030401 
H    -5.1213361   -2.4445757    4.2028258 
H    -3.4167584   -2.5488176    3.6258058 
H    -4.7794421   -2.7916014    2.4686772 
H    -0.2073989    2.9927730   -5.5890182 
H     1.1941670    4.1113235   -5.7627399 
H    -0.3119376    4.6840211   -4.9617465 
