123
Energy =
C     2.9867456   -1.5144571   -1.7412156 
C     3.2308242   -2.1597941   -0.4932856 
C     2.3411621   -3.1262459    0.0263629 
H     4.0316243   -1.7833665    0.1564455 
Pd    1.2624096   -1.1493802   -0.3683403 
P    -0.2469239   -0.9453601    1.4137603 
P     0.2119355    0.4951461   -1.6660944 
H     2.4644443   -2.0922554   -2.5160297 
H     1.6248225   -3.5882687   -0.6722367 
C     5.2757997    1.8024290   -3.2604951 
C     5.2434905    1.5538704   -1.8776302 
C     4.5076716    0.4784985   -1.3724091 
C     3.7863095   -0.3776679   -2.2382857 
C     3.8303557   -0.1161277   -3.6253739 
C     4.5673836    0.9619775   -4.1306295 
H     5.8502869    2.6473151   -3.6541314 
H     5.7905016    2.2079181   -1.1903462 
H     4.4772468    0.3126576   -0.2896013 
H     3.2737745   -0.7646218   -4.3103779 
H     4.5832850    1.1463313   -5.2098804 
C     2.8511085   -5.2862883    3.7058622 
C     1.5914772   -5.2133610    3.0898015 
C     1.4360825   -4.5097278    1.8923893 
C     2.5333739   -3.8488224    1.2940424 
C     3.7956625   -3.9298994    1.9253435 
C     3.9523293   -4.6463165    3.1171067 
H     2.9742971   -5.8462771    4.6385830 
H     0.7273702   -5.7047049    3.5478351 
H     0.4492521   -4.4446843    1.4199674 
H     4.6692620   -3.4573604    1.4645597 
H     4.9404985   -4.7130636    3.5842001 
O    -2.3693770    3.5924588    0.1368233 
O    -4.0892832    1.2933248    1.0572237 
O     0.9171007    3.4957562    3.7267650 
O    -4.4736399   -0.9848574   -3.2272505 
C    -2.1930550    0.9212649   -0.2719665 
C    -1.3982274    1.5670121    0.8125210 
C    -1.6239153    0.4414598   -1.4764403 
C    -0.5387928    0.8591189    1.6882416 
C    -1.5151258    2.9693208    0.9916629 
C    -3.5962767    0.8012085   -0.1107155 
C     0.2106858    1.5299236    2.6664136 
C    -2.4159815   -0.1733430   -2.4575363 
C     0.5062009    0.2055408   -3.4554732 
C     0.4287432   -1.5635774    3.0029175 
C    -1.8991861   -1.7048929    1.2210670 
C     0.6960053    2.2208933   -1.3157020 
C    -3.7980309   -0.3291921   -2.2455903 
C     0.1157275    2.9286232    2.7850939 
C    -0.7631399    3.6543849    1.9614502 
C    -4.3994074    0.1735039   -1.0785455 
C     0.0061925    3.3088165   -1.8903562 
C     0.3604947   -1.1107690   -3.9494144 
C     1.8082489   -1.3813422    3.2438866 
C    -2.9597941   -1.4043923    2.1032577 
C     0.9180503    1.2148039   -4.3429853 
C     1.7636124    2.4700674   -0.4340736 
C    -0.3429890   -2.2275582    3.9738345 
C    -2.1231094   -2.6043390    0.1627201 
C     0.5931259   -1.3973867   -5.2973583 
C    -4.2071729   -2.0091383    1.9280721 
C     0.3985352    4.6178567   -1.5932170 
C     2.3877598   -1.8242124    4.4341771 
C     2.1368522    3.7840493   -0.1320954 
C     0.2498645   -2.6768877    5.1611030 
C     1.1541569    0.9169305   -5.6931484 
C    -3.3839817   -3.1884912   -0.0159711 
C     1.4650357    4.8801319   -0.7071285 
C    -4.4462849   -2.9025271    0.8613501 
C     1.6197742   -2.4836947    5.4163805 
C     0.9933100   -0.3859338   -6.1986208 
C    -2.6102731    4.9870316    0.2898128 
C    -5.4971398    1.3014406    1.2676620 
C     2.2670559   -2.9825296    6.6863542 
C     1.8804540    6.2997354   -0.3954218 
C     1.2323786   -0.7031211   -7.6565110 
C    -5.8159043   -3.5103588    0.6626984 
C     0.8895380    4.9108179    3.8939513 
C    -5.8732808   -1.2051775   -3.0725889 
H     0.8783831    1.0011338    3.3499969 
H    -1.9996120   -0.5444018   -3.3956612 
H    -0.8437904    4.7371094    2.0528149 
H    -5.4702094    0.0596439   -0.9120045 
H    -0.8530753    3.1309420   -2.5451684 
H    -2.8164511   -0.6714863    2.9035819 
H     0.0660704   -1.9185053   -3.2677267 
H     2.4324951   -0.9012137    2.4800753 
H     1.0799043    2.2346085   -3.9830662 
H    -1.4065306   -2.4156715    3.8039515 
H     2.2818285    1.6275713    0.0347149 
H    -1.3109691   -2.8236222   -0.5405556 
H    -0.1430836    5.4555324   -2.0477249 
H    -5.0195942   -1.7723048    2.6250214 
H     3.4615985   -1.6797949    4.5949163 
H     0.4699122   -2.4249934   -5.6578699 
H     2.9558318    3.9601998    0.5742488 
H    -3.5477983   -3.8668292   -0.8605324 
H    -0.3672270   -3.1991872    5.9009018 
H     1.4832912    1.7180055   -6.3644148 
H    -6.0152669    1.8903803    0.4872361 
H    -5.9083285    0.2740152    1.2884855 
H    -3.0261365    5.2143457    1.2897508 
H    -5.6515481    1.7740876    2.2484975 
H    -1.6863487    5.5751598    0.1305621 
H    -3.3464540    5.2509515   -0.4833194 
H     2.6794044   -2.1434498    7.2758276 
H     3.1086310   -3.6601465    6.4537765 
H     1.5508409   -3.5277664    7.3219892 
H    -5.8402058   -4.1813308   -0.2113086 
H    -6.1264796   -4.0916271    1.5495400 
H    -6.5776502   -2.7227628    0.5115863 
H     1.7343545    0.1290898   -8.1760689 
H     0.2741720   -0.8957134   -8.1741695 
H     2.3947782    6.3665426    0.5782003 
H     1.0126944    6.9816005   -0.3803867 
H     2.5798411    6.6792858   -1.1641395 
H     1.8515203   -1.6099363   -7.7722203 
H     1.6158474    5.1349690    4.6884331 
H    -0.1127919    5.2629038    4.2049354 
H     1.1891524    5.4319335    2.9637294 
H    -6.1926535   -1.7567001   -3.9685531 
H    -6.4300295   -0.2502320   -3.0135579 
H    -6.0877146   -1.8121827   -2.1715506 
