123
Energy =
C     3.0053903   -1.7749345   -1.7880798 
C     3.3352672   -1.9133000   -0.4212919 
C     2.6426657   -2.8274296    0.4311706 
H     4.0410370   -1.2024918    0.0280040 
Pd    1.2090828   -1.3524466   -0.4359622 
P    -0.5195294   -1.4034572    1.1288806 
P     0.3662989    0.5710320   -1.5156910 
H     2.4833914   -2.6180676   -2.2673907 
H     2.2678000   -3.7600237   -0.0152369 
C     4.8700077    0.8981080   -4.5942652 
C     4.2138764   -0.2614766   -5.0315452 
C     3.5982407   -1.1115969   -4.1061288 
C     3.6373143   -0.8285457   -2.7223006 
C     4.2981172    0.3473423   -2.2969032 
C     4.9047170    1.2006579   -3.2229322 
H     5.3477910    1.5669629   -5.3175529 
H     4.1762625   -0.5028833   -6.0987312 
H     3.0824623   -2.0124996   -4.4545841 
H     4.3294002    0.6069852   -1.2352145 
H     5.4068574    2.1086740   -2.8731544 
C     3.2091133   -2.9077701    4.7022756 
C     2.8739763   -4.0782106    4.0064629 
C     2.7013480   -4.0488258    2.6172696 
C     2.8617922   -2.8487346    1.8918453 
C     3.2075255   -1.6780639    2.6077212 
C     3.3775747   -1.7056820    3.9955270 
H     3.3326833   -2.9291143    5.7898861 
H     2.7387136   -5.0196863    4.5486322 
H     2.4350296   -4.9666037    2.0833022 
H     3.3048796   -0.7240240    2.0781346 
H     3.6168714   -0.7791015    4.5278809 
O    -1.5133029    3.6649381    1.0352757 
O    -3.7650724    1.5736808    1.3910491 
O     1.7577833    1.9716914    4.2195099 
O    -4.4233275    0.8592427   -3.3806516 
C    -1.9370734    1.2150660   -0.0265126 
C    -1.0647271    1.3662036    1.1750209 
C    -1.4278770    0.9640647   -1.3251884 
C    -0.4084011    0.2932194    1.8233375 
C    -0.8305885    2.6766193    1.6709693 
C    -3.3375920    1.3684085    0.1174600 
C     0.5286349    0.5266163    2.8454481 
C    -2.2832300    0.8723387   -2.4322389 
C     0.6445946    0.5481795   -3.3257113 
C    -0.4753478   -2.6287898    2.4958221 
C    -2.2311110   -1.6836094    0.5204571 
C     1.2108009    2.0487450   -0.8313977 
C    -3.6726953    1.0096719   -2.2567689 
C     0.7886251    1.8399225    3.2704882 
C     0.0805624    2.9204230    2.7132656 
C    -4.2080277    1.2628745   -0.9818722 
C     2.2563806    1.8897298    0.0954704 
C     0.2298721   -0.6043419   -4.0294154 
C    -0.5977140   -2.3367192    3.8661100 
C    -2.4732824   -2.0389637   -0.8164597 
C     1.2459272    1.5982206   -4.0394955 
C     0.7937200    3.3525938   -1.1736355 
C    -0.4512827   -3.9800094    2.0893547 
C    -3.3124824   -1.6263275    1.4255042 
C     0.3708610   -0.6786604   -5.4175252 
C    -3.7797475   -2.2966093   -1.2538588 
C     2.8833930    3.0057807    0.6614836 
C    -0.6653309   -3.3774145    4.8031088 
C     1.4346779    4.4619380   -0.6132832 
C    -0.5427440   -5.0088462    3.0294251 
C     1.3999675    1.5052729   -5.4297312 
C    -4.6097221   -1.8885141    0.9803624 
C     2.4851782    4.3110477    0.3180464 
C    -4.8694814   -2.2187388   -0.3682516 
C    -0.6372385   -4.7277087    4.4080652 
C     0.9587445    0.3776152   -6.1454857 
C    -1.3889087    5.0051888    1.4986833 
C    -5.1568385    1.7478401    1.6372677 
C    -0.6726793   -5.8426556    5.4269486 
C     3.1288174    5.5213452    0.9551392 
C     1.1454239    0.2713933   -7.6411000 
C    -6.2836149   -2.4739390   -0.8369493 
C     2.0923033    3.2777234    4.6844378 
C    -5.8413363    0.9690449   -3.2849605 
H     1.0966065   -0.2853363    3.3020206 
H    -1.9113770    0.6758053   -3.4396845 
H     0.2693932    3.9402692    3.0471930 
H    -5.2847189    1.3514249   -0.8395846 
H     2.5505767    0.8791276    0.4001398 
H    -1.6369675   -2.0931681   -1.5222584 
H    -0.2091200   -1.4473028   -3.4817494 
H    -0.6569461   -1.3011648    4.2119848 
H     1.6119935    2.4855404   -3.5153765 
H    -0.3712423   -4.2244705    1.0228802 
H    -0.0480064    3.4969042   -1.8590246 
H    -3.1367992   -1.3681348    2.4748420 
H     3.6815932    2.8575830    1.3976868 
H    -3.9541171   -2.5467472   -2.3061084 
H    -0.7518889   -3.1290834    5.8669872 
H     0.0307715   -1.5766687   -5.9459758 
H     1.1043576    5.4687978   -0.8941557 
H    -5.4413131   -1.8394611    1.6932129 
H    -0.5288649   -6.0507503    2.6895428 
H     1.8830018    2.3286758   -5.9673168 
H    -5.5529151    2.6310768    1.1009716 
H    -5.7309100    0.8481500    1.3442713 
H    -0.3477457    5.3686381    1.4038458 
H    -5.2525804    1.9042822    2.7214979 
H    -2.0438417    5.6077349    0.8528381 
H    -1.7197647    5.0980873    2.5504829 
H     0.3552816   -6.1691740    5.6764783 
H    -1.2117825   -6.7249509    5.0424949 
H    -1.1530596   -5.5201868    6.3654872 
H    -6.3203210   -2.6935463   -1.9164101 
H    -6.7339205   -3.3277282   -0.2988919 
H    -6.9281381   -1.5964366   -0.6426172 
H     1.9102909   -0.4898173   -7.8852625 
H     1.4708439    1.2288951   -8.0789127 
H     4.0182941    5.2456997    1.5449153 
H     2.4178796    6.0309516    1.6334146 
H     3.4340260    6.2614970    0.1948020 
H     0.2104016   -0.0385610   -8.1399830 
H     2.4557625    3.9184567    3.8576175 
H     2.8972843    3.1390724    5.4204706 
H     1.2285616    3.7658061    5.1748039 
H    -6.2248339    0.8159294   -4.3039835 
H    -6.1463857    1.9705746   -2.9257990 
H    -6.2608084    0.1941236   -2.6148332 
