123
Energy =
C     2.0981632   -2.5752985   -1.8434977 
C     2.8489545   -2.4433341   -0.6536837 
C     2.3029972   -2.7962985    0.6153925 
H     3.8044058   -1.9039998   -0.6937317 
Pd    1.0164564   -1.2388937   -0.3400526 
P    -0.2761760   -0.7351330    1.5494427 
P     0.0145281    0.4203008   -1.6592033 
H     1.2118207   -3.2296809   -1.8165699 
H     1.5767903   -3.6203994    0.6414219 
C     3.4790528   -1.6545916   -5.8072943 
C     4.4088125   -1.8304946   -4.7710573 
C     3.9707858   -2.1202056   -3.4739576 
C     2.5916536   -2.2482006   -3.1910862 
C     1.6677410   -2.0799658   -4.2480544 
C     2.1060854   -1.7777821   -5.5402931 
H     3.8229598   -1.4313718   -6.8225688 
H     5.4814576   -1.7514429   -4.9765708 
H     4.7093316   -2.2808211   -2.6817871 
H     0.5947923   -2.1640769   -4.0403504 
H     1.3756316   -1.6354302   -6.3428637 
C     4.2067739   -2.0065846    4.3975548 
C     3.2781239   -3.0485897    4.2664687 
C     2.6688169   -3.2988667    3.0308184 
C     2.9761676   -2.5131862    1.8982795 
C     3.9172538   -1.4665278    2.0456412 
C     4.5247428   -1.2170976    3.2792489 
H     4.6809592   -1.8073849    5.3640771 
H     3.0210043   -3.6692251    5.1312184 
H     1.9383152   -4.1096472    2.9374651 
H     4.1620011   -0.8277521    1.1894700 
H     5.2454868   -0.3980770    3.3738915 
O    -3.7203647    2.5496914   -0.4246548 
O    -2.2137060    3.2085482    2.0833154 
O    -5.4063424   -1.7196843    0.8661594 
O     1.7322657    5.0460563    0.1345060 
C    -1.1708753    2.0287027    0.3398524 
C    -2.2339774    0.9979716    0.5233020 
C    -0.1509712    1.9477156   -0.6307003 
C    -2.0069053   -0.2650150    1.1069324 
C    -3.5630084    1.3156684    0.1213594 
C    -1.1985331    3.1791626    1.1812617 
C    -3.0499509   -1.2032796    1.2560251 
C     0.8385754    2.9476071   -0.7407680 
C    -1.6535798    0.0620740   -2.3134557 
C     0.3453423    0.6269604    2.5926919 
C    -0.4633909   -2.2125982    2.6250515 
C     1.0486590    0.9372779   -3.0844538 
C     0.8092388    4.0469435    0.1327508 
C    -4.3402238   -0.8764955    0.8078001 
C    -4.6022392    0.3896287    0.2514267 
C    -0.2187560    4.1719482    1.0868364 
C     0.5222078    1.3165561   -4.3329707 
C    -2.1481472   -1.2557199   -2.2406417 
C     1.6060152    1.1892087    2.3129520 
C    -0.2723535   -2.1840069    4.0179278 
C    -2.4710553    1.0718366   -2.8602553 
C     2.4491887    0.9536416   -2.9075208 
C    -0.4289597    1.1567046    3.6439073 
C    -0.7834619   -3.4445482    2.0121487 
C    -3.4377520   -1.5531618   -2.6904946 
C    -0.4194672   -3.3538383    4.7762954 
C     1.3770323    1.7231957   -5.3655021 
C     2.0789965    2.2667145    3.0656169 
C     3.2931138    1.3703176   -3.9398905 
C     0.0637025    2.2248538    4.4026775 
C    -3.7534383    0.7582544   -3.3254500 
C    -0.9350728   -4.6055584    2.7774110 
C     2.7733110    1.7622576   -5.1907700 
C    -0.7539555   -4.5831597    4.1773042 
C     1.3157200    2.8071667    4.1208579 
C    -4.2671021   -0.5507115   -3.2336649 
C    -5.0328846    2.9900016   -0.7626810 
C    -2.3645693    4.3581601    2.9113620 
C     1.8171842    4.0043026    4.8943256 
C     3.6962629    2.1606630   -6.3177837 
C    -5.6818187   -0.8728516   -3.6543229 
C    -0.8723258   -5.8467477    4.9977862 
C    -5.2182294   -3.0221102    1.4156297 
C     2.7995384    4.9918055   -0.8099416 
H    -2.8547020   -2.1671614    1.7255652 
H     1.6113862    2.8653699   -1.5058221 
H    -5.6201664    0.6030775   -0.0784242 
H    -0.2064969    5.0452296    1.7408767 
H    -0.5560332    1.2850750   -4.5122174 
H     0.0098692   -1.2525481    4.5165755 
H    -1.5235251   -2.0414464   -1.7986089 
H     2.1980333    0.7923250    1.4818731 
H    -2.1228767    2.1093205   -2.8832733 
H    -1.4268635    0.7558071    3.8496515 
H     2.8772282    0.6246836   -1.9523446 
H    -0.9148085   -3.4925461    0.9237859 
H     0.9471168    2.0118243   -6.3313242 
H    -0.2613052   -3.3080967    5.8597196 
H     3.0508381    2.7095761    2.8206342 
H    -3.8167184   -2.5776736   -2.6030004 
H     4.3771402    1.3692890   -3.7818144 
H    -1.1908261   -5.5484849    2.2806033 
H    -0.5449550    2.6264494    5.2208559 
H    -4.3779163    1.5521857   -3.7505425 
H    -3.2552543    4.1689244    3.5278874 
H    -1.4852619    4.4972704    3.5682489 
H    -5.6924057    2.9943941    0.1253234 
H    -2.5192936    5.2693938    2.3036226 
H    -4.9169217    4.0153469   -1.1426427 
H    -5.4803924    2.3540627   -1.5498038 
H     1.1905262    4.2118217    5.7769494 
H     1.8129455    4.9054985    4.2525112 
H     2.8569172    3.8550748    5.2347547 
H     0.1022306   -6.3688594    5.0468064 
H    -1.1812627   -5.6281866    6.0334090 
H    -1.5986570   -6.5495323    4.5562952 
H    -6.3053853   -1.0767180   -2.7633514 
H    -5.7173298   -1.7754332   -4.2891926 
H     3.1614570    2.7146439   -7.1063849 
H     4.1422646    1.2606359   -6.7818150 
H     4.5299527    2.7858016   -5.9544264 
H    -6.1429383   -0.0399612   -4.2096631 
H    -6.1966516   -3.5197096    1.3534931 
H    -4.8967457   -2.9725377    2.4734270 
H    -4.4723835   -3.5997785    0.8356425 
H     3.4182331    4.0845100   -0.6670240 
H     3.4117847    5.8860094   -0.6244174 
H     2.4213264    5.0130217   -1.8497377 
