123
Energy =
C     3.5480828   -0.5271442   -0.8540282 
C     3.2670549   -1.8952094   -0.6409146 
C     2.2383130   -2.5625542   -1.3676261 
H     3.7666624   -2.4180944    0.1830417 
Pd    1.3733172   -0.8394997   -0.1918530 
P    -0.9063384   -1.2275584   -0.7133641 
P     0.8872270    1.1949546    0.8367713 
H     3.1632449   -0.0805935   -1.7842651 
H     2.0024615   -2.1780042   -2.3693605 
C     6.7170588    1.8157209    0.8562679 
C     5.8679310    2.3572118   -0.1203217 
C     4.8319205    1.5828106   -0.6505686 
C     4.6143396    0.2543716   -0.2145306 
C     5.4687085   -0.2698591    0.7838959 
C     6.5112507    0.5008993    1.3065265 
H     7.5367448    2.4145364    1.2665116 
H     6.0143996    3.3843522   -0.4686536 
H     4.1781795    2.0038329   -1.4226236 
H     5.3295386   -1.2937835    1.1449430 
H     7.1717978    0.0736689    2.0681422 
C     1.1940991   -6.7077457   -0.8684502 
C     1.9543926   -6.0613574    0.1194078 
C     2.2794810   -4.7079514   -0.0139560 
C     1.8669799   -3.9716087   -1.1498277 
C     1.0857269   -4.6328055   -2.1252416 
C     0.7520258   -5.9839538   -1.9862386 
H     0.9452870   -7.7690010   -0.7646199 
H     2.2950621   -6.6165966    0.9997259 
H     2.8625645   -4.2217580    0.7752139 
H     0.7401720   -4.0736175   -3.0017451 
H     0.1453782   -6.4745904   -2.7540772 
O    -3.1376934    3.0581994    1.0958332 
O    -3.3893672    2.3283066   -1.8512431 
O    -4.6316900   -1.0573078    2.9858493 
O     0.7602893    3.7899176   -3.6887582 
C    -1.4161304    1.8808326   -0.6556024 
C    -2.2491242    1.0547522    0.2655398 
C    -0.0260251    2.0447406   -0.5121870 
C    -2.1871161   -0.3547383    0.2946921 
C    -3.1585057    1.7017446    1.1470403 
C    -2.0425647    2.4836668   -1.7875982 
C    -2.9936243   -1.1058875    1.1738040 
C     0.7507395    2.6695920   -1.5167740 
C     2.2314814    2.3137499    1.3852062 
C    -1.4035807   -2.9869541   -0.6164097 
C    -1.2455306   -0.6507114   -2.4225775 
C    -0.1369185    1.1487512    2.3594411 
C     0.1119348    3.2006146   -2.6470064 
C    -3.8604055   -0.4357607    2.0528163 
C    -3.9549837    0.9682483    2.0320774 
C    -1.2912860    3.1408970   -2.7659535 
C    -0.4380231   -0.0809987    2.9731019 
C     3.1837290    1.7491900    2.2608387 
C    -0.9477472   -3.7280206    0.4951176 
C    -0.1906916   -0.2693713   -3.2755285 
C     2.2877955    3.6941415    1.1166388 
C    -0.5630047    2.3453771    2.9695989 
C    -2.2407197   -3.6165821   -1.5551786 
C    -2.5714340   -0.5363612   -2.8886490 
C     4.1668905    2.5467179    2.8471796 
C    -0.4533152    0.2109453   -4.5616710 
C    -1.1939854   -0.1155125    4.1491474 
C    -1.3532499   -5.0519743    0.6796295 
C    -1.3238470    2.2980361    4.1424868 
C    -2.6315810   -4.9491038   -1.3674594 
C     3.2921892    4.4824099    1.6976482 
C    -2.8229294   -0.0742713   -4.1859026 
C    -1.6699243    1.0698796    4.7428772 
C    -1.7743717    0.3175723   -5.0417532 
C    -2.2036508   -5.6884098   -0.2486710 
C     4.2481554    3.9276911    2.5679790 
C    -4.0322067    3.7921028    1.9288244 
C    -4.1065972    2.9695972   -2.9031176 
C    -2.5933207   -7.1360996   -0.0672501 
C    -2.5632659    1.0083750    5.9594650 
C     5.3435671    4.7691172    3.1791634 
C    -2.0476490    0.8701779   -6.4212833 
C    -4.5685631   -2.4790953    3.0862014 
C     2.1813378    3.8816571   -3.6432857 
H    -2.9220962   -2.1937668    1.1816977 
H     1.8352410    2.7223884   -1.4072342 
H    -4.6328730    1.4456658    2.7413144 
H    -1.7465452    3.5782247   -3.6557936 
H    -0.0959031   -1.0135249    2.5096323 
H     0.8406086   -0.3116764   -2.9096158 
H     3.1451758    0.6773370    2.4867359 
H    -0.2637142   -3.2614416    1.2140473 
H     1.5431201    4.1638307    0.4667083 
H    -2.5870969   -3.0739942   -2.4394973 
H    -0.3172365    3.3116730    2.5177005 
H    -3.4091993   -0.7757052   -2.2257507 
H    -1.4389526   -1.0825206    4.6031642 
H     0.3800313    0.5303114   -5.1974147 
H    -0.9842856   -5.6110882    1.5463207 
H     4.8965177    2.0883727    3.5232523 
H    -1.6617196    3.2345776    4.6008860 
H    -3.8592396    0.0019111   -4.5341924 
H    -3.2817197   -5.4247557   -2.1104703 
H     3.3236381    5.5554202    1.4762279 
H    -5.1661485    2.7302158   -2.7326733 
H    -3.9628977    4.0658831   -2.8713475 
H    -3.8284683    3.6012595    2.9994309 
H    -3.7964719    2.5847885   -3.8928434 
H    -3.8498842    4.8528514    1.7038233 
H    -5.0857396    3.5410847    1.7033734 
H    -1.7436800   -7.7952542   -0.3276307 
H    -3.4437643   -7.4137030   -0.7109353 
H    -2.8620883   -7.3527894    0.9811165 
H    -1.7125833    1.9217364   -6.4909380 
H    -1.4972881    0.3038948   -7.1936511 
H    -3.1209635    0.8352529   -6.6691781 
H     5.3689507    4.6532523    4.2772825 
H     5.2149451    5.8387291    2.9472315 
H    -3.5487986    0.5902389    5.6795622 
H    -2.7267691    2.0057585    6.3990624 
H    -2.1393467    0.3507572    6.7386365 
H     6.3326744    4.4533903    2.7978186 
H    -5.2571742   -2.7543126    3.8978769 
H    -3.5451627   -2.8190328    3.3372941 
H    -4.8926504   -2.9653714    2.1465519 
H     2.5226372    4.4697526   -2.7696614 
H     2.4818333    4.3940565   -4.5684679 
H     2.6485384    2.8774083   -3.6119712 
