123
Energy =
C     3.7055888   -0.4125241   -0.4437457 
C     3.4871440   -1.7202237    0.0452585 
C     2.5651362   -2.6041831   -0.5859183 
H     3.9453110   -2.0141487    0.9969022 
Pd    1.5043901   -0.7375780    0.1174472 
P    -0.7054200   -1.4096986   -0.4147796 
P     0.8282359    1.4382414    0.6168398 
H     3.3795892   -0.2062974   -1.4751869 
H     2.3871640   -2.4578448   -1.6600471 
C     6.5888270    2.4589926    0.9311955 
C     6.3995546    1.2707373    1.6568639 
C     5.4458250    0.3359331    1.2440420 
C     4.6671282    0.5636761    0.0846733 
C     4.8631198    1.7705346   -0.6276008 
C     5.8110234    2.7093047   -0.2091507 
H     7.3396141    3.1866462    1.2563399 
H     7.0034422    1.0715958    2.5482514 
H     5.3181498   -0.5856329    1.8210428 
H     4.2646713    1.9647239   -1.5245372 
H     5.9431338    3.6376973   -0.7733479 
C     1.7398489   -6.6221463    0.7180422 
C     2.3999183   -5.7351277    1.5836366 
C     2.6516714   -4.4182711    1.1864011 
C     2.2651634   -3.9610065   -0.0957665 
C     1.5848468   -4.8617220   -0.9472882 
C     1.3236417   -6.1757110   -0.5454279 
H     1.5491159   -7.6546221    1.0288018 
H     2.7201654   -6.0728564    2.5749236 
H     3.1582171   -3.7417642    1.8826023 
H     1.2598917   -4.5196556   -1.9361614 
H     0.7944306   -6.8547720   -1.2215291 
O    -3.3288079    2.9786146    0.2753158 
O    -3.3523830    1.5719213   -2.4315830 
O    -4.6528461   -0.7185692    2.9809079 
O     0.9550927    2.8654577   -4.2893951 
C    -1.4281987    1.5762831   -1.0891822 
C    -2.2558367    0.9180515   -0.0377919 
C    -0.0561551    1.8772668   -0.9336235 
C    -2.1028154   -0.4406345    0.3105205 
C    -3.2587890    1.6706929    0.6331373 
C    -2.0240432    1.8450365   -2.3503944 
C    -2.9083929   -1.0391418    1.3007425 
C     0.7218310    2.3033285   -2.0261878 
C     2.0564335    2.7542056    0.9581674 
C    -1.0907690   -3.1369868    0.0567409 
C    -0.9735572   -1.2668893   -2.2262693 
C    -0.2874929    1.6630234    2.0577941 
C     0.1188898    2.4994088   -3.2803737 
C    -3.8694050   -0.2609327    1.9666261 
C    -4.0563949    1.0915445    1.6250780 
C    -1.2669309    2.3102562   -3.4383793 
C    -0.5510486    0.5870598    2.9253076 
C     2.9495335    2.4942173    2.0200804 
C    -0.6500075   -3.5745039    1.3242911 
C     0.1072604   -1.0192629   -3.0919681 
C     2.0712734    4.0233964    0.3508040 
C    -0.8229078    2.9326008    2.3530339 
C    -1.8325969   -4.0220664   -0.7464404 
C    -2.2725751   -1.3677819   -2.7712588 
C     3.8339990    3.4798550    2.4586812 
C    -0.0995153   -0.8867704   -4.4708721 
C    -1.3770291    0.7658586    4.0395054 
C    -0.9776972   -4.8509425    1.7880287 
C    -1.6517845    3.0982369    3.4677197 
C    -2.1454311   -5.3047610   -0.2772176 
C     2.9775641    5.0002775    0.7888991 
C    -2.4664734   -1.2512156   -4.1505073 
C    -1.9605020    2.0172370    4.3188986 
C    -1.3868989   -1.0041894   -5.0260628 
C    -1.7321114   -5.7413218    0.9956945 
C     3.8738407    4.7494145    1.8438311 
C    -4.3158856    3.8063141    0.8859020 
C    -4.0557996    1.8913211   -3.6278452 
C    -2.0351798   -7.1378830    1.4839772 
C    -2.9219370    2.1693896    5.4741935 
C     4.8718074    5.7892861    2.2956321 
C    -1.6179216   -0.8651698   -6.5133279 
C    -4.5001798   -2.0727386    3.4030495 
C     0.4169804    3.0547313   -5.5965810 
H    -2.7642417   -2.0888459    1.5574607 
H     1.7979089    2.4738406   -1.9384465 
H    -4.8068159    1.6591942    2.1774066 
H    -1.7414901    2.4725126   -4.4056024 
H    -0.1230883   -0.3986066    2.7085512 
H     1.1126583   -0.8892645   -2.6782946 
H     2.9408637    1.5135933    2.5096998 
H    -0.0391378   -2.9081425    1.9451485 
H     1.3697024    4.2630921   -0.4537177 
H    -2.1646838   -3.7190609   -1.7435097 
H    -0.6069096    3.7858205    1.7020743 
H    -3.1348249   -1.5029902   -2.1102335 
H    -1.5916354   -0.0876083    4.6928189 
H     0.7543864   -0.6701978   -5.1224244 
H    -0.6214143   -5.1725220    2.7726228 
H     4.5184893    3.2574359    3.2841370 
H    -2.0732437    4.0874138    3.6806659 
H    -3.4810602   -1.3379801   -4.5564365 
H    -2.7213345   -5.9821322   -0.9180585 
H     2.9780412    5.9828708    0.3033938 
H    -3.9912359    2.9726759   -3.8525161 
H    -3.6717561    1.3104645   -4.4880638 
H    -4.1611284    3.8723661    1.9793798 
H    -5.1039713    1.6159765   -3.4419653 
H    -4.1921360    4.8023117    0.4367296 
H    -5.3359816    3.4308790    0.6802127 
H    -1.1351277   -7.7756265    1.3974569 
H    -2.8392306   -7.6101964    0.8964703 
H    -2.3315357   -7.1379182    2.5471156 
H    -0.7205234   -0.4876196   -7.0304984 
H    -1.8796700   -1.8406542   -6.9633837 
H    -2.4563634   -0.1775653   -6.7252749 
H     4.8888890    5.8766716    3.3960669 
H     4.6486669    6.7815360    1.8709983 
H    -2.4970619    1.7623517    6.4087080 
H    -3.8513950    1.6064104    5.2657260 
H    -3.1912243    3.2240737    5.6472716 
H     5.8930298    5.5065146    1.9768667 
H    -5.2169812   -2.2144690    4.2245740 
H    -3.4734523   -2.2658175    3.7696036 
H    -4.7324965   -2.7800641    2.5844051 
H    -0.0532625    2.1267975   -5.9758216 
H     1.2695334    3.3214234   -6.2375939 
H    -0.3245007    3.8762329   -5.6137984 
