123
Energy =
C     2.9238771   -2.4540552    0.2157556 
C     3.1833348   -1.9517327   -1.0799599 
C     3.5295048   -0.5733622   -1.2607393 
H     2.9533558   -2.5737344   -1.9541968 
Pd    1.5455488   -0.7107978   -0.2984157 
P     0.9354605    1.5435357   -0.3111717 
P    -0.5169394   -1.4990673    0.4507819 
H     3.3094898   -1.8588625    1.0590910 
H     4.1194145   -0.0941549   -0.4673066 
C     1.7733660   -6.4192649    1.3995778 
C     1.9254265   -5.3996618    2.3514402 
C     2.2941553   -4.1137840    1.9442738 
C     2.5141540   -3.8166685    0.5780567 
C     2.3448652   -4.8517279   -0.3696367 
C     1.9830933   -6.1383375    0.0398628 
H     1.4925902   -7.4296350    1.7144889 
H     1.7616634   -5.6085140    3.4136699 
H     2.4134417   -3.3207854    2.6906631 
H     2.5097509   -4.6561374   -1.4331272 
H     1.8630949   -6.9292935   -0.7073585 
C     3.6608764    1.4786047   -5.0447694 
C     4.3725743    1.9666377   -3.9396322 
C     4.3362674    1.2823324   -2.7185106 
C     3.5855496    0.0942515   -2.5754776 
C     2.8709320   -0.3858569   -3.6996153 
C     2.9108288    0.2966872   -4.9187344 
H     3.6877377    2.0138983   -5.9995178 
H     4.9578799    2.8882743   -4.0246928 
H     4.8859079    1.6757133   -1.8565278 
H     2.2587046   -1.2909090   -3.6115877 
H     2.3488579   -0.0894652   -5.7758587 
O    -3.3166855    1.1079626    2.5691487 
O    -3.2493927    2.8420101    0.0354999 
O     0.6421574    3.0823311    4.6030815 
O    -4.1920708   -0.7622812   -3.0979633 
C    -2.0967324    0.8044950    0.1748964 
C    -1.3533870    1.4040361    1.3214745 
C    -1.8950237   -0.5175258   -0.2898475 
C    -0.0208275    1.8784867    1.2354923 
C    -2.0337512    1.5579653    2.5560896 
C    -3.0885840    1.5883744   -0.4663244 
C     0.6137519    2.4525068    2.3472386 
C    -2.6284731   -1.0224264   -1.3736771 
C    -0.8191390   -1.5033415    2.2513363 
C    -0.0891755    2.1467212   -1.6957296 
C     2.4168600    2.6259092   -0.2440121 
C    -0.7618743   -3.2049658   -0.1724586 
C    -3.5696393   -0.2036613   -2.0250074 
C    -0.0703387    2.5498670    3.5736424 
C    -1.4020915    2.1127319    3.6829626 
C    -3.8164076    1.1018046   -1.5660549 
C    -0.4734566   -3.4514456   -1.5334946 
C     0.2325615   -1.1548944    3.1203180 
C    -0.6882010    3.4239968   -1.6656558 
C     2.6186302    3.6997945   -1.1291492 
C    -2.0906645   -1.7887384    2.7891074 
C    -1.1868015   -4.2764707    0.6333870 
C    -0.2938440    1.3142854   -2.8107700 
C     3.4435792    2.3066404    0.6743169 
C     0.0168920   -1.0894462    4.5008764 
C     3.8034544    4.4489033   -1.0758264 
C    -0.6647372   -4.7234789   -2.0826150 
C    -1.4721577    3.8504048   -2.7416566 
C    -1.3541440   -5.5507593    0.0776188 
C    -1.0935274    1.7466444   -3.8751889 
C    -2.2905984   -1.7382790    4.1728864 
C     4.6163804    3.0642621    0.7262721 
C    -1.1144848   -5.7969251   -1.2881940 
C     4.8194899    4.1544136   -0.1489898 
C    -1.6967448    3.0184772   -3.8600430 
C    -1.2465837   -1.3815244    5.0521578 
C    -4.1033274    1.2864004    3.7419811 
C    -4.2755428    3.6750456   -0.4934639 
C    -2.5584204    3.4902255   -5.0089600 
C    -1.3264849   -7.1719788   -1.8772058 
C    -1.4770259   -1.3223253    6.5449469 
C     6.0898015    4.9696827   -0.0814595 
C     0.0238840    3.1986221    5.8819544 
C    -5.1419258    0.0132488   -3.8244023 
H     1.6332922    2.8395463    2.3014697 
H    -2.4952868   -2.0402624   -1.7443017 
H    -1.9357842    2.1864885    4.6300978 
H    -4.5447604    1.7390547   -2.0667398 
H    -0.0987909   -2.6369553   -2.1662332 
H     1.8622578    3.9463585   -1.8796867 
H     1.2123956   -0.8966117    2.7027802 
H    -0.5604459    4.0704202   -0.7912137 
H    -2.9277118   -2.0236842    2.1235845 
H     0.1622227    0.3190630   -2.8315573 
H    -1.3748980   -4.1234635    1.7001507 
H     3.3249571    1.4495587    1.3486970 
H    -0.4436610   -4.8906395   -3.1429541 
H     3.9410086    5.2766970   -1.7805665 
H    -1.9300149    4.8460143   -2.7100234 
H     0.8382235   -0.7869816    5.1601629 
H    -1.6709620   -6.3754972    0.7258124 
H     5.3945378    2.8010801    1.4518342 
H    -1.2612393    1.0778109   -4.7266596 
H    -3.2834833   -1.9635676    4.5792066 
H    -4.2296494    4.6104668    0.0829070 
H    -4.1028063    3.8963215   -1.5640187 
H    -3.6758526    0.7344644    4.6007981 
H    -5.2723300    3.2113404   -0.3678921 
H    -4.1997549    2.3579582    4.0006699 
H    -5.0948681    0.8749997    3.5035197 
H    -3.4792762    3.9797391   -4.6451091 
H    -2.8458183    2.6557582   -5.6699125 
H    -2.0190271    4.2338346   -5.6250083 
H     6.9824169    4.3199558   -0.1134171 
H     6.1552196    5.6890263   -0.9136743 
H     6.1375247    5.5396136    0.8648770 
H    -0.7670042   -0.6359652    7.0367820 
H    -1.3402776   -2.3208705    7.0014071 
H    -0.7358955   -7.3148257   -2.7974111 
H    -2.3907473   -7.3240900   -2.1387759 
H    -1.0507893   -7.9627053   -1.1585493 
H    -2.5032975   -0.9938220    6.7832815 
H     0.7829367    3.6374818    6.5454173 
H    -0.2789208    2.2079038    6.2742273 
H    -0.8597360    3.8643968    5.8460607 
H    -6.0003387    0.3027163   -3.1882141 
H    -5.4966582   -0.6318284   -4.6411479 
H    -4.6768465    0.9237922   -4.2500388 
