123
Energy =
C     3.5440739   -0.5413566   -0.8614970 
C     3.2578961   -1.9087967   -0.6504665 
C     2.2258229   -2.5704723   -1.3773852 
H     3.7561997   -2.4351397    0.1720687 
Pd    1.3701338   -0.8447984   -0.1975261 
P    -0.9131110   -1.2227370   -0.7136113 
P     0.8945334    1.1898393    0.8355792 
H     3.1607391   -0.0920315   -1.7910425 
H     1.9900589   -2.1826017   -2.3778610 
C     6.7247450    1.7855748    0.8490404 
C     5.8777015    2.3316567   -0.1267938 
C     4.8378271    1.5624713   -0.6570878 
C     4.6143541    0.2347230   -0.2219691 
C     5.4667910   -0.2941898    0.7756234 
C     6.5130743    0.4713846    1.2984042 
H     7.5472377    2.3803376    1.2595560 
H     6.0287187    3.3583805   -0.4744535 
H     4.1856283    1.9871194   -1.4284757 
H     5.3229962   -1.3176923    1.1360604 
H     7.1718992    0.0406037    2.0595099 
C     1.1634864   -6.7118731   -0.8855689 
C     1.9293400   -6.0714644    0.1018938 
C     2.2604140   -4.7192752   -0.0290257 
C     1.8483349   -3.9782193   -1.1619820 
C     1.0615039   -4.6333802   -2.1369972 
C     0.7219203   -5.9833124   -2.0004597 
H     0.9101004   -7.7722476   -0.7837954 
H     2.2697801   -6.6304585    0.9799212 
H     2.8479763   -4.2378166    0.7597175 
H     0.7163638   -4.0704575   -3.0112714 
H     0.1111309   -6.4692915   -2.7679646 
O    -3.1215682    3.0693650    1.1085280 
O    -3.3844764    2.3457913   -1.8390483 
O    -4.6282927   -1.0429059    2.9954001 
O     0.7665316    3.7919204   -3.6857198 
C    -1.4099349    1.8876456   -0.6496117 
C    -2.2439241    1.0635484    0.2723884 
C    -0.0187751    2.0453216   -0.5096955 
C    -2.1877115   -0.3462392    0.2990790 
C    -3.1481594    1.7129231    1.1574051 
C    -2.0368299    2.4951256   -1.7788639 
C    -2.9950335   -1.0954347    1.1791114 
C     0.7580036    2.6683125   -1.5154379 
C     2.2439657    2.3030211    1.3828138 
C    -1.4174248   -2.9802059   -0.6182998 
C    -1.2542043   -0.6415805   -2.4209572 
C    -0.1258555    1.1443974    2.3608015 
C     0.1184518    3.2039422   -2.6430607 
C    -3.8567537   -0.4231084    2.0614297 
C    -3.9454574    0.9813219    2.0432600 
C    -1.2853589    3.1507047   -2.7581714 
C    -0.4297764   -0.0853630    2.9729835 
C     3.1949793    1.7343215    2.2569323 
C    -0.9615813   -3.7252346    0.4906979 
C    -0.1998531   -0.2635158   -3.2759481 
C     2.3049280    3.6835654    1.1154858 
C    -0.5454922    2.3414687    2.9746256 
C    -2.2593080   -3.6047400   -1.5560917 
C    -2.5807895   -0.5203944   -2.8833902 
C     4.1817929    2.5278324    2.8428755 
C    -0.4636353    0.2206078   -4.5604496 
C    -1.1822811   -0.1193061    4.1513000 
C    -1.3716371   -5.0478890    0.6736343 
C    -1.3028361    2.2947343    4.1497624 
C    -2.6547702   -4.9362415   -1.3699884 
C     3.3126893    4.4676297    1.6960606 
C    -2.8335354   -0.0547253   -4.1790957 
C    -1.6518096    1.0667018    4.7488155 
C    -1.7854244    0.3342812   -5.0368199 
C    -2.2269906   -5.6792564   -0.2537501 
C     4.2679869    3.9085618    2.5645478 
C    -4.0105150    3.8056987    1.9453240 
C    -4.1017910    2.9921451   -2.8877567 
C    -2.6235730   -7.1250141   -0.0717559 
C    -2.5424699    1.0064868    5.9674053 
C     5.3703878    4.7451201    3.1697482 
C    -2.0600722    0.8927752   -6.4136951 
C    -4.5706938   -2.4650724    3.0935490 
C     2.1880959    3.8773213   -3.6440345 
H    -2.9280656   -2.1836179    1.1850269 
H     1.8430382    2.7161027   -1.4088282 
H    -4.6195788    1.4604127    2.7549554 
H    -1.7411523    3.5916533   -3.6459487 
H    -0.0923710   -1.0182813    2.5068383 
H     0.8322250   -0.3115107   -2.9129138 
H     3.1523073    0.6626067    2.4826930 
H    -0.2736465   -3.2627598    1.2085592 
H     1.5608108    4.1566136    0.4673587 
H    -2.6056453   -3.0592143   -2.4386197 
H    -0.2972606    3.3076995    2.5239430 
H    -3.4179029   -0.7572840   -2.2187855 
H    -1.4294375   -1.0862520    4.6042560 
H     0.3694959    0.5373099   -5.1978001 
H    -1.0023241   -5.6102149    1.5381109 
H     4.9099705    2.0664506    3.5184196 
H    -1.6355103    3.2316772    4.6111394 
H    -3.8703744    0.0265138   -4.5246589 
H    -3.3082378   -5.4081109   -2.1124704 
H     3.3472107    5.5408729    1.4761870 
H    -5.1619039    2.7570745   -2.7148318 
H    -3.9532266    4.0877353   -2.8543714 
H    -3.8240551    4.8660409    1.7218059 
H    -3.7960866    2.6078251   -3.8790489 
H    -5.0657774    3.5598349    1.7222952 
H    -3.8047104    3.6119388    3.0150125 
H    -1.7655348   -7.7873221   -0.2930243 
H    -3.4506866   -7.4089973   -0.7423711 
H    -2.9308331   -7.3299491    0.9685623 
H    -1.7398027    1.9496358   -6.4736939 
H    -1.4980510    0.3404909   -7.1876574 
H    -3.1316902    0.8449611   -6.6667460 
H     6.3481536    4.4709410    2.7305336 
H     5.4469390    4.5780276    4.2585130 
H    -2.6913558    2.0020400    6.4162868 
H    -2.1256920    0.3360666    6.7394105 
H    -3.5344174    0.6044048    5.6864279 
H     5.2102320    5.8212241    2.9940630 
H    -5.2585023   -2.7386753    3.9064502 
H    -3.5480904   -2.8095110    3.3417436 
H    -4.8989648   -2.9486653    2.1539666 
H     2.5343837    4.4625375   -2.7704396 
H     2.4882915    4.3898532   -4.5692397 
H     2.6509416    2.8709765   -3.6155721 
