123
Energy =
C     2.8722082   -1.6932655   -1.6368225 
C     3.1815823   -2.2041444   -0.3547398 
C     2.3025361   -3.1219041    0.2953131 
H     4.0352370   -1.7982285    0.2025238 
Pd    1.2559595   -1.1891452   -0.0878747 
P    -0.7222355   -1.3476205    1.1589456 
P     0.6700276    0.9228711   -0.9745927 
H     2.1614574   -2.2803227   -2.2374836 
H     1.6911624   -3.7726329   -0.3474254 
C     5.2206686    1.0100957   -4.0147570 
C     5.5627701    0.7944188   -2.6694482 
C     4.7988429   -0.0634755   -1.8740241 
C     3.6777329   -0.7380744   -2.4110991 
C     3.3400711   -0.5028474   -3.7646018 
C     4.1019776    0.3619342   -4.5580064 
H     5.8235212    1.6822761   -4.6341420 
H     6.4310703    1.3015657   -2.2368202 
H     5.0805024   -0.2114396   -0.8274405 
H     2.4728393   -1.0117566   -4.1975923 
H     3.8256677    0.5240106   -5.6050020 
C     3.0506475   -4.6902268    4.2331942 
C     3.4006481   -3.3617269    3.9323151 
C     3.1617396   -2.8429594    2.6561649 
C     2.5606919   -3.6395888    1.6528295 
C     2.2018863   -4.9664845    1.9732566 
C     2.4532769   -5.4895864    3.2483683 
H     3.2399716   -5.0951204    5.2326933 
H     3.8558715   -2.7281704    4.7007773 
H     3.4075898   -1.7965367    2.4415456 
H     1.7216412   -5.5918310    1.2129965 
H     2.1716496   -6.5230152    3.4754648 
O    -3.5665539    1.7622655   -1.8707065 
O    -3.9287717    1.7360255    1.1758291 
O    -3.2902192   -2.9715652   -2.9593691 
O    -0.5346607    4.9095300    2.2542299 
C    -1.8187327    1.5086812    0.1818582 
C    -2.3277018    0.2978881   -0.5212589 
C    -0.4974789    1.9682906    0.0064841 
C    -1.9167140   -1.0182307   -0.2090803 
C    -3.1888575    0.4787863   -1.6364111 
C    -2.6819948    2.2527148    1.0305148 
C    -2.2433502   -2.0950839   -1.0550712 
C    -0.0317054    3.1270950    0.6603642 
C    -0.0965651    0.8399225   -2.6358374 
C    -0.9658937   -0.1340170    2.5139765 
C    -1.2905739   -2.8806045    2.0003183 
C     2.1748149    1.9643922   -1.1008530 
C    -0.8984392    3.8222111    1.5204453 
C    -3.0572207   -1.8800027   -2.1813983 
C    -3.5706427   -0.5981907   -2.4535758 
C    -2.2281456    3.3959529    1.6965964 
C     3.0244452    2.0150392    0.0247929 
C    -0.6624689    1.9857880   -3.2336680 
C     0.0949150    0.6991044    2.9140064 
C    -0.4652659   -3.3693531    3.0353884 
C    -0.1754360   -0.3909560   -3.3123164 
C     2.5086774    2.7255243   -2.2358829 
C    -2.1846396   -0.0822297    3.2194323 
C    -2.5441869   -3.4903616    1.7889852 
C    -1.2629853    1.8949457   -4.4935322 
C    -0.8763291   -4.4515656    3.8190686 
C     4.1524745    2.8440893    0.0301401 
C    -0.0766932    1.6063951    3.9638217 
C     3.6494430    3.5360997   -2.2274959 
C    -2.3462055    0.8314688    4.2663715 
C    -0.7881094   -0.4741434   -4.5679441 
C    -2.9401922   -4.5795049    2.5764890 
C     4.4852215    3.6221555   -1.0958087 
C    -2.1173358   -5.0832706    3.6023259 
C    -1.3062162    1.7055333    4.6442719 
C    -1.3380535    0.6662647   -5.1841462 
C    -4.4766309    2.0374994   -2.9309586 
C    -4.8686093    2.4287750    1.9939563 
C    -1.5019851    2.7518705    5.7160755 
C     5.7200747    4.4926234   -1.1168142 
C    -1.9853323    0.5819813   -6.5475310 
C    -2.5629709   -6.2383281    4.4691091 
C    -4.1022038   -2.8295949   -4.1229108 
C     0.8071172    5.3827288    2.1535575 
H    -1.8740801   -3.1079004   -0.8734776 
H     0.9952944    3.4616206    0.5138302 
H    -4.2092179   -0.4291468   -3.3200203 
H    -2.8600551    3.9628152    2.3820566 
H     2.7967096    1.4007690    0.9046898 
H     0.4973694   -2.8920080    3.2438361 
H    -0.6564659    2.9416241   -2.6993720 
H     1.0517092    0.6428485    2.3826833 
H     0.2099890   -1.2958452   -2.8325537 
H    -3.0102504   -0.7443835    2.9397530 
H     1.8861902    2.6777735   -3.1338789 
H    -3.2251588   -3.1122997    1.0215194 
H     4.7943445    2.8756159    0.9179320 
H    -0.2127996   -4.8131679    4.6120119 
H     0.7519838    2.2651189    4.2477052 
H    -1.6967904    2.7942656   -4.9457572 
H     3.8994707    4.1109921   -3.1263575 
H    -3.9167727   -5.0416011    2.3918553 
H    -3.3023000    0.8712463    4.8009025 
H    -0.8582247   -1.4476315   -5.0663036 
H    -5.7966432    1.8407491    1.9489139 
H    -4.5191715    2.4874495    3.0420117 
H    -4.0477354    1.7553868   -3.9113433 
H    -5.0569102    3.4491802    1.6103663 
H    -5.4378038    1.5107975   -2.7802049 
H    -4.6452471    3.1237808   -2.9061311 
H    -1.4917077    3.7608076    5.2619516 
H    -0.6882416    2.7221498    6.4620525 
H    -2.4605587    2.6231464    6.2445027 
H    -3.3112044   -6.8654492    3.9566349 
H    -1.7108184   -6.8766460    4.7584530 
H    -3.0247895   -5.8657011    5.4032035 
H    -2.8342978    1.2814963   -6.6365178 
H    -2.3481876   -0.4375138   -6.7615629 
H     6.4473996    4.1178783   -1.8609832 
H     6.2203670    4.5156898   -0.1350958 
H     5.4720441    5.5300015   -1.4034749 
H    -1.2605342    0.8469945   -7.3402932 
H    -4.1383053   -3.8251377   -4.5881354 
H    -3.6612253   -2.1056415   -4.8354775 
H    -5.1291608   -2.5094239   -3.8628665 
H     1.5317714    4.6064250    2.4669582 
H     0.8743023    6.2445257    2.8330058 
H     1.0453878    5.7066409    1.1226232 
