123
Energy =
C     2.8794557   -1.4586897   -1.7482395 
C     3.1545805   -2.0711749   -0.4906275 
C     2.2846153   -3.0340534    0.0685151 
H     3.9650915   -1.6721462    0.1330945 
Pd    1.1801969   -1.0766470   -0.3460073 
P    -0.3175664   -0.8632654    1.4450958 
P     0.1042055    0.5534281   -1.6421309 
H     2.3445917   -2.0601042   -2.4961557 
H     1.5616519   -3.5200005   -0.6065511 
C     5.1115347    1.8305173   -3.4063683 
C     5.1038586    1.6245744   -2.0161970 
C     4.3870790    0.5583885   -1.4661987 
C     3.6597827   -0.3304556   -2.2930602 
C     3.6790771   -0.1114435   -3.6880612 
C     4.3976728    0.9568810   -4.2385074 
H     5.6708258    2.6684469   -3.8350737 
H     5.6549670    2.3050876   -1.3585985 
H     4.3760184    0.4252146   -0.3785295 
H     3.1172102   -0.7856329   -4.3433792 
H     4.3945566    1.1081880   -5.3230086 
C     2.8810023   -5.1114126    3.7828196 
C     1.6134791   -5.0765551    3.1796518 
C     1.4304027   -4.3989370    1.9711314 
C     2.5070188   -3.7270044    1.3477058 
C     3.7774371   -3.7696100    1.9664416 
C     3.9619467   -4.4595179    3.1698659 
H     3.0263830   -5.6518313    4.7238574 
H     0.7650813   -5.5778454    3.6559038 
H     0.4374076   -4.3638653    1.5085731 
H     4.6362252   -3.2884769    1.4870504 
H     4.9564157   -4.4970766    3.6267574 
O    -2.4581026    3.6684326    0.1710766 
O    -4.1679684    1.3900157    1.1119697 
O     0.6957092    3.7455140    3.7481937 
O    -4.7782363   -0.8141857   -3.0718638 
C    -2.2834273    0.9999416   -0.2341725 
C    -1.4807791    1.6423749    0.8473032 
C    -1.7306887    0.5161738   -1.4371353 
C    -0.6240473    0.9393651    1.7195523 
C    -1.6063286    3.0505570    1.0300455 
C    -3.6937444    0.8983229   -0.0623345 
C     0.1182071    1.6079590    2.7158953 
C    -2.5366818   -0.0863110   -2.4260384 
C     0.3698555    0.2419949   -3.4329592 
C     0.3661528   -1.4640605    3.0383820 
C    -1.9621349   -1.6348231    1.2493828 
C     0.5965829    2.2778458   -1.3044921 
C    -3.9179423   -0.2131339   -2.2059208 
C     0.0036654    3.0019430    2.8435310 
C    -0.8690686    3.7249837    2.0079060 
C    -4.5016048    0.2923810   -1.0290914 
C     1.6660488    2.5273628   -0.4224821 
C     0.2123103   -1.0804089   -3.9071314 
C     1.7447127   -1.2697071    3.2765546 
C    -3.0326241   -1.3308079    2.1144640 
C     0.7529329    1.2414292   -4.3435711 
C    -0.0985351    3.3643545   -1.8714208 
C    -0.4024727   -2.1136864    4.0210371 
C    -2.1744015   -2.5343239    0.1853807 
C     0.4056175   -1.3827728   -5.2580656 
C    -4.2850240   -1.9221853    1.9120054 
C     2.0288253    3.8391954   -0.1089231 
C     2.3257408   -1.6844422    4.4765447 
C     0.2859624    4.6748252   -1.5634035 
C     0.1920289   -2.5365216    5.2175596 
C     0.9513453    0.9277503   -5.6965032 
C    -3.4347243   -3.1034147   -0.0187140 
C     1.3442219    4.9368128   -0.6704253 
C    -4.5151774   -2.8015649    0.8352944 
C     1.5602998   -2.3289430    5.4710587 
C     0.7806429   -0.3816355   -6.1817004 
C    -2.7058229    5.0623327    0.3318657 
C    -5.5765858    1.4223085    1.3253712 
C     2.2091799   -2.7999226    6.7509599 
C     1.7200096    6.3498701   -0.2892490 
C     1.0183196   -0.7235203   -7.6344665 
C    -5.8875977   -3.3711132    0.5627579 
C     1.5896349    3.0802522    4.6381757 
C    -4.2593685   -1.3559352   -4.2846768 
H     0.7655465    1.0394227    3.3843752 
H    -2.0892880   -0.4396985   -3.3548600 
H    -0.9309732    4.8056605    2.1451457 
H    -5.5791157    0.1771961   -0.9017114 
H     2.1904129    1.6830870    0.0367853 
H    -2.8993328   -0.6007547    2.9190920 
H    -0.0636607   -1.8792107   -3.2071724 
H     2.3665598   -0.8029144    2.5024493 
H     0.9176950    2.2666467   -4.0004623 
H    -1.4651281   -2.3094619    3.8534489 
H    -0.9570657    3.1874628   -2.5274477 
H    -1.3497658   -2.7595558   -0.5017095 
H     2.8475355    4.0175060    0.5972409 
H    -5.1085510   -1.6787289    2.5928625 
H     3.3992238   -1.5333214    4.6343763 
H     0.2723515   -2.4144853   -5.6035515 
H    -0.2590557    5.5126749   -2.0129666 
H    -3.5904157   -3.7795161   -0.8669199 
H    -0.4225250   -3.0485285    5.9665791 
H     1.2556565    1.7221582   -6.3871272 
H    -5.7203389    1.8920297    2.3091665 
H    -6.0833624    2.0242164    0.5478707 
H    -3.1278134    5.2793936    1.3311275 
H    -6.0050974    0.4023178    1.3381195 
H    -1.7821907    5.6533767    0.1847095 
H    -3.4378085    5.3282563   -0.4444843 
H     2.6187345   -1.9484175    7.3244249 
H     3.0532528   -3.4788453    6.5318351 
H     1.4950022   -3.3353113    7.3970546 
H    -5.8454341   -4.4625174    0.4009165 
H    -6.5856124   -3.1705000    1.3917878 
H    -6.3090453   -2.9217178   -0.3562516 
H     1.1205190    0.1826325   -8.2531197 
H     0.1913621   -1.3311229   -8.0420577 
H     1.1693897    7.0942239   -0.8872026 
H     2.8013153    6.5269817   -0.4276967 
H     1.4959630    6.5338642    0.7782030 
H     1.9440418   -1.3177849   -7.7490944 
H     2.0299379    3.8672726    5.2671260 
H     2.3935329    2.5566062    4.0851521 
H     1.0557839    2.3521905    5.2782982 
H    -5.1196287   -1.7920736   -4.8124388 
H    -3.5095650   -2.1459288   -4.0842166 
H    -3.8001649   -0.5706412   -4.9149527 
