123
Energy =
C     2.9212527   -1.8878240   -1.6647209 
C     3.2497180   -1.8901303   -0.2766832 
C     2.5422161   -2.7148712    0.6292386 
H     3.9758962   -1.1590847    0.1033750 
Pd    1.1701663   -1.2172212   -0.4298324 
P    -0.2337598   -0.7482477    1.4197252 
P    -0.0349433    0.2299787   -1.8276673 
H     2.5093619   -2.8214928   -2.0774415 
H     2.0197023   -3.5841883    0.2004894 
C     4.8781245    0.6514819   -4.5379324 
C     4.4784387    1.1756082   -3.2971366 
C     3.8549769    0.3527392   -2.3545098 
C     3.6028872   -1.0085714   -2.6371766 
C     4.0112019   -1.5224448   -3.8863414 
C     4.6513294   -0.7023417   -4.8240090 
H     5.3615551    1.2977437   -5.2777492 
H     4.6463019    2.2340272   -3.0713411 
H     3.5189428    0.7697613   -1.3977392 
H     3.8223381   -2.5758070   -4.1222518 
H     4.9636876   -1.1193369   -5.7870902 
C     3.2662047   -3.0977977    4.8515953 
C     2.7037683   -4.1525830    4.1181919 
C     2.4625578   -4.0050155    2.7478010 
C     2.7916221   -2.8051973    2.0778155 
C     3.3658531   -1.7540675    2.8285687 
C     3.5943570   -1.8972851    4.2001857 
H     3.4478229   -3.2082008    5.9256905 
H     2.4454901   -5.0927461    4.6163131 
H     2.0141015   -4.8286626    2.1828431 
H     3.6248326   -0.8103531    2.3416756 
H     4.0300840   -1.0667336    4.7651869 
O    -3.6192486    2.5616255   -0.5957095 
O    -1.9673791    3.3216391    1.8572674 
O    -5.4327415   -1.5068131    1.1081739 
O     2.1880819    4.6215375   -0.0840009 
C    -1.0637536    1.9862333    0.1484476 
C    -2.1719770    1.0298799    0.4304753 
C    -0.0687921    1.7726427   -0.8233631 
C    -1.9669556   -0.2027443    1.0838410 
C    -3.4995827    1.3782783    0.0587430 
C    -0.9668216    3.1603174    0.9546449 
C    -3.0409509   -1.0740079    1.3584206 
C     1.0522149    2.6300158   -0.9285010 
C    -1.7552983   -0.2771511   -2.2214914 
C     0.4687915    0.6078808    2.4304913 
C    -0.4365002   -2.2161639    2.5007655 
C     0.5803953    0.7185404   -3.4856259 
C     1.1410043    3.7514237   -0.0909583 
C    -4.3368798   -0.7149052    0.9522278 
C    -4.5712505    0.5165590    0.3126369 
C     0.1139273    4.0373502    0.8303761 
C     1.0053843   -0.3145029   -4.3434480 
C    -2.2241028   -1.5464767   -1.8348970 
C     1.7261139    1.1502939    2.1000504 
C    -0.7753909   -3.4377961    1.8794763 
C    -2.6032220    0.5722405   -2.9594439 
C     0.5296634    2.0363399   -3.9840622 
C    -0.2555361    1.1654293    3.5028616 
C    -0.2888352   -2.1854038    3.8981664 
C    -3.5321514   -1.9384756   -2.1346188 
C    -1.0009002   -4.5871155    2.6440096 
C     1.4018775   -0.0326514   -5.6529308 
C     2.2539651    2.2169196    2.8320202 
C     0.9400464    2.3093068   -5.2951485 
C     0.2887954    2.2240615    4.2401065 
C    -3.9112040    0.1707783   -3.2520723 
C    -0.5009858   -3.3461297    4.6537598 
C     1.3961481    1.2864942   -6.1487971 
C    -0.8675728   -4.5629136    4.0480416 
C     1.5454722    2.7737851    3.9162876 
C    -4.4069763   -1.0792641   -2.8284776 
C    -4.9177421    3.0050877   -0.9828334 
C    -1.9847096    4.4974381    2.6627955 
C     2.1060314    3.9558673    4.6723497 
C     1.8949126    1.5888673   -7.5420669 
C    -5.8440037   -1.4816037   -3.0628021 
C    -1.0532315   -5.8179418    4.8687260 
C    -5.2702415   -2.7841654    1.7218576 
C     3.2718637    4.3912645   -0.9805033 
H    -2.8588245   -2.0220168    1.8646279 
H     1.8338580    2.4115383   -1.6575948 
H    -5.5925227    0.7475946    0.0059821 
H     0.2223663    4.9239604    1.4569336 
H     1.0258622   -1.3473015   -3.9791484 
H    -0.8651192   -3.4857861    0.7869876 
H    -1.5631020   -2.2174765   -1.2736831 
H     2.2684669    0.7532446    1.2339304 
H    -2.2494179    1.5544819   -3.2877251 
H    -1.2567026    0.7926892    3.7431618 
H     0.1665466    2.8540102   -3.3540828 
H     0.0099890   -1.2621759    4.4023485 
H     1.7385942   -0.8506347   -6.2989669 
H    -1.2726739   -5.5231377    2.1424747 
H     3.2196355    2.6452008    2.5407475 
H    -3.8891580   -2.9206117   -1.8043904 
H     0.8996591    3.3409551   -5.6631916 
H    -0.3687355   -3.3042320    5.7406612 
H    -0.2834539    2.6444876    5.0749367 
H    -4.5655676    0.8454355   -3.8160862 
H    -1.0890384    4.5521748    3.3098268 
H    -2.0457631    5.4077528    2.0374302 
H    -5.3834176    2.3011536   -1.6982156 
H    -2.8849265    4.4181009    3.2891425 
H    -5.5771853    3.1271992   -0.1031186 
H    -4.7692232    3.9793099   -1.4704921 
H     1.4942065    4.2031904    5.5550591 
H     2.1433241    4.8485271    4.0200949 
H     3.1388795    3.7610024    5.0111756 
H    -0.1008447   -6.3784028    4.9358160 
H    -1.3708190   -5.5852908    5.8986105 
H    -1.7985964   -6.4931380    4.4158983 
H    -6.3869628   -1.5115133   -2.0991126 
H    -5.9129766   -2.4901734   -3.5071833 
H     1.5292203    2.5638668   -7.9038065 
H     1.5842326    0.8103248   -8.2597148 
H     3.0013996    1.6206142   -7.5529142 
H    -6.3646263   -0.7739244   -3.7283040 
H    -6.2693409   -3.2429077    1.7315864 
H    -4.8977455   -2.6898441    2.7595576 
H    -4.5752628   -3.4226794    1.1426880 
H     3.9816813    5.2144105   -0.8148915 
H     2.9362001    4.4005741   -2.0351812 
H     3.7720450    3.4264394   -0.7662150 
