123
Energy =
C     2.9551334   -1.4498039   -1.7962634 
C     3.2114503   -2.0828317   -0.5444733 
C     2.3293650   -3.0469049   -0.0076519 
H     4.0162008   -1.6969863    0.0948666 
Pd    1.2406492   -1.0790111   -0.4123816 
P    -0.2608972   -0.8670844    1.3754927 
P     0.1791225    0.5589987   -1.7097808 
H     2.4293006   -2.0365544   -2.5619282 
H     1.6102782   -3.5203189   -0.6957062 
C     5.2207688    1.8628619   -3.3592870 
C     5.1919203    1.6308397   -1.9734590 
C     4.4639646    0.5567439   -1.4544928 
C     3.7467009   -0.3142191   -2.3088876 
C     3.7868162   -0.0688846   -3.6989530 
C     4.5166232    1.0075008   -4.2181868 
H     5.7887033    2.7070184   -3.7637695 
H     5.7351206    2.2971749   -1.2950401 
H     4.4358519    0.4033819   -0.3697431 
H     3.2322675   -0.7280874   -4.3752968 
H     4.5294225    1.1793209   -5.2995133 
C     2.8741132   -5.1563272    3.6968675 
C     1.6099256   -5.0965413    3.0887087 
C     1.4435366   -4.4102357    1.8826563 
C     2.5340197   -3.7537536    1.2672723 
C     3.8010776   -3.8220533    1.8903863 
C     3.9687899   -4.5208832    3.0911876 
H     3.0061745   -5.7037420    4.6358491 
H     0.7509684   -5.5852317    3.5591767 
H     0.4530984   -4.3553038    1.4165251 
H     4.6698786   -3.3538236    1.4162734 
H     4.9606644   -4.5781540    3.5516807 
O    -2.4365278    3.6451005    0.1034267 
O    -4.1192777    1.3299834    1.0286574 
O     0.7183489    3.7507632    3.6790652 
O    -4.5008245   -0.9555542   -3.2519015 
C    -2.2251812    0.9724316   -0.3068231 
C    -1.4378317    1.6282603    0.7775230 
C    -1.6556691    0.4925988   -1.5111780 
C    -0.5772009    0.9329407    1.6519111 
C    -1.5789061    3.0344372    0.9620044 
C    -3.6269310    0.8405205   -0.1405047 
C     0.1584135    1.6070012    2.6494627 
C    -2.4466621   -0.1303526   -2.4879268 
C     0.4685691    0.2749578   -3.5003279 
C     0.4365750   -1.4609090    2.9663372 
C    -1.9043206   -1.6491864    1.1999023 
C     0.6501510    2.2848679   -1.3496599 
C    -3.8271744   -0.2950929   -2.2723048 
C     0.0314860    2.9999421    2.7761962 
C    -0.8487969    3.7147806    1.9412630 
C    -4.4286274    0.2047284   -1.1041554 
C     1.7129029    2.5369184   -0.4603285 
C     0.3253100   -1.0398903   -3.9988243 
C     1.8178295   -1.2669216    3.1881801 
C    -2.9650211   -1.3504198    2.0824940 
C     0.8738202    1.2893154   -4.3850231 
C    -0.0493043    3.3695597   -1.9147898 
C    -0.3215396   -2.1033197    3.9617978 
C    -2.1231471   -2.5598122    0.1499615 
C     0.5524777   -1.3199714   -5.3490780 
C    -4.2073766   -1.9679196    1.9163954 
C     2.0635388    3.8495482   -0.1361952 
C     2.4125210   -1.6778424    4.3827900 
C     0.3229890    4.6809493   -1.5958030 
C     0.2861820   -2.5215377    5.1532431 
C     1.1051650    0.9977471   -5.7373580 
C    -3.3791218   -3.1569166   -0.0196607 
C     1.3734808    4.9453635   -0.6943868 
C    -4.4415960   -2.8724645    0.8580706 
C     1.6580416   -2.3168992    5.3889984 
C     0.9454579   -0.3033738   -6.2477259 
C    -2.6932845    5.0374126    0.2633390 
C    -5.5268648    1.3355597    1.2416253 
C     2.3230145   -2.7911532    6.6593358 
C     1.7368313    6.3587214   -0.3023032 
C     1.1785172   -0.6134861   -7.7081137 
C    -5.8079677   -3.4891424    0.6648707 
C     1.6219565    3.0946042    4.5659268 
C    -5.8990249   -1.1832566   -3.0946766 
H     0.8111394    1.0438383    3.3173257 
H    -2.0307838   -0.4998871   -3.4268394 
H    -0.9202093    4.7948288    2.0788529 
H    -5.4980901    0.0838748   -0.9339263 
H     2.2427356    1.6938861   -0.0051593 
H    -2.8268137   -0.6075926    2.8745121 
H     0.0369151   -1.8515252   -3.3192189 
H     2.4307706   -0.8029269    2.4052698 
H     1.0336836    2.3080457   -4.0210431 
H    -1.3864877   -2.2980439    3.8084574 
H    -0.9004276    3.1900323   -2.5796997 
H    -1.3112452   -2.7776936   -0.5540491 
H     2.8770366    4.0296733    0.5755255 
H    -5.0200058   -1.7319090    2.6133518 
H     3.4879033   -1.5269784    4.5276014 
H     0.4307226   -2.3463714   -5.7135216 
H    -0.2248878    5.5175006   -2.0443473 
H    -3.5391217   -3.8446396   -0.8573345 
H    -0.3206364   -3.0278438    5.9123871 
H     1.4293283    1.8025468   -6.4065566 
H    -5.6804803    1.8114448    2.2209857 
H    -6.0474677    1.9206190    0.4600427 
H    -3.1185298    5.2523347    1.2617670 
H    -5.9354905    0.3071625    1.2667960 
H    -1.7732668    5.6344001    0.1179255 
H    -3.4253535    5.2987365   -0.5145434 
H     2.8156438   -1.9547468    7.1871072 
H     3.1069450   -3.5362777    6.4300329 
H     1.6001652   -3.2553196    7.3493768 
H    -5.8154251   -4.2084593   -0.1700229 
H    -6.1410196   -4.0165387    1.5765644 
H    -6.5628930   -2.7093504    0.4503630 
H     1.7986072   -1.5187387   -7.8307945 
H     1.6766864    0.2219739   -8.2261056 
H     1.1728585    7.1027672   -0.8880955 
H     2.8148533    6.5492051   -0.4489965 
H     1.5207100    6.5295558    0.7689040 
H     0.2182911   -0.8052888   -8.2223195 
H     2.0576596    3.8861843    5.1923727 
H     2.4282770    2.5777800    4.0100125 
H     1.0975375    2.3622611    5.2089915 
H    -6.2172601   -1.7359498   -3.9903075 
H    -6.4605569   -0.2312611   -3.0339131 
H    -6.1084266   -1.7920057   -2.1935888 
