123
Energy =
C     3.0693430   -1.6445977   -1.6696882 
C     3.3418619   -1.8052518   -0.2757881 
C     2.6416621   -2.7453150    0.5130820 
H     4.0053547   -1.0849474    0.2203784 
Pd    1.2247992   -1.2497364   -0.4779621 
P    -0.1934079   -0.7993024    1.3564370 
P    -0.0009824    0.1053994   -1.9301113 
H     2.7591118   -2.5350026   -2.2357963 
H     2.1685524   -3.5891003   -0.0134355 
C     4.7321519    1.5617132   -4.0191111 
C     4.5020416    1.7458857   -2.6456992 
C     3.9756639    0.7033263   -1.8766110 
C     3.6632377   -0.5473755   -2.4602054 
C     3.9059418   -0.7167843   -3.8403121 
C     4.4350546    0.3256740   -4.6108735 
H     5.1350414    2.3800954   -4.6245118 
H     4.7064534    2.7130429   -2.1746058 
H     3.7652046    0.8778853   -0.8157630 
H     3.6725509   -1.6766441   -4.3121039 
H     4.6088688    0.1731530   -5.6810414 
C     3.1635820   -3.4434509    4.7250225 
C     2.6294165   -4.4364557    3.8912389 
C     2.4536460   -4.1869794    2.5255937 
C     2.8204872   -2.9446691    1.9608704 
C     3.3543119   -1.9518526    2.8149832 
C     3.5208088   -2.1986574    4.1807184 
H     3.2975931   -3.6349521    5.7947243 
H     2.3438309   -5.4086312    4.3057769 
H     2.0307873   -4.9646234    1.8810266 
H     3.6313852   -0.9729582    2.4144358 
H     3.9311818   -1.4145937    4.8255600 
O    -3.5049115    2.5465381   -0.7242555 
O    -1.7888244    3.3046420    1.7170614 
O    -5.4111989   -1.4205847    1.1108557 
O     2.4068697    4.3795405   -0.5083611 
C    -0.9610837    1.9306718    0.0060382 
C    -2.0869449    1.0064527    0.3318330 
C     0.0029039    1.6909317   -1.0019834 
C    -1.9117659   -0.2112007    1.0224982 
C    -3.4092247    1.3787877   -0.0379792 
C    -0.8184901    3.1091495    0.7862638 
C    -3.0068052   -1.0439995    1.3317765 
C     1.1198496    2.5316998   -1.1514914 
C    -1.7375076   -0.3792094   -2.2780140 
C     0.5393941    0.5537176    2.3553648 
C    -0.4184057   -2.2529822    2.4509779 
C     0.5989945    0.3994980   -3.6396419 
C     1.2651460    3.6582462   -0.3250550 
C    -4.2957416   -0.6631877    0.9240769 
C    -4.5016425    0.5544617    0.2494719 
C     0.2772917    3.9748313    0.6250164 
C     0.7686775   -0.7596683   -4.4259701 
C    -2.2325520   -1.6230348   -1.8461889 
C     1.8045174    1.0692054    2.0162113 
C    -0.7881185   -3.4697108    1.8404473 
C    -2.5684097    0.4651041   -3.0408306 
C     0.7634322    1.6583510   -4.2456429 
C    -0.1706753    1.1376006    3.4243960 
C    -0.2489194   -2.2200966    3.8472710 
C    -3.5514832   -1.9933816   -2.1260272 
C    -1.0303506   -4.6110067    2.6142316 
C     1.1002895   -0.6605404   -5.7792730 
C     2.3587245    2.1301113    2.7394319 
C     1.1188903    1.7456922   -5.5986762 
C     0.3979268    2.1891411    4.1519932 
C    -3.8872884    0.0855752   -3.3127981 
C    -0.4744077   -3.3717253    4.6099850 
C     1.2972712    0.5951859   -6.3894709 
C    -0.8806776   -4.5828190    4.0147214 
C     1.6693365    2.7054338    3.8251868 
C    -4.4097399   -1.1373355   -2.8440120 
C    -4.7942414    3.0065488   -1.1219874 
C    -1.7700880    4.4912001    2.5039646 
C     2.2768836    3.8387872    4.6195769 
C     1.7193910    0.6985795   -7.8364243 
C    -5.8572673   -1.5132494   -3.0571765 
C    -1.1180410   -5.8134408    4.8590427 
C    -5.2776436   -2.6833467    1.7605312 
C     2.6301315    5.5324171    0.3004555 
H    -2.8445154   -1.9821959    1.8626406 
H     1.9063202    2.3195702   -1.8771858 
H    -5.5186761    0.8037616   -0.0569410 
H     0.3798192    4.8522122    1.2629781 
H     0.6285230   -1.7485768   -3.9722110 
H    -0.8848220   -3.5231904    0.7490474 
H    -1.5838699   -2.2893027   -1.2659845 
H     2.3337273    0.6570629    1.1494484 
H    -2.1904666    1.4258239   -3.4050991 
H    -1.1798077    0.7894898    3.6683244 
H     0.6018466    2.5766563   -3.6745075 
H     0.0785515   -1.3014551    4.3420596 
H     1.2207054   -1.5745816   -6.3718890 
H    -1.3233971   -5.5445681    2.1205344 
H     3.3338415    2.5317759    2.4408376 
H    -3.9301199   -2.9546304   -1.7603750 
H     1.2501256    2.7355916   -6.0502605 
H    -0.3203178   -3.3296266    5.6941552 
H    -0.1652019    2.6306140    4.9823303 
H    -4.5289498    0.7555549   -3.8966889 
H    -0.8604149    4.5422434    3.1321906 
H    -1.8336826    5.3942824    1.8679320 
H    -5.2780233    2.2910056   -1.8134332 
H    -2.6567620    4.4347872    3.1518066 
H    -5.4483628    3.1715353   -0.2451850 
H    -4.6254317    3.9611119   -1.6409847 
H     1.5010561    4.4826406    5.0673794 
H     2.9327177    4.4661160    3.9917617 
H     2.8962793    3.4462504    5.4480602 
H    -1.3588786   -6.6926703    4.2398638 
H    -0.2254227   -6.0529164    5.4650379 
H    -1.9529397   -5.6531293    5.5654473 
H    -6.3940197   -1.5030057   -2.0896470 
H    -5.9523229   -2.5323260   -3.4718742 
H     1.4025168    1.6549829   -8.2844303 
H     1.3033259   -0.1258238   -8.4396260 
H     2.8219488    0.6439192   -7.9203668 
H    -6.3664041   -0.8133169   -3.7395630 
H    -6.2881650   -3.1155282    1.7895759 
H    -4.8960094   -2.5686439    2.7928735 
H    -4.6031357   -3.3563237    1.1964124 
H     3.6017239    5.9390766   -0.0149749 
H     2.6732011    5.2679157    1.3749136 
H     1.8448826    6.2959558    0.1419666 
