123
Energy =
C    -0.7219292    3.6487392   -0.4931377 
C     0.3238012    3.5692278   -1.4592597 
C     0.1930685    2.7909042   -2.6309614 
H     1.3108767    3.9819680   -1.2129703 
Pd   -0.1208280    1.5133096   -0.7614065 
P     0.8765483   -0.5422248   -1.2874313 
P    -1.2829386    0.6600697    1.0866938 
H    -1.7556114    3.5783045   -0.8585865 
H    -0.8234211    2.4936585   -2.9358024 
C    -0.3377269    5.5392864    3.3578527 
C     0.8078551    5.0599778    2.6997778 
C     0.6966285    4.4482449    1.4482466 
C    -0.5638574    4.3011477    0.8216638 
C    -1.7052129    4.7891131    1.4949319 
C    -1.5929244    5.4021262    2.7488969 
H    -0.2490969    6.0150400    4.3399604 
H     1.7916320    5.1582844    3.1707455 
H     1.5981469    4.0617774    0.9594364 
H    -2.6901218    4.6780353    1.0289424 
H    -2.4930609    5.7691319    3.2528539 
C     3.1463881    2.4107977   -5.7299914 
C     2.1038711    1.4768433   -5.6189690 
C     1.1464418    1.6110612   -4.6097592 
C     1.2206175    2.6721944   -3.6783095 
C     2.2751602    3.6055479   -3.8022017 
C     3.2253284    3.4772710   -4.8215067 
H     3.8898603    2.3114568   -6.5276558 
H     2.0399931    0.6396249   -6.3210664 
H     0.3405074    0.8737615   -4.5189096 
H     2.3351114    4.4576235   -3.1172140 
H     4.0259351    4.2187280   -4.9133932 
O    -0.4587695   -4.3946780    0.5058268 
O     0.0103684   -3.0451219    3.1517287 
O    -4.9456265   -2.6909563   -0.3048789 
O     4.4647914   -1.5040414    2.4259815 
C     0.5000863   -1.9407027    1.1363516 
C    -0.9395589   -2.1169118    0.7870645 
C     1.4437858   -1.3251919    0.2882574 
C    -1.8813192   -1.0595475    0.7778390 
C    -1.4044591   -3.4182845    0.4705279 
C     0.9598354   -2.4445200    2.3879098 
C    -3.2205419   -1.2862034    0.4272648 
C     2.7906079   -1.1684075    0.6784092 
C     2.4059484   -0.3622329   -2.2866562 
C    -2.8036066    1.6333096    1.4190766 
C    -0.3378450    0.5765397    2.6457310 
C    -0.1555396   -1.7931342   -2.1323951 
C     3.2018754   -1.6348564    1.9375990 
C    -3.6423354   -2.5793639    0.0675964 
C    -2.7400164   -3.6567253    0.1033010 
C     2.2898273   -2.2872965    2.7891729 
C     0.2528689   -3.1404586   -2.2395289 
C     3.2251058    0.7603419   -2.0340217 
C    -3.6315512    1.9712793    0.3244688 
C     0.9425986    1.1602238    2.7064137 
C     2.7974393   -1.2698530   -3.2873951 
C    -1.3952112   -1.4084332   -2.6751111 
C    -3.1556624    2.0985355    2.6978642 
C    -0.8466047   -0.0911908    3.7773824 
C     4.4147896    0.9480617   -2.7406044 
C     1.7030229    1.0699807    3.8746680 
C    -0.5632982   -4.0685300   -2.8913285 
C    -4.7923841    2.7259834    0.5139880 
C    -2.2150944   -2.3521119   -3.3076274 
C    -4.3194160    2.8606769    2.8775749 
C     3.9878239   -1.0674498   -3.9986456 
C    -0.0821760   -0.1595514    4.9482800 
C    -1.8151895   -3.6959753   -3.4271232 
C     1.2070918    0.4056361    5.0153586 
C    -5.1613498    3.1845367    1.7981723 
C     4.8190625    0.0377899   -3.7397806 
C    -0.8498745   -5.7484714    0.3033505 
C     0.3982049   -3.6406862    4.3865660 
C    -6.4235935    3.9915969    1.9946779 
C    -2.7041582   -4.7256876   -4.0858440 
C     6.0899657    0.2733445   -4.5209377 
C     2.0583314    0.2767808    6.2570929 
C    -5.4427430   -3.9665263   -0.7018423 
C     5.4465807   -0.8597833    1.6169565 
H    -3.9652065   -0.4883536    0.4223093 
H     3.5017150   -0.6959234   -0.0000578 
H    -3.0619788   -4.6612040   -0.1701007 
H     2.6545764   -2.6395038    3.7552752 
H     1.1908383   -3.4674597   -1.7796413 
H     1.3461635    1.6609695    1.8204149 
H     2.9131073    1.4991555   -1.2851795 
H    -3.3595468    1.6417774   -0.6861513 
H     2.1694452   -2.1310447   -3.5313085 
H    -2.5132185    1.8892187    3.5576550 
H    -1.7299461   -0.3691777   -2.5740246 
H    -1.8249877   -0.5808318    3.7348621 
H    -0.2306678   -5.1099165   -2.9727602 
H     2.7069940    1.5082457    3.8990305 
H    -5.4215964    2.9712835   -0.3491787 
H     5.0285590    1.8317818   -2.5346115 
H    -3.1887046   -2.0407004   -3.7017558 
H    -0.4891999   -0.6773770    5.8242939 
H    -4.5690783    3.2204962    3.8819823 
H     4.2705599   -1.7823265   -4.7796496 
H     1.1524413   -4.4341685    4.2271282 
H     0.8002060   -2.8850223    5.0875474 
H    -1.5971098   -6.0657185    1.0550878 
H    -0.5173414   -4.0799817    4.8085085 
H    -1.2603182   -5.9024779   -0.7130717 
H     0.0657448   -6.3462796    0.4194864 
H    -7.3170191    3.3520688    1.8685707 
H    -6.4986349    4.8039216    1.2505554 
H    -6.4677822    4.4374749    3.0015001 
H     2.4507287    1.2582808    6.5769038 
H     1.4923130   -0.1586784    7.0966158 
H     2.9318621   -0.3724463    6.0593894 
H     6.2691444   -0.5250270   -5.2589830 
H     6.9658584    0.3247684   -3.8492877 
H    -2.9683114   -5.5297214   -3.3737512 
H    -2.1923982   -5.2070418   -4.9385373 
H    -3.6399869   -4.2774115   -4.4570512 
H     6.0388312    1.2364021   -5.0612334 
H    -5.3755141   -4.7021319    0.1225231 
H    -4.8981512   -4.3533101   -1.5851313 
H    -6.4990920   -3.8103818   -0.9638653 
H     5.1592361    0.1853816    1.3903137 
H     5.6101624   -1.4051196    0.6679428 
H     6.3741746   -0.8652540    2.2072331 
