123
Energy =
C    -0.6804872    3.6836170   -0.4900845 
C     0.3570976    3.6194420   -1.4657766 
C     0.2121654    2.8672686   -2.6528537 
H     1.3482795    4.0222075   -1.2196566 
Pd   -0.0908520    1.5509075   -0.8075712 
P     0.8979141   -0.4948999   -1.3837400 
P    -1.2498159    0.6654425    1.0275359 
H    -1.7171517    3.6238813   -0.8488304 
H    -0.8083768    2.5800409   -2.9537208 
C    -0.2642286    5.4911911    3.3971510 
C     0.8764753    5.0306724    2.7175327 
C     0.7552353    4.4457661    1.4540950 
C    -0.5108592    4.3079762    0.8366870 
C    -1.6472087    4.7777327    1.5312446 
C    -1.5248669    5.3631166    2.7974072 
H    -0.1676137    5.9461271    4.3883551 
H     1.8646836    5.1228743    3.1804221 
H     1.6534166    4.0734873    0.9485270 
H    -2.6360177    4.6747738    1.0716701 
H    -2.4212760    5.7162263    3.3177401 
C     3.1257952    2.5559558   -5.7961585 
C     2.0826077    1.6216505   -5.6949403 
C     1.1388756    1.7323287   -4.6701609 
C     1.2278069    2.7697275   -3.7135602 
C     2.2834257    3.7032314   -3.8273234 
C     3.2196264    3.5987675   -4.8620062 
H     3.8591022    2.4745759   -6.6051553 
H     2.0079829    0.8021529   -6.4165582 
H     0.3323374    0.9947768   -4.5872559 
H     2.3549415    4.5372873   -3.1216084 
H     4.0213766    4.3399955   -4.9451511 
O    -0.4257255   -4.3784051    0.3723495 
O     0.0554066   -3.0473064    3.0336074 
O    -4.9188865   -2.6685339   -0.3909634 
O     4.5292968   -1.3419363    2.1552516 
C     0.5331169   -1.9250096    1.0296551 
C    -0.9070101   -2.1044248    0.6850726 
C     1.4744679   -1.2908784    0.1820566 
C    -1.8506430   -1.0489088    0.6976202 
C    -1.3721727   -3.4020610    0.3545708 
C     0.9974793   -2.4310245    2.2710006 
C    -3.1918440   -1.2716784    0.3519401 
C     2.8099980   -1.1253000    0.5788768 
C     2.4115158   -0.3044683   -2.4017990 
C    -2.7712696    1.6342461    1.3716417 
C    -0.3096932    0.5660253    2.5903071 
C    -0.1450145   -1.7357442   -2.2304823 
C     3.2299134   -1.5906063    1.8384159 
C    -3.6137102   -2.5601944   -0.0235887 
C    -2.7098061   -3.6367912   -0.0077363 
C     2.3302865   -2.2634138    2.6841397 
C     0.2649866   -3.0803313   -2.3630052 
C     3.2432833    0.8062149   -2.1387717 
C    -3.5936477    1.9905212    0.2787468 
C    -0.8225204   -0.1136390    3.7148963 
C     2.7719953   -1.1862886   -3.4370675 
C    -1.3915674   -1.3455965   -2.7530216 
C    -3.1297480    2.0788434    2.6560469 
C     0.9654845    1.1557881    2.6640769 
C     4.4159122    1.0064544   -2.8693907 
C    -0.0703694   -0.1792926    4.8921614 
C    -0.5572554   -4.0004211   -3.0185566 
C    -4.7542684    2.7440804    0.4744427 
C    -2.2173162   -2.2815641   -3.3894059 
C    -4.2936503    2.8391048    2.8422963 
C     3.9454723   -0.9708248   -4.1716960 
C     1.7154549    1.0695217    3.8418258 
C    -1.8163403   -3.6226635   -3.5334478 
C     1.2113827    0.4049642    4.9766717 
C    -5.1294458    3.1820264    1.7639055 
C     4.7896317    0.1220736   -3.9027761 
C    -0.8165471   -5.7283168    0.1456753 
C     0.4438872   -3.6523421    4.2620738 
C    -6.3927872    3.9854962    1.9678645 
C    -2.7098080   -4.6434425   -4.2000568 
C     6.0481455    0.3662170   -4.7010446 
C     2.0136660    0.3284001    6.2554990 
C    -5.4158646   -3.9388859   -0.8043211 
C     5.0231299   -1.7671428    3.4227313 
H    -3.9370168   -0.4743174    0.3615391 
H     3.5498229   -0.6400370   -0.0612953 
H    -3.0323802   -4.6376010   -0.2935659 
H     2.6517920   -2.6297908    3.6585583 
H     1.2103367   -3.4114276   -1.9214919 
H    -1.7946269   -0.6143181    3.6588506 
H     2.9557462    1.5262351   -1.3625455 
H    -3.3171088    1.6765189   -0.7355893 
H     2.1322940   -2.0361218   -3.6901244 
H    -2.4918732    1.8556171    3.5156950 
H    -1.7267196   -0.3084686   -2.6332055 
H     1.3772419    1.6583872    1.7831411 
H    -0.2232752   -5.0396314   -3.1200249 
H    -0.4803558   -0.7075534    5.7607973 
H    -5.3783000    3.0047708   -0.3879602 
H     5.0411035    1.8793607   -2.6527923 
H    -3.1963402   -1.9664616   -3.7668507 
H     2.7162301    1.5144793    3.8742564 
H    -4.5480986    3.1827943    3.8511651 
H     4.2039542   -1.6649016   -4.9794068 
H     0.8348796   -2.9012437    4.9747507 
H    -0.4691351   -4.1044616    4.6759210 
H    -1.5599180   -6.0610767    0.8946570 
H     1.2048642   -4.4388672    4.0983381 
H    -1.2318412   -5.8632363   -0.8714276 
H     0.1001563   -6.3274526    0.2456309 
H    -7.2843876    3.3396864    1.8612562 
H    -6.4821398    4.7889270    1.2159590 
H    -6.4263087    4.4418515    2.9704542 
H     1.7276002    1.1450658    6.9449561 
H     1.8379572   -0.6226030    6.7872156 
H     3.0952902    0.4260392    6.0615093 
H     6.1556516   -0.3582385   -5.5244436 
H     6.9441004    0.2893620   -4.0582148 
H    -2.9290725   -5.4827878   -3.5142664 
H    -2.2224527   -5.0764258   -5.0923051 
H    -3.6680444   -4.2002069   -4.5162674 
H     6.0445000    1.3833808   -5.1328384 
H    -5.3438192   -4.6864554    0.0088455 
H    -4.8748225   -4.3119420   -1.6956110 
H    -6.4736654   -3.7805936   -1.0591582 
H     4.9678831   -2.8674068    3.5310310 
H     4.4671798   -1.2883840    4.2523923 
H     6.0757252   -1.4513060    3.4579215 
