123
Energy =
C    -0.9393076    3.6267856   -0.9185758 
C     0.4665361    3.6774634   -0.6835317 
C     1.3735050    3.1194684   -1.6149017 
H     0.8351269    4.0469714    0.2828201 
Pd   -0.0774608    1.5572525   -0.7792520 
P     1.4657897   -0.2352453   -0.6497745 
P    -1.8303257    0.2277558    0.0334467 
H    -1.2658206    3.6206842   -1.9698245 
H     1.0076163    2.9930890   -2.6458294 
C    -3.8383108    5.1593246    1.8708061 
C    -2.7587253    4.3889755    2.3346024 
C    -1.8070318    3.8992912    1.4352399 
C    -1.9214338    4.1558942    0.0504007 
C    -3.0097429    4.9320182   -0.4016233 
C    -3.9539508    5.4368759    0.5012371 
H    -4.5859801    5.5382957    2.5750940 
H    -2.6675818    4.1629117    3.4023313 
H    -0.9806553    3.2749971    1.7955685 
H    -3.1145388    5.1391087   -1.4726550 
H    -4.7901917    6.0399118    0.1324039 
C     5.6657193    3.1485891   -1.3394854 
C     5.0238454    3.1043748   -2.5856180 
C     3.6265046    3.0809101   -2.6556061 
C     2.8402997    3.1160702   -1.4820066 
C     3.5012646    3.1683234   -0.2335416 
C     4.8974025    3.1783512   -0.1638293 
H     6.7591136    3.1584653   -1.2824183 
H     5.6136100    3.0813657   -3.5077685 
H     3.1315309    3.0367078   -3.6311456 
H     2.9218469    3.1872385    0.6930418 
H     5.3895159    3.2080267    0.8138039 
O     1.0433947   -3.2446804    2.5934323 
O    -1.4767962   -4.0821155    1.0882447 
O    -0.4663156    0.5413547    5.0653718 
O     0.5581862   -4.7661171   -3.1707460 
C    -0.0404548   -2.4295788    0.2517659 
C    -0.3038106   -1.6595458    1.5009757 
C     0.8135938   -1.9600895   -0.7673043 
C    -1.0823972   -0.4885628    1.5555690 
C     0.3243543   -2.0991534    2.7053548 
C    -0.6411810   -3.7079225    0.0859652 
C    -1.1547947    0.2914566    2.7343051 
C     1.0653281   -2.7269746   -1.9234648 
C     2.3483396   -0.2031264    0.9548329 
C    -2.3844801   -1.1346701   -1.0656398 
C    -3.4378811    0.9474843    0.5479489 
C     2.7173361   -0.1467729   -1.9877505 
C     0.4351517   -3.9737711   -2.0709921 
C    -0.4902922   -0.1448885    3.8898255 
C     0.2240470   -1.3594244    3.8865917 
C    -0.4104463   -4.4719967   -1.0623594 
C     2.2466958    0.0394380   -3.3057379 
C     2.1162511    0.8496512    1.8615729 
C    -1.8825793   -1.2358407   -2.3764977 
C    -4.0611773    1.8348664   -0.3509204 
C     3.2149738   -1.2491017    1.3292470 
C     4.1011501   -0.2674910   -1.7736044 
C    -3.3532622   -2.0592792   -0.6282157 
C    -4.1302737    0.5675080    1.7156120 
C     2.7454142    0.8642429    3.1088936 
C    -5.3272303    2.3551522   -0.0728598 
C     3.1377901    0.0610234   -4.3835832 
C    -2.3016328   -2.2725061   -3.2155769 
C     4.9869486   -0.2279515   -2.8584522 
C    -3.7644368   -3.0937964   -1.4757418 
C     3.8529974   -1.2174168    2.5753630 
C    -5.3948131    1.1040591    1.9901427 
C     4.5270797   -0.0726047   -4.1798763 
C    -6.0109378    2.0160185    1.1120072 
C    -3.2326807   -3.2334037   -2.7738980 
C     3.6263968   -0.1687293    3.4891959 
C     1.6559101   -3.7895503    3.7594227 
C    -2.1018482   -5.3616782    1.0211695 
C    -3.6056345   -4.3975031   -3.6614130 
C     5.4943938    0.0095862   -5.3376493 
C     4.2698830   -0.1623725    4.8564062 
C    -7.3482902    2.6395268    1.4348174 
C    -1.1567775    1.7858422    5.1425998 
C     1.3762249   -4.3156257   -4.2489284 
H    -1.7251584    1.2216451    2.7333123 
H     1.7292858   -2.3438217   -2.6983131 
H     0.7200508   -1.6623734    4.8099428 
H    -0.8865569   -5.4399982   -1.2257798 
H     1.1719511    0.1653015   -3.4867798 
H    -3.5467038    2.1197415   -1.2750174 
H     1.4021865    1.6371181    1.5939243 
H    -1.1396199   -0.5098475   -2.7270017 
H     3.3683356   -2.1022885    0.6603456 
H    -3.7715249   -1.9838907    0.3803766 
H     4.4963038   -0.3741947   -0.7595911 
H    -3.6889487   -0.1505537    2.4134096 
H     2.7508020    0.1964943   -5.4001625 
H    -5.7878752    3.0521623   -0.7813009 
H    -1.8816997   -2.3518603   -4.2247859 
H     2.5283188    1.6754087    3.8129049 
H     6.0629749   -0.3111861   -2.6691903 
H    -5.9153955    0.8021978    2.9062319 
H    -4.5099986   -3.8140302   -1.1197307 
H     4.5286725   -2.0349305    2.8515466 
H    -2.7600425   -5.4386873    0.1352090 
H    -1.3501272   -6.1727835    0.9940389 
H     0.9006771   -4.0285180    4.5314575 
H    -2.7058552   -5.4490159    1.9358043 
H     2.1546360   -4.7131211    3.4319179 
H     2.4067372   -3.0937329    4.1790078 
H    -4.4271807   -4.9937043   -3.2320786 
H    -2.7312399   -5.0620417   -3.7959387 
H    -3.9132495   -4.0564011   -4.6657038 
H    -7.8830115    2.0766541    2.2173025 
H    -7.2089726    3.6748140    1.8008507 
H    -7.9933264    2.6946154    0.5410213 
H     4.9806198   -0.9960420    4.9768817 
H     3.5006791   -0.2492860    5.6463393 
H     5.7760145    1.0628494   -5.5299218 
H     5.0504991   -0.3851481   -6.2669621 
H     6.4236160   -0.5462109   -5.1294710 
H     4.8128759    0.7822650    5.0376846 
H    -1.0184796    2.1450569    6.1724513 
H    -2.2375870    1.6648093    4.9366050 
H    -0.7319578    2.5251315    4.4355006 
H     1.3191951   -5.0991873   -5.0180400 
H     2.4284963   -4.1863882   -3.9317679 
H     1.0019977   -3.3602432   -4.6653602 
