123
Energy =
C    -1.0001542    3.5916191   -1.1365670 
C     0.3374687    3.7579219   -0.6711675 
C     1.4315284    3.2774559   -1.4282764 
H     0.5069347    4.1575871    0.3377094 
Pd   -0.0075363    1.5992511   -0.8271811 
P     1.6355420   -0.0564673   -0.4195112 
P    -1.7579811    0.1330300   -0.2942581 
H    -1.1455640    3.5589217   -2.2272229 
H     1.2575501    3.1185487   -2.5039189 
C    -4.4305396    4.8885502    1.1182463 
C    -3.3855537    4.2052828    1.7625632 
C    -2.2635812    3.7928529    1.0377506 
C    -2.1678991    4.0404529   -0.3501564 
C    -3.2237779    4.7288228   -0.9843864 
C    -4.3401364    5.1571303   -0.2550236 
H    -5.3112329    5.2069569    1.6854054 
H    -3.4540864    3.9861996    2.8334945 
H    -1.4615255    3.2354876    1.5362788 
H    -3.1665615    4.9279270   -2.0605155 
H    -5.1485237    5.6928076   -0.7635435 
C     5.5947141    3.6881230   -0.4303106 
C     4.6382714    3.6471639    0.5977642 
C     3.2809402    3.5113406    0.2926792 
C     2.8492248    3.4012767   -1.0489178 
C     3.8232811    3.4375351   -2.0717145 
C     5.1806606    3.5868509   -1.7663218 
H     6.6572054    3.7964995   -0.1890226 
H     4.9524000    3.7201168    1.6441524 
H     2.5529762    3.4771035    1.1073511 
H     3.5077755    3.3491883   -3.1163449 
H     5.9178566    3.6172518   -2.5751698 
O     0.9070613   -3.1096868    2.7404635 
O    -1.2692631   -4.1199030    0.8277112 
O    -1.2581285    0.5533978    4.8903819 
O     1.6460491   -4.4815558   -3.0561361 
C     0.1646059   -2.3662752    0.2403121 
C    -0.3563371   -1.6270140    1.4252279 
C     1.1441297   -1.8253271   -0.6281067 
C    -1.2190525   -0.5187402    1.3402635 
C     0.0972300   -2.0205362    2.7203641 
C    -0.3040185   -3.6765666   -0.0196225 
C    -1.5404257    0.2533461    2.4819499 
C     1.6374818   -2.5663019   -1.7109963 
C     2.2261196    0.0392993    1.3116342 
C    -2.0353302   -1.2746754   -1.4434670 
C    -3.4783428    0.7289662   -0.0596045 
C     3.0872558    0.1384532   -1.5213954 
C     1.1409973   -3.8600306   -1.9573226 
C    -1.0417948   -0.1329330    3.7345354 
C    -0.2492576   -1.2912883    3.8610837 
C     0.1713533   -4.4251611   -1.1107840 
C     2.8406710    0.2852443   -2.9022221 
C     1.7661833    1.0691798    2.1553455 
C    -3.0151043   -2.2474891   -1.1518416 
C    -4.0138235    1.5571253   -1.0653502 
C     3.0975505   -0.9360315    1.8359307 
C     4.4181430    0.1452434   -1.0651903 
C    -1.3294802   -1.3559369   -2.6555786 
C    -4.3200080    0.3052933    0.9889118 
C     2.1764654    1.1305950    3.4896095 
C    -5.3443000    1.9781115   -1.0056556 
C     3.9029377    0.3921537   -3.8076058 
C    -3.2513947   -3.2917474   -2.0482788 
C     5.4723265    0.2685335   -1.9772394 
C    -1.5714817   -2.4100274   -3.5467367 
C     3.5150854   -0.8571336    3.1701748 
C    -5.6495803    0.7428723    1.0453491 
C     5.2394294    0.3831421   -3.3623261 
C    -6.1831162    1.5961344    0.0606768 
C    -2.5292295   -3.3983414   -3.2573785 
C     3.0589363    0.1687544    4.0222329 
C     1.3645764   -3.6032794    3.9969013 
C    -1.7889149   -5.4355475    0.6621433 
C    -2.7849595   -4.5470813   -4.2057128 
C     6.3938787    0.5213544   -4.3274698 
C     3.4620119    0.2212069    5.4776251 
C    -7.5983934    2.1159523    0.1510830 
C    -2.0384803    1.7448700    4.8392868 
C     1.1853277   -5.7903802   -3.3832147 
H    -2.1690519    1.1387380    2.3771277 
H     2.3916380   -2.1695053   -2.3932171 
H     0.1108562   -1.5567735    4.8561885 
H    -0.2278866   -5.4193717   -1.3093700 
H     1.8080850    0.3140404   -3.2718742 
H    -3.3794562    1.8749218   -1.8999132 
H     1.0488560    1.8000263    1.7640211 
H    -3.5839726   -2.1924667   -0.2185775 
H     3.4280680   -1.7713788    1.2098206 
H    -0.5714465   -0.6005971   -2.8927833 
H     4.6362325    0.0760370    0.0040894 
H    -3.9442220   -0.3700687    1.7634429 
H     3.6904908    0.4947616   -4.8777203 
H    -5.7357877    2.6313158   -1.7930469 
H    -4.0141891   -4.0417497   -1.8079457 
H     1.7841157    1.9215763    4.1386359 
H     6.5012053    0.2867591   -1.6004454 
H    -6.2868576    0.4090347    1.8722807 
H    -0.9934339   -2.4716866   -4.4752638 
H     4.1980331   -1.6189828    3.5630828 
H    -0.9937331   -6.1979333    0.7666861 
H    -2.5311179   -5.5681740    1.4625560 
H     1.9819732   -2.8502119    4.5219075 
H    -2.2848897   -5.5493655   -0.3207243 
H     0.5161198   -3.9003224    4.6415596 
H     1.9798236   -4.4849435    3.7663179 
H    -3.8193108   -4.5189856   -4.5942790 
H    -2.6612247   -5.5185945   -3.6925543 
H    -2.0977865   -4.5232256   -5.0672510 
H    -8.0960455    2.1026522   -0.8339449 
H    -8.2057119    1.5264227    0.8572057 
H    -7.5980678    3.1656701    0.5021001 
H     4.2259618   -0.5362142    5.7171714 
H     2.5853049    0.0421647    6.1278526 
H     7.0767413   -0.3440937   -4.2538910 
H     6.9906697    1.4234528   -4.0984956 
H     6.0467912    0.5966223   -5.3706237 
H     3.8645166    1.2141936    5.7454158 
H    -2.0931851    2.1152117    5.8730412 
H    -3.0607985    1.5456146    4.4646622 
H    -1.5593177    2.5114681    4.1992260 
H     1.7291530   -6.0825232   -4.2930471 
H     0.0975279   -5.7943688   -3.5885030 
H     1.4100633   -6.5121736   -2.5747470 
