123
Energy =
C    -1.0722578    2.9295990   -1.9926996 
C     0.2980153    3.3182394   -2.0001339 
C     1.3025465    2.4657711   -2.5114934 
H     0.5954910    4.2422895   -1.4906068 
Pd    0.1650447    1.4717099   -0.7861762 
P     1.7700321   -0.0110474    0.0284410 
P    -1.6201171    0.1631597    0.0626202 
H    -1.3939650    2.2162533   -2.7637115 
H     0.9714384    1.6438378   -3.1654046 
C    -4.3013165    5.3496988   -0.4959912 
C    -2.9769431    5.6850882   -0.1719079 
C    -1.9174918    4.8943715   -0.6274704 
C    -2.1561109    3.7572485   -1.4350769 
C    -3.4965993    3.4237597   -1.7367896 
C    -4.5566186    4.2088148   -1.2718674 
H    -5.1290322    5.9737196   -0.1431765 
H    -2.7693192    6.5692375    0.4400368 
H    -0.8939079    5.1705574   -0.3536885 
H    -3.7019317    2.5354826   -2.3444858 
H    -5.5864087    3.9302701   -1.5173248 
C     5.4756006    3.3443858   -3.0236021 
C     4.9265600    2.1492624   -3.5115402 
C     3.5702204    1.8724361   -3.3150122 
C     2.7327938    2.7798984   -2.6242051 
C     3.3070368    3.9709725   -2.1203807 
C     4.6610830    4.2511512   -2.3246289 
H     6.5349808    3.5697129   -3.1842771 
H     5.5565633    1.4313794   -4.0458536 
H     3.1426436    0.9427819   -3.7063404 
H     2.6892193    4.6931578   -1.5770269 
H     5.0856015    5.1842751   -1.9399665 
O     0.9099794   -3.8063526    2.1730861 
O    -1.1566166   -4.2798670   -0.0251544 
O    -1.8000597   -1.2221886    5.1262401 
O     1.3202822   -3.0750720   -4.0366354 
C     0.2227001   -2.3820971   -0.0497195 
C    -0.3518584   -2.0424628    1.2837525 
C     1.1768086   -1.5823289   -0.7184533 
C    -1.2607480   -0.9795604    1.4709048 
C     0.0050496   -2.8239424    2.4169734 
C    -0.2721070   -3.5269500   -0.7296773 
C    -1.7956004   -0.6872797    2.7422577 
C     1.5234882   -1.8342568   -2.0589707 
C     1.9005660   -0.1908249    1.8511551 
C    -2.2485081   -0.9546969   -1.2524670 
C    -3.0417126    1.1502846    0.6620221 
C     3.5412369    0.1833621   -0.3977978 
C     0.9676426   -2.9369856   -2.7297549 
C    -1.3993453   -1.4584295    3.8472753 
C    -0.5096968   -2.5369303    3.6851716 
C     0.0984603   -3.8140150   -2.0539112 
C     4.1209354    1.4208904   -0.0432309 
C     1.1919056    0.6777368    2.7015209 
C    -1.8251396   -0.8003430   -2.5850692 
C    -2.7527803    2.3012675    1.4258416 
C     2.7751838   -1.1423160    2.4127182 
C     4.3686549   -0.8364971   -0.9025856 
C    -3.1373040   -2.0064087   -0.9383635 
C    -4.3867707    0.8003930    0.4440269 
C     1.3170869    0.5629142    4.0896436 
C    -3.7843711    3.0582158    1.9869074 
C     5.4919863    1.6293351   -0.1934919 
C    -2.2855279   -1.6671286   -3.5843618 
C     5.7431941   -0.6086978   -1.0657431 
C    -3.6047675   -2.8552930   -1.9454878 
C     2.8881725   -1.2513328    3.8027982 
C    -5.4143109    1.5731941    1.0005665 
C     6.3292625    0.6221487   -0.7191072 
C    -5.1357692    2.7088205    1.7846465 
C    -3.1854775   -2.7063415   -3.2853469 
C     2.1488149   -0.4168615    4.6662444 
C     1.3179383   -4.6478132    3.2490902 
C    -1.6406743   -5.4941499   -0.5899199 
C    -3.6881576   -3.6449715   -4.3582167 
C     7.8035614    0.8801206   -0.9221658 
C     2.2014225   -0.5857351    6.1665552 
C    -6.2453327    3.5644377    2.3480413 
C    -2.6784021   -0.1257086    5.3743762 
C     0.7719689   -4.1561652   -4.7882100 
H    -2.4890079    0.1455311    2.8620347 
H     2.2051830   -1.1832791   -2.6122672 
H    -0.2219961   -3.1003255    4.5741370 
H    -0.3248102   -4.6779308   -2.5653110 
H     3.4902290    2.2202476    0.3627189 
H    -1.7097174    2.6065543    1.5718986 
H     0.5226981    1.4301018    2.2684289 
H    -1.0985327   -0.0203400   -2.8350237 
H     3.3537352   -1.8078695    1.7641405 
H    -3.4345737   -2.1798988    0.1009182 
H     3.9522491   -1.8157511   -1.1565193 
H    -4.6403466   -0.0717050   -0.1654370 
H     5.9212863    2.5968867    0.0875379 
H    -3.5386874    3.9507201    2.5724765 
H    -1.9230462   -1.5424442   -4.6108045 
H     0.7409668    1.2319729    4.7390756 
H     6.3731649   -1.4127896   -1.4629341 
H    -6.4564822    1.2878292    0.8174835 
H    -4.2987579   -3.6625820   -1.6841424 
H     3.5624337   -2.0032227    4.2289259 
H    -2.2184775   -5.3059575   -1.5148794 
H    -0.8104950   -6.1924364   -0.8073634 
H     2.0316819   -5.3636465    2.8163849 
H    -2.3029209   -5.9347650    0.1692367 
H     1.8171500   -4.0640773    4.0453594 
H     0.4574289   -5.1953352    3.6776842 
H    -4.7593435   -3.4668682   -4.5663671 
H    -3.5926424   -4.6997713   -4.0433381 
H    -3.1364833   -3.5142288   -5.3036991 
H    -6.3876276    4.4647906    1.7207057 
H    -7.2043046    3.0217875    2.3774016 
H    -6.0083011    3.9133235    3.3677563 
H     2.3757887    0.3787934    6.6752520 
H     2.9947756   -1.2869021    6.4727093 
H     8.3500268   -0.0443947   -1.1695859 
H     8.2601719    1.3237027   -0.0200422 
H     7.9584677    1.5977511   -1.7499913 
H     1.2344264   -0.9784448    6.5340373 
H    -2.8560151   -0.1219909    6.4593785 
H    -3.6410273   -0.2505740    4.8431765 
H    -2.2178722    0.8344122    5.0711321 
H     1.1757651   -4.0510956   -5.8054554 
H    -0.3333746   -4.1016425   -4.8227844 
H     1.0790990   -5.1347268   -4.3722789 
