123
Energy =
C    -1.1212727    2.8584910   -2.0008986 
C     0.2571484    3.2169198   -2.0580045 
C     1.2272174    2.3303314   -2.5763903 
H     0.5889233    4.1463364   -1.5802979 
Pd    0.1163068    1.4048562   -0.7947602 
P     1.7053760   -0.0812389    0.0414533 
P    -1.6790722    0.1245682    0.0763489 
H    -1.4845143    2.1429913   -2.7511592 
H     0.8581632    1.4967837   -3.1943802 
C    -4.2318053    5.3901951   -0.4395782 
C    -2.8909814    5.6686111   -0.1291020 
C    -1.8702704    4.8403424   -0.6057539 
C    -2.1649317    3.7221993   -1.4215453 
C    -3.5214195    3.4451371   -1.7080635 
C    -4.5428247    4.2679953   -1.2222873 
H    -5.0292455    6.0431926   -0.0698460 
H    -2.6403275    6.5368319    0.4895045 
H    -0.8329662    5.0697625   -0.3400400 
H    -3.7703458    2.5722877   -2.3216406 
H    -5.5860625    4.0334206   -1.4565904 
C     5.4075485    3.0812930   -3.2237395 
C     4.8196823    1.8773887   -3.6397613 
C     3.4614232    1.6461537   -3.4031555 
C     2.6603273    2.6061084   -2.7406719 
C     3.2733202    3.8071107   -2.3121359 
C     4.6291017    4.0427412   -2.5578320 
H     6.4684173    3.2715074   -3.4164806 
H     5.4214704    1.1185276   -4.1494836 
H     3.0019751    0.7104858   -3.7409695 
H     2.6841165    4.5718889   -1.7962260 
H     5.0832479    4.9840991   -2.2315788 
O     0.8191008   -3.8576558    2.2006554 
O    -1.2438782   -4.3348853    0.0071386 
O    -1.8640223   -1.2373388    5.1463307 
O     1.1761248   -3.3597117   -3.9837686 
C     0.1461117   -2.4403656   -0.0247660 
C    -0.4288446   -2.0876044    1.3054757 
C     1.1076383   -1.6573859   -0.6896332 
C    -1.3255976   -1.0137909    1.4896535 
C    -0.0778111   -2.8674308    2.4416730 
C    -0.3518757   -3.5953226   -0.6994835 
C    -1.8562794   -0.7118495    2.7603266 
C     1.4754471   -1.9220529   -2.0303483 
C     1.8363995   -0.2412962    1.8654141 
C    -2.3134785   -1.0007149   -1.2275170 
C    -3.0892576    1.1298647    0.6706204 
C     3.4763054    0.0956218   -0.3961003 
C     0.9227250   -3.0312571   -2.6872835 
C    -1.4669546   -1.4827864    3.8680774 
C    -0.5882169   -2.5705942    3.7093602 
C     0.0357086   -3.8916837   -2.0092749 
C     4.0574322    1.3512820   -0.1175404 
C     1.1363867    0.6436058    2.7059835 
C    -1.8795943   -0.8726753   -2.5620664 
C    -2.7890651    2.2732066    1.4421835 
C     2.6983156   -1.1979017    2.4378279 
C     4.3029943   -0.9537627   -0.8391269 
C    -3.2091279   -2.0395634   -0.9007569 
C    -4.4372822    0.8025148    0.4380272 
C     1.2576590    0.5406848    4.0953849 
C    -3.8135098    3.0431590    1.9978558 
C     5.4284952    1.5494906   -0.2832981 
C    -2.3309956   -1.7577236   -3.5452409 
C     5.6770244   -0.7371145   -1.0201040 
C    -3.6717053   -2.9077888   -1.8966785 
C     2.8074490   -1.2948456    3.8290611 
C    -5.4577644    1.5890330    0.9892618 
C     6.2641581    0.5124634   -0.7499900 
C    -5.1686221    2.7155294    1.7820636 
C    -3.2359566   -2.7920314   -3.2317084 
C     2.0764791   -0.4433699    4.6830307 
C     1.2158535   -4.7038277    3.2772966 
C    -1.7286018   -5.5511717   -0.5564382 
C    -3.6923583   -3.7618514   -4.2968126 
C     7.7390370    0.7562762   -0.9661841 
C     2.1228811   -0.5999727    6.1848034 
C    -6.2681571    3.5843277    2.3450448 
C    -2.7329102   -0.1324691    5.3908280 
C     2.0561716   -2.5307459   -4.7375710 
H    -2.5418155    0.1277959    2.8776046 
H     2.1740884   -1.2570671   -2.5409612 
H    -0.3050082   -3.1335190    4.6000647 
H    -0.3597833   -4.7494918   -2.5552584 
H     3.4272501    2.1742043    0.2391575 
H    -1.7429031    2.5621525    1.5984421 
H     0.4763153    1.3991409    2.2644851 
H    -1.1500372   -0.0977232   -2.8196034 
H     3.2684905   -1.8783781    1.7974274 
H    -3.5183488   -2.1912757    0.1384257 
H     3.8845591   -1.9465624   -1.0309827 
H    -4.6984810   -0.0625952   -0.1782599 
H     5.8590169    2.5318317   -0.0616418 
H    -3.5592188    3.9293083    2.5894028 
H    -1.9574170   -1.6591357   -4.5705730 
H     0.6882148    1.2227084    4.7371595 
H     6.3064412   -1.5640688   -1.3684209 
H    -6.5025463    1.3214479    0.7947919 
H    -4.3726217   -3.7057030   -1.6263695 
H     3.4710967   -2.0512982    4.2636371 
H    -2.2929926   -5.3641949   -1.4893020 
H    -0.8984337   -6.2528860   -0.7612082 
H     0.3482350   -5.2404025    3.7052065 
H    -2.4012538   -5.9837710    0.1981436 
H     1.9208704   -5.4285852    2.8452162 
H     1.7216724   -4.1259786    4.0737324 
H    -4.1569365   -3.2301263   -5.1463647 
H    -4.4249150   -4.4848004   -3.9027833 
H    -2.8326017   -4.3279256   -4.7006323 
H    -6.3376261    4.5297142    1.7745638 
H    -7.2497080    3.0860053    2.2922488 
H    -6.0691417    3.8544974    3.3966449 
H     2.2964028    0.3683394    6.6864331 
H     2.9136662   -1.3000627    6.4998868 
H     8.2754452   -0.1744190   -1.2121806 
H     8.2057793    1.1988740   -0.0684987 
H     7.8951980    1.4696734   -1.7970618 
H     1.1536720   -0.9884429    6.5510594 
H    -2.9095567   -0.1230266    6.4759423 
H    -3.6969575   -0.2514510    4.8609083 
H    -2.2645175    0.8225112    5.0834438 
H     2.1185777   -2.9846435   -5.7370040 
H     3.0664443   -2.4945964   -4.2863094 
H     1.6596292   -1.4999112   -4.8272332 
