123
Energy =
C    -1.0582799    2.9117031   -2.0267784 
C     0.3114601    3.3014506   -2.0256259 
C     1.3207053    2.4454696   -2.5220729 
H     0.6041623    4.2294907   -1.5206355 
Pd    0.1715205    1.4637857   -0.7988113 
P     1.7707075   -0.0142193    0.0352474 
P    -1.6190329    0.1651188    0.0538469 
H    -1.3719775    2.1902104   -2.7934818 
H     0.9952935    1.6192250   -3.1734143 
C    -4.3075136    5.3350454   -0.5800996 
C    -2.9865016    5.6837028   -0.2563213 
C    -1.9203749    4.8927076   -0.6956381 
C    -2.1488959    3.7417105   -1.4862764 
C    -3.4861487    3.3954767   -1.7881951 
C    -4.5528040    4.1808347   -1.3393557 
H    -5.1404625    5.9593812   -0.2403842 
H    -2.7866781    6.5786729    0.3423370 
H    -0.8995782    5.1801336   -0.4231030 
H    -3.6835549    2.4966561   -2.3829156 
H    -5.5798873    3.8921901   -1.5843984 
C     5.4966581    3.3247623   -3.0091037 
C     4.6771178    4.2331279   -2.3181186 
C     3.3219298    3.9527595   -2.1217973 
C     2.7516223    2.7598575   -2.6257489 
C     3.5941035    1.8506121   -3.3079751 
C     4.9515044    2.1277337   -3.4967116 
H     6.5569137    3.5502502   -3.1636690 
H     5.0986294    5.1676061   -1.9334311 
H     2.7002693    4.6760655   -1.5843234 
H     3.1696781    0.9193757   -3.6989835 
H     5.5853758    1.4085417   -4.0246545 
O     0.8957836   -3.7915430    2.2061433 
O    -1.1629778   -4.2784819    0.0026783 
O    -1.8192030   -1.1771105    5.1280932 
O     1.3302435   -3.1073097   -4.0087192 
C     0.2197496   -2.3833949   -0.0309027 
C    -0.3592905   -2.0325417    1.2977204 
C     1.1774534   -1.5900041   -0.7021369 
C    -1.2668683   -0.9664874    1.4727624 
C    -0.0080225   -2.8053514    2.4386082 
C    -0.2746444   -3.5323338   -0.7042066 
C    -1.8057662   -0.6625798    2.7396733 
C     1.5282444   -1.8521978   -2.0396270 
C     1.8933608   -0.1798307    1.8598337 
C    -2.2461111   -0.9620434   -1.2538895 
C    -3.0399786    1.1603123    0.6414530 
C     3.5443222    0.1735200   -0.3841519 
C     0.9730624   -2.9590292   -2.7041948 
C    -1.4147467   -1.4250916    3.8525163 
C    -0.5267103   -2.5066884    3.7025374 
C     0.1001063   -3.8297065   -2.0249977 
C     4.1255880    1.4108422   -0.0312487 
C     1.1827482    0.6964441    2.7006061 
C    -1.8191834   -0.8186794   -2.5867045 
C    -2.7500097    2.3205097    1.3910967 
C     2.7646412   -1.1279705    2.4321735 
C     4.3713627   -0.8500235   -0.8819550 
C    -3.1374435   -2.0097100   -0.9339974 
C    -4.3851346    0.8083720    0.4286761 
C     1.3027944    0.5925985    4.0900580 
C    -3.7807502    3.0847803    1.9432143 
C     5.4977485    1.6154002   -0.1763009 
C    -2.2794808   -1.6915067   -3.5806099 
C     5.7471765   -0.6261128   -1.0400075 
C    -3.6047677   -2.8649058   -1.9360056 
C     2.8724717   -1.2259737    3.8234740 
C    -5.4121358    1.5884949    0.9764147 
C     6.3348005    0.6043997   -0.6949672 
C    -5.1326240    2.7333018    1.7462837 
C    -3.1830388   -2.7261876   -3.2760806 
C     2.1311873   -0.3835544    4.6775052 
C     1.2987114   -4.6243880    3.2907204 
C    -1.6472515   -5.4960406   -0.5548846 
C    -3.6896600   -3.6673671   -4.3448419 
C     7.8106427    0.8580617   -0.8921480 
C     2.1788441   -0.5397864    6.1793516 
C    -6.2400345    3.5953195    2.3041815 
C    -2.6966161   -0.0771597    5.3638007 
C     0.7828383   -4.1929353   -4.7543707 
H    -2.4979017    0.1725937    2.8499341 
H     2.2125876   -1.2061939   -2.5955021 
H    -0.2432446   -3.0631531    4.5972100 
H    -0.3228052   -4.6966472   -2.5315402 
H     3.4952023    2.2130665    0.3694813 
H    -1.7066333    2.6271281    1.5323069 
H     0.5160174    1.4461306    2.2591158 
H    -1.0897031   -0.0426511   -2.8405611 
H     3.3446903   -1.7993649    1.7909924 
H    -3.4366981   -2.1755102    0.1059641 
H     3.9537585   -1.8291900   -1.1341721 
H    -4.6395698   -0.0707392   -0.1702503 
H     5.9282217    2.5828145    0.1034124 
H    -3.5343029    3.9846744    2.5170763 
H    -1.9142121   -1.5752947   -4.6070797 
H     0.7252355    1.2675940    4.7320207 
H     6.3768364   -1.4330874   -1.4318057 
H    -6.4545547    1.3016946    0.7971801 
H    -4.3006134   -3.6691048   -1.6701740 
H     3.5441846   -1.9752943    4.2580754 
H    -2.2213586   -5.3135898   -1.4832734 
H    -0.8175634   -6.1974048   -0.7641454 
H     0.4358212   -5.1665943    3.7212815 
H    -2.3129965   -5.9298354    0.2051386 
H     2.0125030   -5.3452548    2.8665438 
H     1.7964348   -4.0346559    4.0834971 
H    -4.7450871   -3.4485533   -4.5919933 
H    -3.6492723   -4.7179670   -4.0059302 
H    -3.1038795   -3.5793612   -5.2747626 
H    -6.3362251    4.5241257    1.7108294 
H    -7.2125762    3.0774813    2.2790046 
H    -6.0305492    3.8961863    3.3453102 
H     2.3582049    0.4280233    6.6800728 
H     2.9669907   -1.2432472    6.4935631 
H     8.3553096   -0.0679461   -1.1379246 
H     8.2650065    1.2996993    0.0120856 
H     7.9709751    1.5757986   -1.7188328 
H     1.2084736   -0.9230804    6.5477970 
H    -2.8777631   -0.0637240    6.4481421 
H    -3.6576992   -0.2051890    4.8305552 
H    -2.2336164    0.8795840    5.0537170 
H     1.1906553   -4.0960882   -5.7708277 
H    -0.3222677   -4.1366813   -4.7934813 
H     1.0865909   -5.1689593   -4.3300853 
