123
Energy =
C    -1.1090318    3.4871309   -0.8415463 
C     0.2427228    3.6496255   -1.2659086 
C     0.7670745    2.9267809   -2.3606486 
H     0.9372440    4.2164099   -0.6320883 
Pd   -0.0668892    1.5122162   -0.7721960 
P     1.4240523   -0.2972599   -0.7709482 
P    -1.7219437    0.3591537    0.4212727 
H    -1.8575408    3.2565986   -1.6121398 
H     0.0495351    2.4719079   -3.0627637 
C    -2.7495058    5.1863436    2.7602153 
C    -3.5786584    4.8697152    1.6751262 
C    -3.0337307    4.3214346    0.5075312 
C    -1.6467709    4.0794739    0.3991936 
C    -0.8221818    4.4057186    1.5021931 
C    -1.3667942    4.9525389    2.6672146 
H    -3.1749872    5.6114825    3.6750711 
H    -4.6578427    5.0446119    1.7366479 
H    -3.6889064    4.0685705   -0.3329363 
H     0.2553117    4.2109109    1.4550472 
H    -0.7125583    5.1918903    3.5121617 
C     4.7701702    3.2444252   -3.8915798 
C     4.2589132    4.2583917   -3.0671943 
C     2.9601831    4.1612018   -2.5549617 
C     2.1442678    3.0494389   -2.8659678 
C     2.6686997    2.0425672   -3.7085954 
C     3.9705332    2.1346033   -4.2087179 
H     5.7856134    3.3221520   -4.2937211 
H     4.8717738    5.1342882   -2.8299603 
H     2.5659965    4.9726951   -1.9346020 
H     2.0511409    1.1692980   -3.9479828 
H     4.3656929    1.3375702   -4.8463292 
O     0.1917384   -4.4266925    0.3480954 
O    -0.7694316   -3.1834297    2.9136536 
O    -3.7534525   -3.4888621   -2.3440701 
O     3.2113333   -0.8583516    4.1361444 
C     0.3182865   -1.8882411    1.2826794 
C    -0.7763999   -2.2909132    0.3525980 
C     1.4021270   -1.0670670    0.9094877 
C    -1.8027537   -1.4165966   -0.0802597 
C    -0.8120802   -3.6310975   -0.1085264 
C     0.2873515   -2.3818659    2.6193719 
C    -2.7977849   -1.8524228   -0.9678917 
C     2.4030638   -0.7050383    1.8356875 
C     3.1703003    0.2136170   -1.0152770 
C    -3.3920233    1.0275502    0.0539273 
C    -1.5276117    0.3470838    2.2357396 
C     1.1017568   -1.6523796   -1.9559445 
C     2.3201959   -1.1723983    3.1574202 
C    -2.7784660   -3.1742076   -1.4495577 
C    -1.7945896   -4.0765861   -1.0094205 
C     1.2687415   -2.0234560    3.5483760 
C     1.7559085   -2.8993106   -1.8542540 
C     4.1187406   -0.5521667   -1.7173667 
C    -4.3298584    1.3475945    1.0512584 
C    -0.5253053    1.1409655    2.8262821 
C     3.5736981    1.4490601   -0.4631693 
C     0.1621174   -1.4544232   -2.9844699 
C    -3.7277882    1.2785118   -1.2956319 
C    -2.3351908   -0.4671536    3.0543790 
C     5.4388225   -0.0998135   -1.8432530 
C    -0.3286658    1.1135325    4.2089690 
C     1.4789762   -3.9113539   -2.7772421 
C    -5.5792155    1.8803377    0.7024186 
C    -0.1231287   -2.4832365   -3.8913477 
C    -4.9781286    1.8037845   -1.6343982 
C     4.8941411    1.8871596   -0.5853616 
C    -2.1402927   -0.4724546    4.4406990 
C     0.5290436   -3.7272992   -3.8051718 
C    -1.1289397    0.3039636    5.0411103 
C    -5.9319558    2.1126787   -0.6398059 
C     5.8533191    1.1216255   -1.2806591 
C     0.1815243   -5.8130819    0.0245244 
C    -0.8404305   -3.7790593    4.2059854 
C    -7.2887459    2.6625980   -1.0136675 
C     0.2191581   -4.8453031   -4.7739597 
C     7.2655662    1.6296762   -1.4480276 
C    -0.8742090    0.2479072    6.5294505 
C    -3.7870134   -4.8037659   -2.8934662 
C     4.3103782   -0.0092543    3.8120169 
H    -3.6032035   -1.1989690   -1.3075231 
H     3.2344047   -0.0744554    1.5188655 
H    -1.7771025   -5.1026009   -1.3758679 
H     1.2473671   -2.3673020    4.5836303 
H     2.4502865   -3.0889145   -1.0295402 
H     0.1151918    1.7584277    2.1881791 
H     3.8317882   -1.4987547   -2.1834719 
H    -4.0830532    1.2054140    2.1070381 
H     2.8369295    2.0753370    0.0553151 
H    -2.9991105    1.0637562   -2.0873116 
H    -0.3696886   -0.4980309   -3.0531259 
H    -3.0952101   -1.1162562    2.6073989 
H     1.9978071   -4.8729825   -2.6889012 
H     0.4706173    1.7185563    4.6514666 
H    -6.2902539    2.1316702    1.4974099 
H     6.1607220   -0.7089771   -2.3988643 
H    -0.8775427   -2.3210069   -4.6690835 
H    -2.7771923   -1.1056498    5.0688803 
H    -5.2175572    1.9857365   -2.6882338 
H     5.1818979    2.8531619   -0.1561927 
H     0.0402342   -4.4203647    4.3984788 
H    -0.9174074   -3.0105935    4.9982161 
H    -0.7418781   -6.3020132    0.3883903 
H    -1.7521972   -4.3938590    4.2033868 
H     0.2792945   -5.9739320   -1.0662939 
H     1.0534231   -6.2470056    0.5351237 
H    -7.2131749    3.3978647   -1.8331378 
H    -7.7810633    3.1464732   -0.1543665 
H    -7.9517251    1.8494677   -1.3648579 
H    -0.8156159    1.2611879    6.9643603 
H    -1.6640962   -0.3099713    7.0583395 
H     0.0923380   -0.2493653    6.7356158 
H     7.2823714    2.4926266   -2.1398683 
H     7.9326515    0.8539995   -1.8575605 
H    -0.6379925   -4.5962134   -5.4206299 
H    -0.0131594   -5.7829314   -4.2369894 
H     1.0864030   -5.0546933   -5.4268996 
H     7.6836499    1.9769665   -0.4869543 
H    -4.6392143   -4.8187939   -3.5880550 
H    -3.9425947   -5.5675602   -2.1074678 
H    -2.8562643   -5.0317483   -3.4486579 
H     4.8868147    0.1055100    4.7412181 
H     3.9640131    0.9844716    3.4672328 
H     4.9536821   -0.4599335    3.0323471 
