123
Energy =
C    -0.9267282    3.4410149   -1.0025180 
C     0.4770277    3.6733936   -1.0917844 
C     1.2737842    3.0231400   -2.0606421 
H     0.9781730    4.2374939   -0.2944675 
Pd    0.1650028    1.5051504   -0.7577594 
P     1.6963576   -0.2486820   -0.4808418 
P    -1.6629480    0.2380217   -0.0179375 
H    -1.4612740    3.2132283   -1.9350460 
H     0.7587248    2.5719876   -2.9241273 
C    -3.4538750    4.9176459    2.1574075 
C    -3.9882145    4.6029803    0.9000695 
C    -3.1557306    4.1285298   -0.1210213 
C    -1.7700654    3.9588661    0.0926838 
C    -1.2448480    4.2835525    1.3661373 
C    -2.0763033    4.7572866    2.3846534 
H    -4.1042182    5.2854962    2.9577264 
H    -5.0602214    4.7225291    0.7113473 
H    -3.5810293    3.8782802   -1.0988911 
H    -0.1766842    4.1454510    1.5679576 
H    -1.6510928    4.9969844    3.3649526 
C     5.4955534    3.5782305   -2.6365319 
C     4.8420965    2.4593990   -3.1775169 
C     3.4684300    2.2888140   -2.9852020 
C     2.7212596    3.2243971   -2.2330491 
C     3.3921627    4.3458616   -1.6935566 
C     4.7650769    4.5220636   -1.8985336 
H     6.5700024    3.7163148   -2.7954370 
H     5.4076427    1.7162491   -3.7482214 
H     2.9630915    1.4088423   -3.3994418 
H     2.8314025    5.1040594   -1.1372753 
H     5.2661620    5.4046993   -1.4875349 
O     0.4049773   -4.4702620    0.2689184 
O    -1.1625586   -3.3083477    2.5553773 
O    -2.8132871   -3.8112650   -3.1867887 
O     2.4028402   -0.6940198    4.5907471 
C     0.2144395   -1.9395819    1.2392521 
C    -0.6240766   -2.3672548    0.0819804 
C     1.3198205   -1.0596715    1.1375359 
C    -1.5620131   -1.5271204   -0.5514421 
C    -0.5054345   -3.7060093   -0.3890897 
C    -0.1041878   -2.4555210    2.5219860 
C    -2.3324238   -1.9778418   -1.6441520 
C     2.0444954   -0.6746733    2.2756704 
C     3.4348234    0.3149870   -0.3352606 
C    -3.2244631    0.8521002   -0.7666486 
C    -1.9110113    0.1906741    1.7909535 
C     1.6753455   -1.5778618   -1.7344490 
C     1.6730679   -1.1615226    3.5423713 
C    -2.1567854   -3.2890666   -2.1153646 
C    -1.2533074   -4.1608742   -1.4790480 
C     0.6079155   -2.0703967    3.6705387 
C     0.9612858   -1.3783506   -2.9330118 
C     3.6769044    1.5313437    0.3402587 
C    -4.3965207    1.0887467   -0.0283895 
C    -2.8554957   -0.6750396    2.3821644 
C     4.5281894   -0.3845917   -0.8778746 
C     2.3327957   -2.8068345   -1.5243523 
C    -3.2297263    1.1343761   -2.1519238 
C    -1.1162422    1.0082169    2.6142465 
C     4.9782439    2.0118712    0.4962780 
C    -3.0032673   -0.6999038    3.7720584 
C     0.8908370   -2.3932394   -3.8916141 
C    -5.5486613    1.5737864   -0.6653374 
C     2.2725230   -3.8081712   -2.5006320 
C    -4.3839466    1.6111944   -2.7796115 
C     5.8295308    0.1116327   -0.7251888 
C    -1.2612688    0.9622916    4.0053625 
C     1.5375788   -3.6296568   -3.6896023 
C    -2.2062440    0.1110792    4.6087105 
C    -5.5694568    1.8412372   -2.0461537 
C     6.0812742    1.3116483   -0.0352880 
C     0.5231484   -5.8478029   -0.0757748 
C    -1.5057963   -3.9421829    3.7828166 
C    -6.8042119    2.3832769   -2.7282584 
C     1.3966140   -4.7410494   -4.7031494 
C     7.4810744    1.8561543    0.1217937 
C    -2.3699977    0.0619493    6.1106423 
C    -3.7429416   -2.9870465   -3.8865295 
C     2.0724542   -1.1271751    5.9079092 
H    -3.0618325   -1.3149661   -2.1093009 
H     2.9002283    0.0011926    2.2174917 
H    -1.1536177   -5.1725697   -1.8754075 
H     0.3191289   -2.4542594    4.6484872 
H     0.4340701   -0.4302265   -3.0937001 
H    -3.4500075   -1.3492869    1.7570781 
H     2.8318337    2.1107638    0.7323550 
H    -4.4129958    0.9158865    1.0512637 
H     4.3715580   -1.3106473   -1.4376839 
H    -2.3171185    0.9792954   -2.7413548 
H     2.8580598   -2.9958074   -0.5827692 
H    -0.3626471    1.6591639    2.1595543 
H     0.3081253   -2.2325009   -4.8056609 
H    -3.7420414   -1.3746243    4.2200628 
H    -6.4488616    1.7570605   -0.0680568 
H     5.1411674    2.9613936    1.0174080 
H     2.7911129   -4.7578248   -2.3264556 
H    -0.6172086    1.5880987    4.6330643 
H    -4.3654334    1.8178883   -3.8559495 
H     6.6668754   -0.4443586   -1.1618181 
H    -0.6642254   -4.5471663    4.1701142 
H    -1.8119816   -3.2016214    4.5462062 
H     0.8562545   -5.9733273   -1.1233133 
H    -2.3565718   -4.5999916    3.5531636 
H     1.2832311   -6.2627694    0.6019585 
H    -0.4361210   -6.3788823    0.0706779 
H    -7.6768113    2.3729227   -2.0555078 
H    -7.0532203    1.7935664   -3.6282165 
H    -6.6425768    3.4260066   -3.0590414 
H    -2.4512165   -0.9787474    6.4716823 
H    -1.5233272    0.5440031    6.6270051 
H    -3.2934294    0.5849171    6.4221790 
H     7.7826612    1.8668473    1.1852574 
H     7.5378674    2.8978658   -0.2423056 
H     1.6109950   -4.3830434   -5.7254100 
H     0.3587648   -5.1245776   -4.7036626 
H     2.0719638   -5.5836369   -4.4824838 
H     8.2172684    1.2544619   -0.4352466 
H    -4.1378041   -3.6057771   -4.7051354 
H    -3.2483868   -2.0897575   -4.3068480 
H    -4.5756680   -2.6691474   -3.2305224 
H     2.7771045   -0.6156823    6.5793242 
H     2.1931271   -2.2221268    6.0166569 
H     1.0361359   -0.8435208    6.1766251 
