123
Energy =
C    -1.0339423    3.4213465   -0.8624023 
C     0.3253061    3.5803286   -1.2621949 
C     0.8648799    2.8590678   -2.3509629 
H     1.0105562    4.1436439   -0.6154427 
Pd    0.0041023    1.4423941   -0.7795408 
P     1.4802502   -0.3789422   -0.7718846 
P    -1.6665593    0.2928310    0.3967772 
H    -1.7679949    3.1915420   -1.6470583 
H     0.1561283    2.4097793   -3.0654428 
C    -2.7461016    5.1211867    2.7055753 
C    -3.5541031    4.7984551    1.6063656 
C    -2.9855078    4.2505356    0.4499847 
C    -1.5956625    4.0143738    0.3671536 
C    -0.7926641    4.3476405    1.4838097 
C    -1.3608245    4.8943126    2.6376122 
H    -3.1899371    5.5462616    3.6116884 
H    -4.6349784    4.9688736    1.6480234 
H    -3.6240853    3.9938702   -0.4020954 
H     0.2865430    4.1591297    1.4562661 
H    -0.7229106    5.1391011    3.4933812 
C     4.8844859    3.1729354   -3.8377255 
C     4.3726258    4.1772379   -3.0018649 
C     3.0690218    4.0806325   -2.5022132 
C     2.2486201    2.9792859   -2.8377960 
C     2.7745218    1.9814592   -3.6904064 
C     4.0810508    2.0728033   -4.1781641 
H     5.9035776    3.2507475   -4.2304685 
H     4.9889523    5.0454252   -2.7460163 
H     2.6749264    4.8851972   -1.8728413 
H     2.1534904    1.1160050   -3.9485205 
H     4.4767132    1.2830608   -4.8244163 
O     0.2142553   -4.5029224    0.4062721 
O    -0.7500881   -3.2101631    2.9369084 
O    -3.6595619   -3.7851929   -2.2788070 
O     3.2502397   -0.9105641    4.1432423 
C     0.3545694   -1.9456181    1.2940776 
C    -0.7415120   -2.3579430    0.3694952 
C     1.4452430   -1.1360832    0.9148083 
C    -1.7586000   -1.4900181   -0.0766725 
C    -0.7869954   -3.7140757   -0.0636770 
C     0.3150015   -2.4220998    2.6370033 
C    -2.7695868   -1.9334917   -0.9552914 
C     2.4462510   -0.7729539    1.8405093 
C     3.2328592    0.1038291   -1.0220868 
C    -3.3297834    0.9595152   -0.0090273 
C    -1.4984597    0.3050084    2.2137880 
C     1.1292280   -1.7338062   -1.9466750 
C     2.3569701   -1.2256371    3.1669960 
C    -2.7598733   -3.2655133   -1.4003364 
C    -1.7763467   -4.1627468   -0.9434800 
C     1.2964384   -2.0618123    3.5651066 
C     0.1830052   -1.5241626   -2.9698295 
C     4.1623394   -0.6758218   -1.7340957 
C    -4.2936294    1.2772814    0.9634554 
C    -0.4982697    1.1000735    2.8065850 
C     3.6619959    1.3293431   -0.4667709 
C     1.7552164   -2.9922224   -1.8389165 
C    -3.6353766    1.2010689   -1.3677275 
C    -2.3174219   -0.4978716    3.0321768 
C     5.4903509   -0.2481328   -1.8641368 
C    -0.3162600    1.0861783    4.1913212 
C    -0.1423233   -2.5563238   -3.8546929 
C    -5.5381370    1.7998014    0.5820417 
C     1.4362248   -4.0118360   -2.7431790 
C    -4.8809693    1.7156708   -1.7394644 
C     4.9902132    1.7419437   -0.5922682 
C    -2.1374597   -0.4892453    4.4205490 
C     0.4716320   -3.8212968   -3.7527428 
C    -1.1294703    0.2893972    5.0235059 
C    -5.8604060    2.0234422   -0.7692671 
C     5.9313314    0.9611089   -1.2955646 
C     0.1904062   -5.8960542    0.1070229 
C    -0.8286252   -3.7954085    4.2336267 
C    -7.2096817    2.5670841   -1.1784706 
C     0.0596640   -4.9482529   -4.6705160 
C     7.3539373    1.4401340   -1.4611506 
C    -0.8930502    0.2512322    6.5154480 
C    -4.6855141   -2.9361544   -2.7886446 
C     4.3605288   -0.0793813    3.8109125 
H    -3.5544381   -1.2484490   -1.2752529 
H     3.2845881   -0.1540348    1.5193326 
H    -1.8102428   -5.1898088   -1.3103053 
H     1.2692061   -2.3944492    4.6038666 
H    -0.3201755   -0.5527666   -3.0467602 
H     0.1531203    1.7062156    2.1686123 
H     3.8542746   -1.6140848   -2.2036904 
H    -4.0711030    1.1412299    2.0254778 
H     2.9395729    1.9679558    0.0567867 
H    -2.8850985    0.9879562   -2.1397102 
H     2.4591554   -3.1885119   -1.0239199 
H    -3.0731575   -1.1510960    2.5839285 
H    -0.8998088   -2.3853886   -4.6279496 
H     0.4817623    1.6914507    4.6357509 
H    -6.2695530    2.0506415    1.3584718 
H     6.1975242   -0.8677182   -2.4270950 
H     1.9319310   -4.9847608   -2.6499018 
H    -2.7825428   -1.1144521    5.0483427 
H    -5.0954633    1.8937812   -2.7995181 
H     5.2986249    2.7000563   -0.1598139 
H     0.0470101   -4.4413282    4.4330467 
H    -0.9023303   -3.0201566    5.0195673 
H    -0.7356310   -6.3685616    0.4847981 
H    -1.7446051   -4.4038591    4.2330776 
H     0.2770825   -6.0753701   -0.9813591 
H     1.0620477   -6.3280600    0.6196188 
H    -7.1127011    3.3242364   -1.9756295 
H    -7.7382365    3.0239209   -0.3260830 
H    -7.8505638    1.7570371   -1.5747970 
H    -0.8758436    1.2691003    6.9436546 
H    -1.6710521   -0.3292522    7.0375035 
H     0.0870185   -0.2104770    6.7387862 
H     7.7949590    1.7277436   -0.4904146 
H     7.3845244    2.3359696   -2.1090416 
H     0.7506167   -5.8043026   -4.6027033 
H     0.0186458   -4.6167764   -5.7227127 
H    -0.9530364   -5.3042459   -4.4016657 
H     7.9940099    0.6681410   -1.9178638 
H    -5.2792788   -3.5585073   -3.4734316 
H    -4.2589868   -2.0785820   -3.3445999 
H    -5.3363935   -2.5562974   -1.9781890 
H     4.9379405    0.0374752    4.7392325 
H     4.0274976    0.9152145    3.4556259 
H     4.9981498   -0.5466567    3.0363859 
