123
Energy =
C    -0.8349181    3.2609931   -1.9166402 
C     0.2699422    3.6775668   -1.1404212 
C     1.5585219    3.0901956   -1.3036740 
H     0.0896154    4.3463108   -0.2887870 
Pd    0.0757685    1.4998466   -0.7793014 
P     1.6292897   -0.2002217   -0.3398361 
P    -1.7686127    0.1981221   -0.1466316 
H    -0.6243880    2.6987819   -2.8408523 
H     1.8288770    2.7370750   -2.3083216 
C    -4.8056848    4.8927474   -1.7335137 
C    -3.7334635    5.6108665   -1.1823537 
C    -2.4377736    5.0841063   -1.2242989 
C    -2.1889405    3.8304263   -1.8286650 
C    -3.2777117    3.1243169   -2.3902490 
C    -4.5730492    3.6459252   -2.3359247 
H    -5.8192468    5.3054033   -1.6997531 
H    -3.9062514    6.5906578   -0.7249969 
H    -1.6079653    5.6679765   -0.8129385 
H    -3.1009805    2.1456336   -2.8508966 
H    -5.4061928    3.0778005   -2.7613195 
C     4.9359553    3.8335418    1.2640761 
C     3.6335729    4.0452286    1.7477517 
C     2.5294401    3.8129772    0.9230547 
C     2.6995981    3.3635808   -0.4081534 
C     4.0148224    3.1598402   -0.8809484 
C     5.1204986    3.3922354   -0.0537880 
H     5.7995234    4.0123786    1.9129579 
H     3.4800275    4.3867543    2.7768406 
H     1.5209833    3.9642530    1.3241813 
H     4.1661158    2.8095050   -1.9076860 
H     6.1305277    3.2235252   -0.4417503 
O     0.7589368   -3.4836014    2.4650245 
O    -1.4628774   -4.2139816    0.5759304 
O    -1.5815293   -0.0379358    4.9834626 
O     1.0631925   -4.4064611   -3.4629025 
C     0.0057417   -2.4472700    0.0874072 
C    -0.4573653   -1.8132205    1.3558880 
C     0.9820041   -1.8787998   -0.7553511 
C    -1.3055579   -0.6799395    1.4137908 
C    -0.0378857   -2.3885550    2.5831400 
C    -0.5369123   -3.7111229   -0.2817183 
C    -1.6786104   -0.1186768    2.6444998 
C     1.3813083   -2.5130074   -1.9507566 
C     2.2111065   -0.3144599    1.3875754 
C    -2.3187540   -1.0922695   -1.3176886 
C    -3.2513118    1.1861796    0.2851207 
C     3.1150334   -0.0102623   -1.4043770 
C     0.7893645   -3.7341993   -2.3118698 
C    -1.2052740   -0.6798467    3.8447205 
C    -0.3967016   -1.8299194    3.8217445 
C    -0.1588296   -4.3442938   -1.4693030 
C     2.9165643    0.2705923   -2.7734122 
C     1.8322494    0.6804000    2.3080220 
C    -1.8173347   -1.0799715   -2.6347370 
C    -3.0511835    2.4218961    0.9390162 
C     3.0018310   -1.3961744    1.8267534 
C     4.4333738   -0.0980283   -0.9197779 
C    -3.2102349   -2.1141413   -0.9329424 
C    -4.5660521    0.7910775   -0.0226834 
C     2.2385876    0.5973622    3.6434173 
C    -4.1381560    3.2182760    1.3038129 
C     4.0072476    0.4311947   -3.6362414 
C    -2.1837361   -2.0795390   -3.5405288 
C     5.5188027    0.0704551   -1.7888358 
C    -3.5854980   -3.0985658   -1.8546953 
C     3.4164951   -1.4597767    3.1613667 
C    -5.6496726    1.6025687    0.3383032 
C     5.3313589    0.3346857   -3.1601808 
C    -5.4601507    2.8246250    1.0091728 
C    -3.0665841   -3.1124314   -3.1647595 
C     3.0402614   -0.4702252    4.0935852 
C     1.1637546   -4.1786616    3.6395242 
C    -1.9898064   -5.5154714    0.3328469 
C    -3.3968763   -4.2248862   -4.1320321 
C     6.5151678    0.5345433   -4.0783199 
C     3.4941168   -0.5462214    5.5333696 
C    -6.6247775    3.7065584    1.3918332 
C    -1.1263844   -0.5368635    6.2384586 
C     2.0078135   -3.8469982   -4.3728402 
H    -2.3336088    0.7526100    2.7103100 
H     2.1467303   -2.0600462   -2.5808027 
H    -0.0312773   -2.2715216    4.7483446 
H    -0.5878690   -5.2959772   -1.7866377 
H     1.8965961    0.3660328   -3.1668357 
H    -2.0303942    2.7653006    1.1479388 
H     1.1921371    1.5041842    1.9762765 
H    -1.1107629   -0.2964882   -2.9340375 
H     3.2655374   -2.2018438    1.1338436 
H    -3.5788651   -2.1636838    0.0965721 
H     4.6189379   -0.2776740    0.1428693 
H    -4.7530007   -0.1422226   -0.5607297 
H     3.8288054    0.6434540   -4.6965217 
H    -3.9581844    4.1764068    1.8030573 
H    -1.7625326   -2.0716762   -4.5521671 
H     1.9147573    1.3681994    4.3516224 
H     6.5363864    0.0048360   -1.3870789 
H    -6.6654953    1.2805441    0.0826887 
H    -4.2808947   -3.8864088   -1.5435248 
H     4.0331164   -2.3039951    3.4909730 
H    -2.5438764   -5.5532504   -0.6240508 
H    -1.1857593   -6.2751337    0.3217712 
H     0.2890335   -4.5476812    4.2078154 
H    -2.6806791   -5.7196424    1.1636673 
H     1.7628845   -5.0324808    3.2912029 
H     1.7862282   -3.5371404    4.2920683 
H    -3.7024836   -3.8260018   -5.1152256 
H    -4.2063013   -4.8697758   -3.7530127 
H    -2.5047386   -4.8574172   -4.3004180 
H    -7.5749256    3.3268257    0.9827630 
H    -6.7269170    3.7685842    2.4909240 
H    -6.4740215    4.7363112    1.0209627 
H     4.4386485    0.0124720    5.6743302 
H     3.6790886   -1.5876308    5.8467066 
H     7.0409001    1.4772805   -3.8383350 
H     6.2073890    0.5796381   -5.1355369 
H     7.2486589   -0.2829755   -3.9646685 
H     2.7485125   -0.1025116    6.2154702 
H    -1.5409092    0.1390270    7.0002003 
H    -0.0204826   -0.5253419    6.2987805 
H    -1.4928934   -1.5648657    6.4232001 
H     2.0589511   -4.5446035   -5.2211354 
H     3.0092896   -3.7548079   -3.9110263 
H     1.6801273   -2.8518953   -4.7316080 
