123
Energy =
C    -0.9165065    3.6705524   -0.9359155 
C     0.4866576    3.7358402   -0.6908217 
C     1.4080656    3.1944893   -1.6176645 
H     0.8435900    4.1049616    0.2800598 
Pd   -0.0304959    1.6091622   -0.8029513 
P     1.5347835   -0.1631135   -0.6793170 
P    -1.7705604    0.2578306   -0.0004036 
H    -1.2361510    3.6660702   -1.9892695 
H     1.0527304    3.0676329   -2.6521909 
C    -3.8413108    5.1693144    1.8450497 
C    -2.7618070    4.3996012    2.3101090 
C    -1.8023048    3.9208727    1.4132032 
C    -1.9087091    4.1872386    0.0296216 
C    -2.9971710    4.9622672   -0.4237627 
C    -3.9490474    5.4567788    0.4768267 
H    -4.5952086    5.5398153    2.5471864 
H    -2.6768055    4.1650560    3.3765787 
H    -0.9753938    3.2975242    1.7739138 
H    -3.0958082    5.1769295   -1.4938818 
H    -4.7851407    6.0595533    0.1071478 
C     5.6957611    3.3038598   -1.3047150 
C     4.9171870    3.3086391   -0.1353651 
C     3.5222690    3.2703008   -0.2171103 
C     2.8734019    3.2145390   -1.4718394 
C     3.6699240    3.2033961   -2.6386940 
C     5.0658337    3.2546548   -2.5566338 
H     6.7882304    3.3352904   -1.2380650 
H     5.4004428    3.3407749    0.8466226 
H     2.9345599    3.2699563    0.7044785 
H     3.1843677    3.1547032   -3.6186904 
H     5.6633171    3.2470986   -3.4739426 
O     1.1139501   -3.2163668    2.5343521 
O    -1.4075370   -4.0417493    0.9954908 
O    -0.4073355    0.5458476    5.0356743 
O     0.8512313   -4.5543050   -3.2888098 
C     0.0307874   -2.3785409    0.1950824 
C    -0.2390086   -1.6266300    1.4538349 
C     0.8940456   -1.8906441   -0.8164755 
C    -1.0225579   -0.4598733    1.5193903 
C     0.3905632   -2.0741291    2.6545950 
C    -0.5586105   -3.6522097    0.0088116 
C    -1.0983932    0.3107449    2.7039146 
C     1.1628770   -2.6492066   -1.9644018 
C     2.4034082   -0.1390819    0.9331834 
C    -2.3304168   -1.1064479   -1.0973838 
C    -3.3830402    0.9688990    0.5132234 
C     2.7992774   -0.0495484   -2.0012795 
C     0.5559901   -3.9084245   -2.1289384 
C    -0.4310888   -0.1320876    3.8551352 
C     0.2873539   -1.3441885    3.8417670 
C    -0.3065756   -4.4184663   -1.1429916 
C     2.3427074    0.1354822   -3.3246984 
C     2.1584559    0.9042107    1.8473480 
C    -1.8415509   -1.2124775   -2.4124052 
C    -4.0116835    1.8498742   -0.3887475 
C     3.2782558   -1.1800804    1.3022815 
C     4.1822001   -0.1336463   -1.7670262 
C    -3.3137646   -2.0135894   -0.6549678 
C    -4.0724739    0.5906424    1.6826501 
C     2.7831261    0.9147189    3.0969863 
C    -5.2794258    2.3652954   -0.1116469 
C     3.2483703    0.1912134   -4.3880134 
C    -2.3070330   -2.2232546   -3.2605103 
C     5.0824074   -0.0616956   -2.8386616 
C    -3.7738760   -3.0191353   -1.5111509 
C     3.9111380   -1.1526981    2.5511843 
C    -5.3393401    1.1230662    1.9567375 
C     4.6378815    0.0896847   -4.1650732 
C    -5.9605788    2.0278167    1.0756204 
C    -3.2787777   -3.1459511   -2.8254086 
C     3.6723381   -0.1129989    3.4721742 
C     1.7343006   -3.7628141    3.6953845 
C    -2.0350347   -5.3175435    0.9094060 
C    -3.7878255   -4.2246242   -3.7537413 
C     5.6129201    0.1470862   -5.3180262 
C     4.3174847   -0.1064112    4.8386658 
C    -7.3046824    2.6414175    1.3894214 
C    -1.1003872    1.7882923    5.1219144 
C     0.2963140   -5.8465449   -3.5207936 
H    -1.6711656    1.2393444    2.7099806 
H     1.8267427   -2.2938869   -2.7547302 
H     0.7855174   -1.6520178    4.7623235 
H    -0.7936454   -5.3838792   -1.2767125 
H     1.2681135    0.2374866   -3.5208430 
H    -3.4985983    2.1346084   -1.3137095 
H     1.4386738    1.6875354    1.5830502 
H    -1.0777592   -0.5091321   -2.7635437 
H     3.4435300   -2.0250802    0.6258369 
H    -3.7121760   -1.9415756    0.3617864 
H     4.5659348   -0.2314875   -0.7477739 
H    -3.6271827   -0.1218677    2.3835522 
H     2.8727575    0.3292109   -5.4083669 
H    -5.7431784    3.0585877   -0.8217523 
H    -1.8980065   -2.3045030   -4.2737869 
H     2.5561947    1.7183254    3.8065329 
H     6.1574955   -0.1106509   -2.6334032 
H    -5.8567003    0.8243501    2.8756455 
H    -4.5374723   -3.7195520   -1.1534307 
H     4.5933653   -1.9661203    2.8233728 
H    -2.6819517   -5.3857508    0.0140046 
H    -1.2869862   -6.1327127    0.8897557 
H     2.4810580   -3.0636246    4.1164898 
H    -2.6531780   -5.4096260    1.8141146 
H     0.9835792   -4.0118989    4.4687138 
H     2.2392378   -4.6807011    3.3613456 
H    -4.3203309   -5.0177441   -3.2032771 
H    -2.9608827   -4.6872739   -4.3209328 
H    -4.4912316   -3.8031597   -4.4960140 
H    -7.7706281    2.1747067    2.2723702 
H    -7.1953365    3.7231677    1.5940956 
H    -7.9990355    2.5415721    0.5365071 
H     4.9814420   -0.9745665    4.9805835 
H     3.5476912   -0.1266628    5.6319703 
H     6.6337697    0.3802899   -4.9734343 
H     5.3128516    0.9066285   -6.0606271 
H     5.6516912   -0.8253080   -5.8441903 
H     4.9148842    0.8104033    4.9918021 
H    -0.9600256    2.1420250    6.1533912 
H    -2.1815548    1.6658798    4.9184179 
H    -0.6795199    2.5326713    4.4177605 
H     0.6815888   -6.1689797   -4.4987716 
H    -0.8097745   -5.8111890   -3.5560864 
H     0.6151151   -6.5683598   -2.7446588 
