123
Energy =
C    -1.1058046    2.9199694   -1.9900225 
C     0.2595927    3.3242068   -1.9958289 
C     1.2735231    2.4840738   -2.5097137 
H     0.5467469    4.2499270   -1.4834593 
Pd    0.1499233    1.4726405   -0.7875301 
P     1.7713115    0.0016936    0.0157686 
P    -1.6192077    0.1490480    0.0722661 
H    -1.4177379    2.2024237   -2.7611532 
H     0.9511550    1.6620447   -3.1678645 
C    -4.3702246    5.2926048   -0.4944208 
C    -3.0505333    5.6549175   -0.1804207 
C    -1.9790900    4.8803782   -0.6358460 
C    -2.2011399    3.7325793   -1.4329140 
C    -3.5368982    3.3722403   -1.7247822 
C    -4.6086969    4.1412007   -1.2600911 
H    -5.2074352    5.9042246   -0.1422852 
H    -2.8559046    6.5477457    0.4231254 
H    -0.9593207    5.1784484   -0.3710697 
H    -3.7290118    2.4753707   -2.3241725 
H    -5.6344766    3.8419720   -1.4977878 
C     5.4354031    3.4138245   -3.0228331 
C     4.6130506    4.3037278   -2.3114555 
C     3.2627878    4.0063576   -2.1064443 
C     2.7001897    2.8146647   -2.6217771 
C     3.5456318    1.9238058   -3.3242732 
C     4.8981855    2.2179458   -3.5219128 
H     6.4917428    3.6526016   -3.1840657 
H     5.0284728    5.2370727   -1.9175087 
H     2.6387620    4.7153578   -1.5528824 
H     3.1272904    0.9935594   -3.7241027 
H     5.5344981    1.5128745   -4.0657499 
O     0.9547815   -3.8044675    2.1596618 
O    -1.1214778   -4.2905853   -0.0260309 
O    -1.7513288   -1.2423254    5.1354398 
O     1.3123639   -3.0541982   -4.0542320 
C     0.2417624   -2.3813524   -0.0565707 
C    -0.3258909   -2.0485811    1.2815416 
C     1.1838969   -1.5719895   -0.7307303 
C    -1.2408960   -0.9923732    1.4765416 
C     0.0445904   -2.8288810    2.4111545 
C    -0.2489041   -3.5285423   -0.7355826 
C    -1.7683427   -0.7049699    2.7520629 
C     1.5214509   -1.8171343   -2.0748648 
C     1.9144069   -0.1794454    1.8373801 
C    -2.2504962   -0.9721351   -1.2385879 
C    -3.0428113    1.1254336    0.6847192 
C     3.5387745    0.2090135   -0.4201330 
C     0.9694062   -2.9227219   -2.7441037 
C    -1.3586565   -1.4745681    3.8532563 
C    -0.4630066   -2.5468865    3.6833637 
C     0.1133658   -3.8089851   -2.0635309 
C     4.1137192    1.4465300   -0.0577625 
C     1.2059024    0.6838992    2.6931335 
C    -3.1277512   -2.0314739   -0.9179964 
C    -2.7555418    2.2829023    1.4396556 
C     2.7995170   -1.1251765    2.3922821 
C     4.3686758   -0.8010421   -0.9403151 
C    -1.8408499   -0.8122720   -2.5748816 
C    -4.3867953    0.7614094    0.4854169 
C     1.3419809    0.5695683    4.0803065 
C    -3.7871968    3.0326861    2.0095199 
C     5.4823908    1.6646215   -0.2157225 
C    -3.5984538   -2.8820216   -1.9222878 
C     5.7405998   -0.5633406   -1.1112303 
C    -2.3042238   -1.6806058   -3.5713797 
C     2.9231076   -1.2339738    3.7814483 
C    -5.4149494    1.5268819    1.0514193 
C     6.3218068    0.6677174   -0.7572248 
C    -5.1377564    2.6688207    1.8262971 
C    -3.1937198   -2.7270150   -3.2658640 
C     2.1844317   -0.4047090    4.6505294 
C     1.3762436   -4.6443705    3.2316779 
C    -1.6000125   -5.5073703   -0.5901643 
C    -3.7021941   -3.6649462   -4.3366030 
C     7.7927783    0.9367857   -0.9697172 
C     2.2487202   -0.5740623    6.1503227 
C    -6.2466732    3.5150497    2.4049868 
C    -2.6344499   -0.1515116    5.3914284 
C     0.7669453   -4.1377087   -4.8044151 
H    -2.4662889    0.1231722    2.8777861 
H     2.1926018   -1.1586077   -2.6321413 
H    -0.1649161   -3.1092129    4.5695808 
H    -0.3067751   -4.6750718   -2.5738296 
H     3.4814126    2.2380729    0.3607759 
H    -1.7136885    2.5990518    1.5706420 
H     0.5286155    1.4319522    2.2651693 
H    -3.4131620   -2.2096434    0.1238096 
H     3.3781318   -1.7862893    1.7392338 
H    -1.1224218   -0.0264864   -2.8302079 
H     3.9565392   -1.7805464   -1.2000766 
H    -4.6395741   -0.1156253   -0.1172211 
H     5.9079621    2.6318682    0.0719064 
H    -3.5429471    3.9310717    2.5866793 
H    -4.2834241   -3.6953060   -1.6558153 
H     0.7662608    1.2347171    4.7341003 
H     6.3724752   -1.3599108   -1.5203793 
H    -6.4565049    1.2307981    0.8826128 
H    -1.9523756   -1.5513408   -4.6009598 
H     3.6054289   -1.9814650    4.2024442 
H    -0.7658681   -6.1982244   -0.8159739 
H    -2.2525719   -5.9553715    0.1730466 
H     1.8769712   -4.0581412    4.0251655 
H    -2.1866177   -5.3215550   -1.5100425 
H     0.5226534   -5.1984429    3.6656427 
H     2.0919061   -5.3546475    2.7930288 
H    -3.6256545   -4.7190644   -4.0149132 
H    -3.1419194   -3.5479606   -5.2788971 
H    -4.7688603   -3.4710836   -4.5542390 
H    -7.2175291    2.9946205    2.3711137 
H    -6.0356203    3.7937588    3.4520343 
H    -6.3470457    4.4563384    1.8324904 
H     2.4131960    0.3922580    6.6588417 
H     3.0531957   -1.2648795    6.4509389 
H     8.3452138    0.0158471   -1.2172828 
H     8.2512057    1.3875019   -0.0721398 
H     7.9368271    1.6524001   -1.8013270 
H     1.2893363   -0.9800628    6.5233391 
H    -2.8038348   -0.1500170    6.4777519 
H    -3.6003052   -0.2817151    4.8674261 
H    -2.1820937    0.8117028    5.0857276 
H     1.1614814   -4.0263834   -5.8246234 
H    -0.3390595   -4.0923125   -4.8297641 
H     1.0856190   -5.1148434   -4.3938611 
