123
Energy =
C    -0.9783500    3.6264927   -0.8842484 
C     0.4459281    3.6997842   -0.7878714 
C     1.2866978    3.1549563   -1.7839949 
H     0.8951069    4.0579584    0.1475950 
Pd   -0.1062551    1.5743216   -0.8922689 
P     1.4359168   -0.1985189   -0.6481300 
P    -1.9028060    0.2921059   -0.1354454 
H    -1.4254859    3.6610441   -1.8883856 
H     0.8529335    3.0158070   -2.7868143 
C    -3.5933800    4.7446486    2.3526943 
C    -4.0083836    4.8867485    1.0208374 
C    -3.1505796    4.5324141   -0.0275415 
C    -1.8574957    4.0297256    0.2320933 
C    -1.4510906    3.8992817    1.5812973 
C    -2.3079260    4.2504422    2.6291809 
H    -4.2688560    5.0111853    3.1720173 
H    -5.0093103    5.2688068    0.7954292 
H    -3.4852024    4.6418220   -1.0640643 
H    -0.4671247    3.4786138    1.8160478 
H    -1.9786829    4.1118807    3.6643397 
C     5.5880623    3.1522427   -1.7692836 
C     4.8719711    3.0503386   -2.9707034 
C     3.4727400    3.0371654   -2.9557627 
C     2.7584751    3.1409767   -1.7409031 
C     3.4944868    3.2393305   -0.5371761 
C     4.8921809    3.2418809   -0.5523202 
H     6.6829309    3.1578126   -1.7787208 
H     5.4046115    2.9775544   -3.9243240 
H     2.9197371    2.9516162   -3.8969838 
H     2.9736638    3.3017621    0.4221296 
H     5.4427955    3.3133065    0.3914540 
O     0.9035770   -2.8904990    2.8196601 
O    -1.5752416   -3.8939874    1.2947448 
O    -0.8715568    1.1950867    4.7850086 
O     0.6507886   -4.9377740   -2.7916425 
C    -0.1049210   -2.3114367    0.3833595 
C    -0.4332365   -1.4403158    1.5500874 
C     0.7974855   -1.9316894   -0.6326747 
C    -1.2522474   -0.2881836    1.4819209 
C     0.1559556   -1.7560060    2.8036683 
C    -0.6956120   -3.6030876    0.3021079 
C    -1.3845502    0.5732889    2.5855498 
C     1.1028011   -2.7966981   -1.7037119 
C     2.2727638   -0.0293135    0.9754405 
C    -2.3834339   -1.1642679   -1.1448461 
C    -3.5481343    1.0672053    0.1128269 
C     2.7232602   -0.2009178   -1.9532848 
C     0.4787405   -4.0532043   -1.7714613 
C    -0.7364705    0.2692508    3.7941756 
C     0.0058170   -0.9188846    3.9228594 
C    -0.4128085   -4.4638823   -0.7631249 
C     2.2852930   -0.1294344   -3.2926168 
C     2.0104633    1.0928734    1.7821492 
C    -1.8156077   -1.3728392   -2.4148112 
C    -4.1133241    1.6590571   -1.0372601 
C     3.1321884   -1.0357427    1.4640722 
C     4.1040805   -0.2742878   -1.6951624 
C    -3.3771933   -2.0490040   -0.6814388 
C    -4.3191986    0.9988127    1.2868959 
C     2.6020769    1.2176119    3.0440654 
C    -5.4115078    2.1725635   -1.0094065 
C     3.2046704   -0.1808984   -4.3466713 
C    -2.1954922   -2.4760548   -3.1851351 
C     5.0167821   -0.3053351   -2.7562497 
C    -3.7479114   -3.1511093   -1.4595740 
C     3.7300845   -0.8961181    2.7208367 
C    -5.6132189    1.5384796    1.3101435 
C     4.5887049   -0.2716866   -4.0981930 
C    -6.1830024    2.1357014    0.1708380 
C    -3.1509834   -3.3975592   -2.7129390 
C     3.4722373    0.2267094    3.5366341 
C     1.4811591   -3.3263246    4.0457443 
C    -2.2038920   -5.1733903    1.3034530 
C    -3.4830194   -4.6311710   -3.5192696 
C     5.5916170   -0.2806844   -5.2283422 
C     4.0727327    0.3303349    4.9198576 
C    -7.5641164    2.7468328    0.2117587 
C    -0.2247211    0.9645982    6.0349342 
C     1.5160069   -4.5788736   -3.8674896 
H    -1.9530832    1.5024786    2.5246382 
H     1.8006458   -2.4786882   -2.4784581 
H     0.5009501   -1.1663811    4.8614682 
H    -0.8821797   -5.4436897   -0.8633444 
H     1.2144479   -0.0342362   -3.5100894 
H    -3.5302247    1.7065504   -1.9652808 
H     1.3058490    1.8525476    1.4259227 
H    -1.0536710   -0.6775249   -2.7854056 
H     3.3119065   -1.9389988    0.8718170 
H    -3.8470670   -1.8864175    0.2939687 
H     4.4732612   -0.2910120   -0.6658319 
H    -3.9259609    0.5133843    2.1841933 
H     2.8428840   -0.1345913   -5.3802615 
H    -5.8317711    2.6219115   -1.9164047 
H    -1.7253057   -2.6387869   -4.1616827 
H     2.3671475    2.0907611    3.6633064 
H     6.0889384   -0.3493079   -2.5341093 
H    -6.1950673    1.4828147    2.2371467 
H    -4.5137041   -3.8396842   -1.0843313 
H     4.4018998   -1.6826676    3.0838439 
H    -2.8208450   -5.3214784    0.3970781 
H    -1.4567827   -5.9859414    1.3776625 
H     2.2101263   -2.5881991    4.4315615 
H    -2.8502032   -5.1842149    2.1929729 
H     0.7037170   -3.5149762    4.8101004 
H     2.0037788   -4.2654753    3.8136429 
H    -3.7419217   -4.3736675   -4.5615347 
H    -4.3252925   -5.1920796   -3.0825053 
H    -2.6045844   -5.3027238   -3.5573412 
H    -8.1187508    2.5528556   -0.7222420 
H    -8.1558862    2.3582714    1.0567207 
H    -7.4966735    3.8454055    0.3294909 
H     3.5308390   -0.3261836    5.6282457 
H     4.0174267    1.3594001    5.3111843 
H     5.1090407   -0.4715980   -6.2007155 
H     6.3694876   -1.0473520   -5.0685005 
H     6.1083326    0.6955043   -5.2950939 
H     5.1290333    0.0111728    4.9276209 
H    -0.4591890    1.8370835    6.6615534 
H     0.8729602    0.8846513    5.9114225 
H    -0.6069363    0.0490230    6.5252497 
H     1.4914345   -5.4251094   -4.5689578 
H     2.5536004   -4.4209776   -3.5167174 
H     1.1621983   -3.6631046   -4.3796643 
