123
Energy =
C    -1.1276305    2.8432449   -2.0184150 
C     0.2498292    3.2056984   -2.0763964 
C     1.2227655    2.3195834   -2.5898779 
H     0.5784749    4.1385276   -1.6031999 
Pd    0.1121500    1.4004289   -0.8030517 
P     1.7050760   -0.0758670    0.0440785 
P    -1.6799939    0.1199378    0.0736048 
H    -1.4881029    2.1230752   -2.7655423 
H     0.8565573    1.4812852   -3.2030911 
C    -4.2476607    5.3731104   -0.4728989 
C    -2.9079400    5.6580913   -0.1636693 
C    -1.8841153    4.8307861   -0.6353235 
C    -2.1745151    3.7068717   -1.4446737 
C    -3.5299203    3.4234267   -1.7300942 
C    -4.5543993    4.2454078   -1.2493593 
H    -5.0475157    6.0253001   -0.1069876 
H    -2.6605893    6.5307009    0.4500697 
H    -0.8477327    5.0655257   -0.3706652 
H    -3.7755589    2.5461190   -2.3386174 
H    -5.5967213    4.0057291   -1.4825960 
C     5.4019435    3.0770702   -3.2365881 
C     4.6197934    4.0415316   -2.5794327 
C     3.2642614    3.8041109   -2.3340906 
C     2.6552467    2.5981542   -2.7543226 
C     3.4599697    1.6354132   -3.4083413 
C     4.8179916    1.8684701   -3.6444315 
H     6.4626414    3.2686501   -3.4289005 
H     5.0708566    4.9866197   -2.2597585 
H     2.6720652    4.5712757   -1.8252020 
H     3.0035814    0.6959434   -3.7396682 
H     5.4226572    1.1073535   -4.1473485 
O     0.8271823   -3.8432082    2.2228394 
O    -1.2320192   -4.3379288    0.0292367 
O    -1.8646744   -1.2126370    5.1513179 
O     1.1937863   -3.3800815   -3.9623968 
C     0.1531661   -2.4400938   -0.0109995 
C    -0.4246616   -2.0815900    1.3164619 
C     1.1138292   -1.6583388   -0.6785863 
C    -1.3245026   -1.0092038    1.4937412 
C    -0.0725061   -2.8539534    2.4574177 
C    -0.3405673   -3.6001810   -0.6799794 
C    -1.8569013   -0.7012711    2.7622550 
C     1.4851837   -1.9300610   -2.0169174 
C     1.8343449   -0.2250801    1.8691363 
C    -2.3092224   -1.0145601   -1.2247768 
C    -3.0939047    1.1241319    0.6607850 
C     3.4759425    0.1048756   -0.3921049 
C     0.9366651   -3.0445245   -2.6684581 
C    -1.4662108   -1.4645988    3.8747804 
C    -0.5845946   -2.5510690    3.7229907 
C     0.0503043   -3.9031275   -1.9872840 
C     4.0517626    1.3645376   -0.1210752 
C     1.1312861    0.6629757    2.7037798 
C    -1.8731981   -0.8928989   -2.5592246 
C    -2.7981862    2.2725245    1.4263706 
C     2.6981819   -1.1760721    2.4480110 
C     4.3074836   -0.9445146   -0.8261859 
C    -3.2027024   -2.0539181   -0.8937746 
C    -4.4407171    0.7908138    0.4291066 
C     1.2516271    0.5686623    4.0939141 
C    -3.8257471    3.0418771    1.9773823 
C     5.4225028    1.5667397   -0.2853744 
C    -2.3202649   -1.7847863   -3.5381687 
C     5.6810258   -0.7240638   -1.0055881 
C    -3.6615803   -2.9286191   -1.8857533 
C     2.8062832   -1.2644964    3.8398617 
C    -5.4642076    1.5766738    0.9753851 
C     6.2629320    0.5296970   -0.7431138 
C    -5.1794699    2.7085421    1.7623191 
C    -3.2235360   -2.8193453   -3.2205743 
C     2.0723869   -0.4097794    4.6881154 
C     1.2256965   -4.6817733    3.3047723 
C    -1.7126740   -5.5586167   -0.5282741 
C    -3.6758904   -3.7959811   -4.2811748 
C     7.7367724    0.7777545   -0.9614550 
C     2.1174466   -0.5579420    6.1907729 
C    -6.2830876    3.5772029    2.3174307 
C    -2.7360280   -0.1081927    5.3888602 
C     2.0736544   -2.5535628   -4.7191022 
H    -2.5447854    0.1371746    2.8741631 
H     2.1833225   -1.2663796   -2.5299020 
H    -0.3004930   -3.1080174    4.6171632 
H    -0.3418839   -4.7651204   -2.5290412 
H     3.4177841    2.1874304    0.2289040 
H    -1.7531206    2.5657181    1.5820773 
H     0.4696724    1.4141898    2.2572133 
H    -1.1451347   -0.1175178   -2.8196550 
H     3.2707364   -1.8588162    1.8121643 
H    -3.5133247   -2.2006805    0.1456947 
H     3.8930863   -1.9402009   -1.0118081 
H    -4.6984543   -0.0786232   -0.1825233 
H     5.8490046    2.5520752   -0.0693338 
H    -3.5749712    3.9318068    2.5647235 
H    -1.9448647   -1.6911957   -4.5633059 
H     0.6800274    1.2531342    4.7311460 
H     6.3143494   -1.5512499   -1.3462073 
H    -6.5079240    1.3042135    0.7818986 
H    -4.3612321   -3.7265780   -1.6123169 
H     3.4714371   -2.0166850    4.2795139 
H    -2.2758934   -5.3783490   -1.4631698 
H    -0.8803783   -6.2593750   -0.7275981 
H     0.3593355   -5.2180743    3.7355591 
H    -2.3855783   -5.9886234    0.2275611 
H     1.9328468   -5.4072443    2.8774059 
H     1.7295963   -4.0977356    4.0979101 
H    -4.1407795   -3.2699270   -5.1340837 
H    -4.4070680   -4.5187996   -3.8843464 
H    -2.8141110   -4.3618572   -4.6809189 
H    -6.3794247    4.5014787    1.7168397 
H    -7.2569341    3.0614629    2.2988360 
H    -6.0698617    3.8857431    3.3554332 
H     2.2789466    0.4147985    6.6877319 
H     2.9152498   -1.2475915    6.5111780 
H     8.2837012   -0.1580602   -1.1605610 
H     8.1938692    1.2676292   -0.0838013 
H     7.8907051    1.4517209   -1.8252465 
H     1.1518276   -0.9554197    6.5569496 
H    -2.9129438   -0.0925033    6.4738572 
H    -3.6996930   -0.2325066    4.8594720 
H    -2.2696432    0.8458973    5.0757235 
H     2.1394670   -3.0133008   -5.7156413 
H     3.0827688   -2.5123272   -4.2656896 
H     1.6749064   -1.5242265   -4.8158794 
