123
Energy =
C    -0.7939332    3.7361463   -0.5472619 
C     0.6140009    3.7436435   -0.3007512 
C     1.5379568    3.2849351   -1.2662083 
H     0.9732794    3.9752269    0.7104734 
Pd    0.0216310    1.6666307   -0.7077261 
P     1.4863169   -0.1768873   -0.5185587 
P    -1.8761415    0.3740466   -0.2901618 
H    -1.1326735    3.9020277   -1.5803656 
H     1.2048053    3.2776674   -2.3160367 
C    -3.7041150    4.5797214    2.5161132 
C    -2.4673938    4.0108089    2.8624068 
C    -1.5148057    3.7472842    1.8731012 
C    -1.7743819    4.0430164    0.5138376 
C    -3.0202022    4.6189391    0.1843773 
C    -3.9740015    4.8848388    1.1743196 
H    -4.4546719    4.7776303    3.2881986 
H    -2.2518269    3.7453189    3.9026830 
H    -0.5719576    3.2663981    2.1560850 
H    -3.2414584    4.8561615   -0.8611254 
H    -4.9360611    5.3260371    0.8943051 
C     5.8141043    3.1166760   -0.8347951 
C     5.2200529    3.1757847   -2.1036668 
C     3.8266401    3.2145088   -2.2259886 
C     2.9968731    3.2107065   -1.0821775 
C     3.6103019    3.1477754    0.1905435 
C     5.0019855    3.0981815    0.3112503 
H     6.9041331    3.0813134   -0.7374535 
H     5.8440433    3.1888985   -3.0031123 
H     3.3690836    3.2542586   -3.2199989 
H     2.9973846    3.1246892    1.0956270 
H     5.4565954    3.0441476    1.3058979 
O     0.5385999   -3.2045289    2.5562064 
O    -1.7964540   -3.9514703    0.6912118 
O    -1.3592402    0.6889704    4.7810534 
O     0.8077245   -4.6233979   -3.2469093 
C    -0.2033959   -2.3321892    0.1111276 
C    -0.6288161   -1.5818763    1.3292500 
C     0.8060437   -1.8763806   -0.7627331 
C    -1.4118219   -0.4030681    1.3086222 
C    -0.1806928   -2.0524025    2.5926307 
C    -0.8136226   -3.5857684   -0.1713279 
C    -1.6421104    0.3346778    2.4834109 
C     1.1980031   -2.6299978   -1.8882350 
C     2.1661083   -0.2239080    1.1846208 
C    -2.2842322   -0.9446891   -1.5007696 
C    -3.5186540    1.1763807   -0.1233161 
C     2.8963092   -0.0815887   -1.6867284 
C     0.5542233   -3.8491541   -2.1564677 
C    -1.1338642   -0.1233127    3.7102677 
C    -0.4320746   -1.3405781    3.7785646 
C    -0.4445666   -4.3354257   -1.2926620 
C     4.2419097   -0.2373797   -1.3090633 
C     1.8569056    0.8066804    2.0917409 
C    -1.5947608   -1.0301100   -2.7238649 
C    -3.9435237    1.9164347   -1.2477550 
C     2.9461859   -1.3117762    1.6278468 
C     2.5949151    0.1551107   -3.0450003 
C    -3.3391256   -1.8419041   -1.2412539 
C    -4.4112272    1.0035361    0.9494400 
C     2.3307874    0.7639457    3.4070474 
C    -5.2236212    2.4721776   -1.2925590 
C     5.2539340   -0.1862860   -2.2756540 
C    -1.9180019   -2.0281791   -3.6480901 
C     3.6116196    0.1847445   -4.0058330 
C    -3.6522703   -2.8384430   -2.1720236 
C     3.4283548   -1.3389717    2.9410562 
C    -5.6861031    1.5857511    0.9036114 
C     4.9617856    0.0131739   -3.6390483 
C    -6.1163996    2.3302956   -0.2097609 
C    -2.9361594   -2.9643738   -3.3800946 
C     3.1306855   -0.3057176    3.8545380 
C     0.9762007   -3.7911811    3.7776519 
C    -2.4529379   -5.2016097    0.4955582 
C    -3.2093170   -4.0909725   -4.3487205 
C     6.0687059    0.0979462   -4.6640426 
C     3.6597305   -0.3444467    5.2699258 
C    -7.4781255    2.9841070   -0.2396458 
C    -0.8619829    0.2974700    6.0588671 
C     1.7867490   -4.1811067   -4.1852699 
H    -2.1823674    1.2824270    2.4707027 
H     1.9783477   -2.2543885   -2.5504180 
H    -0.0442683   -1.7064554    4.7288118 
H    -0.9244480   -5.2817554   -1.5469433 
H     4.5070205   -0.3839603   -0.2582711 
H    -3.2640665    2.0476761   -2.0989837 
H     1.2037892    1.6247024    1.7672696 
H    -0.7841171   -0.3236871   -2.9361481 
H     3.1509753   -2.1505665    0.9544327 
H    -3.9019926   -1.7730969   -0.3047265 
H     1.5537077    0.3150483   -3.3507666 
H    -4.1278462    0.4047057    1.8192465 
H     6.2971412   -0.2981401   -1.9594361 
H    -5.5334669    3.0380993   -2.1785382 
H    -1.3542035   -2.0975043   -4.5853460 
H     2.0556925    1.5646926    4.1029507 
H     3.3547005    0.3582969   -5.0571226 
H    -6.3639876    1.4470626    1.7534546 
H    -4.4665875   -3.5391472   -1.9543972 
H     4.0359329   -2.1899474    3.2700583 
H    -2.9766502   -5.2296730   -0.4786179 
H    -1.7369792   -6.0429904    0.5535599 
H     1.5027563   -4.7140649    3.4947004 
H    -3.1874665   -5.2855241    1.3095237 
H     1.6736621   -3.1224704    4.3172371 
H     0.1193110   -4.0401356    4.4318234 
H    -4.1087998   -4.6630450   -4.0689601 
H    -2.3497040   -4.7874282   -4.3663190 
H    -3.3445098   -3.7140292   -5.3779080 
H    -8.1561995    2.5459613    0.5108533 
H    -7.3923483    4.0658060   -0.0212055 
H    -7.9485290    2.8894047   -1.2334044 
H     3.7628546   -1.3802141    5.6359824 
H     3.0025052    0.2078751    5.9630343 
H     5.6963942   -0.0966247   -5.6832996 
H     6.8780325   -0.6187605   -4.4440006 
H     6.5193899    1.1089564   -4.6619539 
H     4.6609750    0.1230010    5.3250366 
H    -1.1497906    1.0996014    6.7535736 
H     0.2408706    0.1978838    6.0480492 
H    -1.3131642   -0.6559522    6.3936280 
H     1.8140764   -4.9456198   -4.9749431 
H     2.7863596   -4.0979818   -3.7179229 
H     1.5090545   -3.2037776   -4.6255487 
