123
Energy =
C    -0.9533794    3.5329509   -1.0371058 
C     0.4519834    3.6461685   -1.2907867 
C     1.0534854    2.8707758   -2.3082037 
H     1.0890162    4.1993669   -0.5893578 
Pd    0.0054625    1.5580317   -0.7671534 
P     1.5930601   -0.1121114   -0.4083676 
P    -1.8019886    0.3330858    0.0640149 
H    -1.6071647    3.3374189   -1.8981797 
H     0.3786346    2.4560990   -3.0741904 
C    -2.9955100    5.1091873    2.4114010 
C    -3.7008472    4.7985205    1.2400609 
C    -3.0238067    4.3047251    0.1183294 
C    -1.6251573    4.1067740    0.1445701 
C    -0.9261529    4.4253899    1.3341112 
C    -1.6030583    4.9225756    2.4513803 
H    -3.5244811    5.4938121    3.2894579 
H    -4.7862622    4.9372866    1.1974642 
H    -3.5828187    4.0569126   -0.7904259 
H     0.1560734    4.2617500    1.3926857 
H    -1.0445986    5.1602607    3.3630698 
C     5.1822476    2.6718728   -3.4764569 
C     4.2180491    1.8661953   -4.1010281 
C     2.8798445    1.9435644   -3.7032325 
C     2.4761032    2.8218821   -2.6693812 
C     3.4608215    3.6198215   -2.0437565 
C     4.7971294    3.5464834   -2.4477369 
H     6.2301683    2.6201768   -3.7895391 
H     4.5088498    1.1801172   -4.9031606 
H     2.1299715    1.3138029   -4.1943223 
H     3.1811255    4.3135676   -1.2456855 
H     5.5449516    4.1774067   -1.9567951 
O     0.4314040   -4.3114248   -0.0222315 
O    -1.2612441   -3.3803523    2.3596603 
O    -2.9257383   -3.3141398   -3.4050825 
O     2.2906802   -0.9503575    4.6357098 
C     0.1279963   -1.9069007    1.1767077 
C    -0.6834097   -2.2487332   -0.0280881 
C     1.2333058   -1.0223834    1.1575315 
C    -1.6635745   -1.3916281   -0.5875503 
C    -0.5052360   -3.5261005   -0.6173508 
C    -0.2041022   -2.5261690    2.4078133 
C    -2.4100171   -1.7837966   -1.7087040 
C     1.9522018   -0.7386379    2.3280757 
C     3.2273583    0.6702481   -0.1332612 
C    -3.3915009    0.9954667   -0.5723705 
C    -1.9826838    0.1885324    1.8739939 
C     1.7813756   -1.3922717   -1.6968165 
C     1.5668478   -1.3265591    3.5471352 
C    -2.1809321   -3.0405651   -2.2998965 
C    -1.2344781   -3.9238943   -1.7516921 
C     0.4959455   -2.2360896    3.5917702 
C     1.0573494   -1.2603834   -2.8984291 
C     3.2819781    1.7725311    0.7478104 
C    -4.4886377    1.2803386    0.2602983 
C    -2.9007431   -0.7146056    2.4512540 
C     4.4128288    0.2482449   -0.7629912 
C     2.5808681   -2.5351201   -1.4975384 
C    -3.4830109    1.3230334   -1.9444939 
C    -1.1824695    0.9884124    2.7090103 
C     4.5021456    2.3946403    1.0354343 
C    -3.0064366   -0.8048907    3.8418725 
C     1.1310291   -2.2520528   -3.8807036 
C    -5.6527636    1.8526164   -0.2728367 
C     2.6616205   -3.5137785   -2.4955919 
C    -4.6503119    1.8850624   -2.4684212 
C     5.6237776    0.8920124   -0.4845390 
C    -1.2855938    0.8763132    4.1007848 
C     1.9361340   -3.3954852   -3.6984465 
C    -2.1932975   -0.0228110    4.6909739 
C    -5.7619132    2.1598330   -1.6414524 
C     5.6971745    1.9632183    0.4281825 
C     0.6293620   -5.6384971   -0.4978601 
C    -1.6212499   -4.1056711    3.5304994 
C    -7.0253605    2.7544855   -2.2184731 
C     2.0178793   -4.4592989   -4.7691999 
C     7.0178710    2.6376428    0.7176597 
C    -2.2814967   -0.1769811    6.1920516 
C    -2.7441243   -4.5626976   -4.0674104 
C     1.9459989   -1.4847985    5.9110907 
H    -3.1795460   -1.1467384   -2.1484726 
H     2.8106764   -0.0647909    2.3359838 
H    -1.0553508   -4.8985131   -2.2049104 
H     0.1964036   -2.6966641    4.5327285 
H     0.4034291   -0.3921074   -3.0390871 
H    -3.5127710   -1.3593942    1.8121624 
H     2.3603407    2.1401411    1.2163647 
H    -4.4340202    1.0778183    1.3336542 
H     4.3919053   -0.5767550   -1.4809988 
H    -2.6263259    1.1442637   -2.6058873 
H     3.1173331   -2.6725793   -0.5530024 
H    -0.4679902    1.6879272    2.2626996 
H     0.5391588   -2.1470243   -4.7970530 
H    -3.7282111   -1.5038651    4.2805199 
H    -6.4911378    2.0737127    0.3972840 
H     4.5246554    3.2390297    1.7336049 
H     3.2888756   -4.3972749   -2.3301378 
H    -0.6417109    1.4921533    4.7383319 
H    -4.6987854    2.1252180   -3.5366326 
H     6.5338236    0.5553358   -0.9938931 
H    -2.4703338   -4.7414913    3.2405972 
H    -0.7858807   -4.7411906    3.8808365 
H     0.9849654   -5.6413045   -1.5458530 
H    -1.9355135   -3.4254016    4.3449464 
H     1.4031538   -6.0765117    0.1492031 
H    -0.2993278   -6.2350240   -0.4194956 
H    -7.6796604    3.1605351   -1.4299711 
H    -7.5992692    1.9847926   -2.7679833 
H    -6.7978423    3.5632318   -2.9343789 
H    -3.3264697   -0.1086715    6.5424380 
H    -1.9008663   -1.1679155    6.5054705 
H    -1.6907286    0.5922692    6.7155340 
H     7.7292862    1.9298630    1.1806717 
H     6.8970482    3.4946304    1.3998991 
H     2.6888487   -4.1396190   -5.5885034 
H     1.0277132   -4.6515958   -5.2187829 
H     2.4102746   -5.4093905   -4.3702649 
H     7.4862624    3.0022909   -0.2146719 
H    -3.4375268   -4.5556420   -4.9206709 
H    -2.9894173   -5.4135752   -3.4032896 
H    -1.7062136   -4.6745234   -4.4381714 
H     2.6495710   -1.0355149    6.6267093 
H     2.0562738   -2.5860846    5.9326023 
H     0.9103416   -1.2134782    6.1943017 
