123
Energy =
C    -0.8071145    3.7304739   -0.5757567 
C     0.5791553    3.7547153   -0.2285628 
C     1.5767746    3.3184012   -1.1290310 
H     0.8616752    3.9809677    0.8078908 
Pd    0.0492583    1.6732724   -0.6947569 
P     1.5268174   -0.1478390   -0.4145988 
P    -1.8512782    0.3465668   -0.4230503 
H    -1.0729165    3.9019861   -1.6290871 
H     1.3206905    3.3175773   -2.2002852 
C    -3.9447692    4.4985408    2.2756292 
C    -2.7281072    3.9435399    2.7055245 
C    -1.7018523    3.7056299    1.7859072 
C    -1.8660294    4.0129289    0.4144121 
C    -3.0928229    4.5752533    0.0008723 
C    -4.1202936    4.8159630    0.9210789 
H    -4.7527183    4.6763187    2.9927286 
H    -2.5853157    3.6685188    3.7558034 
H    -0.7747715    3.2357199    2.1322064 
H    -3.2407107    4.8213955   -1.0554526 
H    -5.0657255    5.2468116    0.5759411 
C     5.8121613    3.2047065   -0.3882891 
C     5.3114949    3.2740830   -1.6963535 
C     3.9303068    3.2948129   -1.9199601 
C     3.0194595    3.2625231   -0.8400917 
C     3.5391755    3.1896164    0.4730893 
C     4.9188903    3.1579130    0.6947729 
H     6.8925699    3.1830096   -0.2119599 
H     5.9993136    3.3088740   -2.5473705 
H     3.5458978    3.3425756   -2.9441950 
H     2.8621502    3.1440431    1.3303178 
H     5.3003484    3.0954061    1.7192750 
O     0.4174358   -3.2041944    2.5738297 
O    -1.7666278   -3.9828323    0.5466244 
O    -1.7406242    0.6219860    4.6762676 
O     1.1111635   -4.5868774   -3.2072684 
C    -0.1655351   -2.3333348    0.0852110 
C    -0.6899188   -1.5971681    1.2731310 
C     0.8937356   -1.8561459   -0.7150066 
C    -1.4932240   -0.4339745    1.2011849 
C    -0.3282961   -2.0686004    2.5635534 
C    -0.7334696   -3.5952639   -0.2446387 
C    -1.8298074    0.2873596    2.3601702 
C     1.3747039   -2.5961459   -1.8146882 
C     2.0846957   -0.1974059    1.3321104 
C    -2.1505609   -0.9719255   -1.6653421 
C    -3.5138638    1.1226070   -0.3718353 
C     3.0118631   -0.0197467   -1.4820650 
C     0.7710128   -3.8238050   -2.1326955 
C    -1.4100041   -0.1724676    3.6193886 
C    -0.6864886   -1.3736448    3.7321333 
C    -0.2761997   -4.3317379   -1.3418353 
C     2.7987475    0.2249381   -2.8558588 
C     1.6855885    0.8159066    2.2251931 
C    -1.3765360   -1.0392198   -2.8377799 
C    -3.8616516    1.8762043   -1.5127925 
C     2.8559895   -1.2711339    1.8194173 
C     4.3310632   -0.1572058   -1.0156647 
C    -3.2057290   -1.8875761   -1.4836151 
C    -4.4861493    0.9130253    0.6231217 
C     2.0643571    0.7694207    3.5695673 
C    -5.1450281    2.4102914   -1.6501044 
C     3.8769406    0.2808215   -3.7452718 
C    -1.6188748   -2.0367481   -3.7870375 
C     5.4051474   -0.0802875   -1.9114621 
C    -3.4375247   -2.8833480   -2.4385669 
C     3.2442027   -1.3014657    3.1645639 
C    -5.7636350    1.4731504    0.4858898 
C     5.2023081    0.1280760   -3.2892941 
C    -6.1179347    2.2319655   -0.6453792 
C    -2.6379115   -2.9903876   -3.5948910 
C     2.8569387   -0.2870479    4.0633591 
C     0.7779763   -3.7897060    3.8208272 
C    -2.3866351   -5.2426481    0.3004828 
C    -2.8264485   -4.1143443   -4.5864860 
C     6.3724043    0.2450193   -4.2380330 
C     3.2679460   -0.3274568    5.5173886 
C    -7.4846686    2.8644730   -0.7657082 
C    -1.3400696    0.2270663    5.9862549 
C     2.1441753   -4.1227269   -4.0745211 
H    -2.3887735    1.2231803    2.3132261 
H     2.1923781   -2.2037631   -2.4197525 
H    -0.3654094   -1.7404451    4.7066054 
H    -0.7218348   -5.2839831   -1.6335239 
H     1.7778424    0.3704506   -3.2298096 
H    -3.1192923    2.0356760   -2.3046456 
H     1.0373518    1.6213082    1.8616435 
H    -0.5645434   -0.3188770   -2.9895800 
H     3.1293761   -2.0973533    1.1549075 
H    -3.8329900   -1.8336697   -0.5878646 
H     4.5275314   -0.3087770    0.0494102 
H    -4.2613923    0.3018295    1.5015020 
H     3.6885260    0.4602508   -4.8100491 
H    -5.3941644    2.9873712   -2.5478943 
H    -0.9905509   -2.0914517   -4.6833731 
H     1.7215268    1.5561266    4.2514995 
H     6.4264113   -0.1782074   -1.5265986 
H    -6.5046249    1.3052886    1.2757399 
H    -4.2533549   -3.5982915   -2.2812515 
H     3.8483582   -2.1405618    3.5281672 
H    -2.8431743   -5.2732136   -0.7068284 
H    -1.6616431   -6.0720947    0.4018474 
H     1.3456678   -4.6978930    3.5719205 
H    -3.1724933   -5.3444056    1.0628474 
H     1.4180089   -3.1090798    4.4140696 
H    -0.1184867   -4.0638092    4.4085797 
H    -3.7288256   -4.7076599   -4.3665960 
H    -1.9525146   -4.7922212   -4.5567358 
H    -2.9070157   -3.7314127   -5.6192269 
H    -8.2438719    2.3015260   -0.1977570 
H    -7.4683227    3.8955149   -0.3627922 
H    -7.8100691    2.9284322   -1.8176593 
H     3.7045997   -1.3019790    5.7906324 
H     2.4058477   -0.1351732    6.1812430 
H     6.7444747    1.2873510   -4.2637506 
H     6.0902870   -0.0291177   -5.2681420 
H     7.2140806   -0.3944241   -3.9231427 
H     4.0215618    0.4519543    5.7347802 
H    -1.7054566    1.0122554    6.6636029 
H    -0.2376287    0.1567985    6.0657202 
H    -1.7908084   -0.7422768    6.2723458 
H     2.2375524   -4.8814731   -4.8647171 
H     3.1082689   -4.0266515   -3.5399036 
H     1.8808971   -3.1470912   -4.5271732 
