79
Energy =
C     1.2533712   -1.3055863   -2.8900372 
C     2.0706877   -0.1827514   -2.6260592 
C     2.9344685   -0.1664362   -1.4857389 
H     1.9125963    0.7438217   -3.1928483 
Pd    0.8400943   -0.4502080   -0.8189334 
P     1.0276562    0.0862137    1.4350569 
P    -1.4657418   -0.5933805   -0.5036322 
H     1.5401394   -2.2550357   -2.4088463 
H     3.3811049   -1.1260757   -1.1900624 
C    -1.6406845   -1.7663306   -6.0375027 
C    -1.5159570   -2.7342287   -5.0275244 
C    -0.5536884   -2.5780030   -4.0238014 
C     0.2919570   -1.4444541   -3.9971328 
C     0.1725250   -0.4924129   -5.0349396 
C    -0.7852486   -0.6526686   -6.0423940 
H    -2.3890436   -1.8880672   -6.8271244 
H    -2.1643311   -3.6166273   -5.0293111 
H    -0.4548990   -3.3374081   -3.2393858 
H     0.8372361    0.3769113   -5.0640680 
H    -0.8613467    0.0925241   -6.8408353 
C     5.0399975    3.3065583   -0.0455785 
C     3.8366363    3.4625897   -0.7540381 
C     3.1505947    2.3421448   -1.2339291 
C     3.6574509    1.0377338   -1.0248524 
C     4.8730179    0.8967370   -0.3186365 
C     5.5559944    2.0193597    0.1683663 
H     5.5730507    4.1840708    0.3340411 
H     3.4277290    4.4640300   -0.9244309 
H     2.1947008    2.4779809   -1.7532559 
H     5.2891898   -0.1042688   -0.1600430 
H     6.4986086    1.8888082    0.7099775 
N    -0.8883542    0.6046875    3.3533323 
N    -3.0019444   -0.4457626    1.7856030 
C     1.8117033   -1.3004267    2.4795112 
C    -2.3674294    0.8768338   -1.3157837 
C    -0.6949796    0.1815560    2.1126023 
C    -1.7773090   -0.3015894    1.3005317 
C     1.9651707   -0.8646016    3.9505850 
C     0.8878747   -2.5322542    2.3657560 
C     3.1929019   -1.6210535    1.8726090 
C    -1.8297290    2.1640882   -0.6532055 
C    -1.9950485    0.8665726   -2.8117376 
C    -3.8934532    0.7656461   -1.1351321 
C     1.8032354    1.6689073    1.9484997 
C    -2.4505360   -2.0992983   -0.8781067 
C    -2.1510671    0.5118235    3.8638795 
C    -3.2191546   -0.0676643    3.0792755 
C    -2.4160203    0.9573163    5.1885892 
C    -4.5120596   -0.2129816    3.6543405 
C    -3.6883284    0.8106514    5.7168733 
C    -4.7356029    0.2204794    4.9511155 
H     2.7006749   -0.0494124    4.0582874 
H     1.0084465   -0.5313247    4.3844359 
H     2.3342404   -1.7254280    4.5380574 
H     0.7091130   -2.8067834    1.3091358 
H    -0.0873042   -2.3634028    2.8543897 
H     1.3674227   -3.3941170    2.8632952 
H     3.0987155   -2.0257692    0.8508920 
H     3.8465522   -0.7327773    1.8398066 
H     3.6927270   -2.3837487    2.4966279 
H    -2.1275036    2.2411348    0.4069865 
H    -0.7261741    2.2178314   -0.7136948 
H    -2.2414919    3.0427362   -1.1813330 
H    -2.2745142   -0.0768338   -3.3114936 
H    -0.9118373    1.0194281   -2.9534415 
H    -2.5277743    1.6878763   -3.3245503 
H    -4.3072443   -0.0950194   -1.6874474 
H    -4.1788210    0.6703907   -0.0745695 
H    -4.3661121    1.6787233   -1.5417453 
H     2.8926805    1.6152227    1.7900468 
H     1.5677422    1.8675610    3.0064138 
H     1.3989686    2.4751787    1.3163998 
H    -2.5637705   -2.1968330   -1.9697299 
H    -3.4358221   -2.0254590   -0.3899466 
H    -1.9101841   -2.9786799   -0.4919498 
H    -1.5961316    1.3994041    5.7620082 
H    -5.3038407   -0.6600623    3.0463197 
H    -3.8970707    1.1472193    6.7374271 
H    -5.7294234    0.1144734    5.3977339 
