79
Energy =
C     1.8952542   -1.8568903   -2.1409917 
C     2.7988218   -0.9201904   -1.5892964 
C     3.1384611   -0.9713079   -0.2003815 
H     3.1016727   -0.0485854   -2.1838426 
Pd    0.9482306   -0.7119295   -0.4130104 
P     0.3885937    0.0121508    1.7236266 
P    -1.2620328   -0.3067220   -1.0359581 
H     1.7343989   -2.7879308   -1.5732499 
H     3.1891277   -1.9679846    0.2599307 
C     0.4013171   -2.0094167   -6.1705272 
C    -0.1088722   -2.8657733   -5.1811380 
C     0.4047249   -2.8162661   -3.8805560 
C     1.4255766   -1.8997964   -3.5361615 
C     1.9468722   -1.0625769   -4.5486347 
C     1.4376254   -1.1172171   -5.8508155 
H     0.0055930   -2.0493301   -7.1904075 
H    -0.9016447   -3.5796158   -5.4280388 
H     0.0083170   -3.4888611   -3.1110459 
H     2.7626385   -0.3682272   -4.3233336 
H     1.8558306   -0.4644443   -6.6238356 
C     5.3286934    2.0859793    1.9032388 
C     4.5541652    2.4272403    0.7816350 
C     3.8468717    1.4406818    0.0867996 
C     3.9049999    0.0862362    0.4920525 
C     4.6943548   -0.2432820    1.6165687 
C     5.3972486    0.7467397    2.3163895 
H     5.8775975    2.8598716    2.4492199 
H     4.4954301    3.4704690    0.4539539 
H     3.2179231    1.7275062   -0.7641839 
H     4.7636300   -1.2888001    1.9365948 
H     6.0070880    0.4700633    3.1826929 
N    -3.4682168    0.4218767    0.4559586 
N    -1.9248223    1.1399944    2.7209567 
C    -1.3936616    1.2310483   -2.1552746 
C     0.3554461   -1.3873877    3.0151666 
C    -2.1563818    0.2384783    0.4940646 
C    -1.3828510    0.5546195    1.6629668 
C    -0.8472057    2.4301387   -1.3500405 
C    -0.4966683    0.9760786   -3.3829290 
C    -2.8501335    1.4831529   -2.5899580 
C     1.7395791   -2.0677646    3.0052452 
C     0.0445780   -0.8346618    4.4206892 
C    -0.7287481   -2.3920456    2.5686373 
C    -2.3672232   -1.5877208   -1.7541689 
C     1.2703589    1.4354501    2.4765220 
C    -4.0623830    0.9754077    1.5533809 
C    -3.2675793    1.3841852    2.6906539 
C    -5.4694617    1.1834981    1.5704945 
C    -3.8994838    2.0168773    3.7969983 
C    -6.0567030    1.7928057    2.6674990 
C    -5.2706288    2.2144754    3.7791384 
H    -1.4949064    2.6847881   -0.4931482 
H     0.1737095    2.2306211   -0.9727181 
H    -0.7982358    3.3163883   -2.0078553 
H    -0.7894971    0.0700875   -3.9408800 
H     0.5605613    0.8681540   -3.0877693 
H    -0.5740943    1.8347590   -4.0743359 
H    -3.2226653    0.6813252   -3.2497263 
H    -3.5305984    1.5701845   -1.7270430 
H    -2.8908059    2.4286471   -3.1616684 
H     1.9403956   -2.5562804    2.0369999 
H     2.5536288   -1.3525428    3.2133859 
H     1.7651219   -2.8445642    3.7906248 
H    -0.8917681   -0.2535109    4.4380654 
H     0.8609773   -0.1939918    4.7949006 
H    -0.0585774   -1.6846097    5.1201187 
H    -1.7428613   -1.9612235    2.6345078 
H    -0.5588100   -2.7349653    1.5306898 
H    -0.6976562   -3.2781807    3.2276137 
H    -2.0782012   -1.7711481   -2.8014427 
H    -3.4134551   -1.2465673   -1.6936621 
H    -2.2471842   -2.5199148   -1.1788476 
H     2.2895610    1.1290066    2.7632440 
H     0.7061490    1.7965652    3.3513717 
H     1.3466745    2.2352794    1.7232437 
H    -6.0531272    0.8606788    0.7035440 
H    -3.2788900    2.3247318    4.6435276 
H    -7.1386277    1.9588347    2.6846228 
H    -5.7631364    2.6971519    4.6293414 
