79
Energy =
C     1.9210037   -2.0108250   -1.9720808 
C     2.8285310   -1.0688990   -1.4358955 
C     3.1175771   -1.0575666   -0.0348090 
H     3.1746610   -0.2365944   -2.0622549 
Pd    0.9437890   -0.7552793   -0.3405759 
P     0.3290240    0.0921097    1.7349569 
P    -1.2329732   -0.3319289   -1.0616286 
H     1.7164913   -2.9072546   -1.3641115 
H     3.1250338   -2.0306837    0.4759689 
C     0.5696897   -2.3380360   -6.0413833 
C     0.0023284   -3.1291501   -5.0290796 
C     0.4696853   -3.0238885   -3.7144426 
C     1.5004270   -2.1149962   -3.3796181 
C     2.0791781   -1.3444154   -4.4135387 
C     1.6162250   -1.4551180   -5.7293552 
H     0.2102770   -2.4219052   -7.0719800 
H    -0.7989667   -3.8359939   -5.2684762 
H     0.0290012   -3.6461275   -2.9268719 
H     2.9036805   -0.6586601   -4.1938033 
H     2.0788155   -0.8538811   -6.5187118 
C     5.3065916    2.0472863    1.9987374 
C     4.5878307    2.3495800    0.8298223 
C     3.8819180    1.3467892    0.1571856 
C     3.8856733    0.0142922    0.6331608 
C     4.6194414   -0.2765439    1.8049497 
C     5.3209570    0.7300262    2.4820956 
H     5.8544113    2.8340989    2.5270563 
H     4.5715198    3.3754918    0.4472310 
H     3.2961663    1.6050287   -0.7328833 
H     4.6459301   -1.3053010    2.1807502 
H     5.8873020    0.4832333    3.3861372 
N    -3.4678973    0.5356343    0.3082492 
N    -1.9828007    1.3384247    2.5838349 
C    -1.2885741    1.1440730   -2.2671425 
C     0.2093753   -1.2412003    3.0897974 
C    -2.1640910    0.3186884    0.4037651 
C    -1.4224969    0.6784685    1.5806967 
C    -2.7218649    1.4016866   -2.7701925 
C    -0.7450450    2.3742798   -1.5081742 
C    -0.3529265    0.8031241   -3.4438836 
C     1.5807814   -1.9410860    3.1805083 
C    -0.1598916   -0.6173162    4.4505517 
C    -0.8684414   -2.2506447    2.6386606 
C    -2.3445509   -1.6256480   -1.7463994 
C     1.2217933    1.5274189    2.4511078 
C    -4.0827912    1.1672030    1.3508077 
C    -3.3156317    1.6185643    2.4909250 
C    -5.4827640    1.4152398    1.3055291 
C    -3.9656222    2.3322640    3.5357616 
C    -6.0885785    2.1038036    2.3440109 
C    -5.3286889    2.5673519    3.4571808 
H    -3.0877302    0.5724463   -3.3990782 
H    -3.4316070    1.5505068   -1.9398439 
H    -2.7199258    2.3147361   -3.3938053 
H     0.2559350    2.1744992   -1.0810743 
H    -1.4184722    2.6900582   -0.6924857 
H    -0.6508598    3.2212076   -2.2112884 
H     0.6896545    0.6885350   -3.1028541 
H    -0.6462258   -0.1254737   -3.9630329 
H    -0.3844342    1.6243527   -4.1826786 
H     1.8255853   -2.4685897    2.2433522 
H     2.3939024   -1.2302225    3.4061101 
H     1.5512598   -2.6879665    3.9942249 
H    -1.0910277   -0.0302092    4.3973328 
H     0.6437807    0.0364798    4.8295406 
H    -0.3014450   -1.4308288    5.1857635 
H    -1.8755413   -1.7989256    2.6208162 
H    -0.6467494   -2.6558394    1.6334577 
H    -0.8938748   -3.0975635    3.3475587 
H    -2.0209792   -1.8781532   -2.7689061 
H    -3.3828836   -1.2561926   -1.7474048 
H    -2.2714432   -2.5244393   -1.1128935 
H     2.2229212    1.2108221    2.7862968 
H     0.6380699    1.9427972    3.2882673 
H     1.3429015    2.2889388    1.6646707 
H    -6.0458673    1.0591866    0.4379944 
H    -3.3653431    2.6710133    4.3851375 
H    -7.1649269    2.3010122    2.3126491 
H    -5.8351873    3.1125945    4.2600272 
