101
Energy =
C    -2.3853153   -2.1804894   -1.4070723 
C    -1.7213357   -3.0710155   -0.5331775 
C    -1.7947232   -2.8760074    0.8843368 
H    -1.0172613   -3.8042736   -0.9459875 
Pd   -0.9020597   -1.0861996   -0.0591198 
P    -0.3094331    0.1272960    1.8480612 
P     0.1741841    0.3096403   -1.5900112 
H    -3.1899735   -1.5686915   -0.9683353 
H    -2.7296860   -2.4636445    1.2880228 
C    -2.4497223   -2.1499180   -5.7007697 
C    -1.7385576   -3.1569886   -5.0282252 
C    -1.6956521   -3.1808498   -3.6313182 
C    -2.3736118   -2.1975606   -2.8749165 
C    -3.0858393   -1.1889931   -3.5668089 
C    -3.1212506   -1.1622146   -4.9643858 
H    -2.4814291   -2.1379620   -6.7951213 
H    -1.2134064   -3.9299061   -5.5979959 
H    -1.1429346   -3.9789254   -3.1271948 
H    -3.6153140   -0.4188446   -2.9955118 
H    -3.6793859   -0.3741312   -5.4801781 
C     0.6540586   -4.8934268    3.7964699 
C    -0.5634903   -4.3052539    4.1677746 
C    -1.3600707   -3.6667122    3.2094600 
C    -0.9545647   -3.5999212    1.8576578 
C     0.2768587   -4.1992352    1.4974022 
C     1.0689445   -4.8395671    2.4546850 
H     1.2777651   -5.3922217    4.5453087 
H    -0.8970142   -4.3412878    5.2101077 
H    -2.3075199   -3.2055331    3.5082730 
H     0.6275690   -4.1469314    0.4602094 
H     2.0188894   -5.2959917    2.1567504 
O     0.8769274    4.7088974   -0.4953261 
O     3.0811374    3.2713766    1.6665658 
O    -1.0367985    5.8198222    0.2139016 
O     5.1263152    2.3930224    1.0040422 
C     0.4135133    2.5631833    0.6325261 
C     1.6749266    1.9464398    0.1292015 
C    -0.5347277    1.9212054    1.4979367 
C     1.7546538    0.9684518   -0.9158653 
C     0.1325980    3.8849329    0.3021290 
C     2.8901639    2.3626482    0.6625881 
C    -1.0189065    4.5589297    0.7355092 
C     4.1266957    1.8363923    0.2597588 
C    -1.6704777    2.6166658    1.9519125 
C     3.0021719    0.4703858   -1.3348537 
C    -1.9399375    3.9509264    1.5756427 
C     4.2164858    0.8888675   -0.7489796 
C    -1.4223468   -0.2575003    3.2591101 
C     1.4014698   -0.0329909    2.4747903 
C     0.6771249   -0.6800049   -3.0515713 
C    -0.7262952    1.7899684   -2.1828729 
C     0.1807987    5.9681054   -0.5395395 
C     4.5059213    3.3910902    1.8343753 
C    -0.9376228   -0.5737651    4.5421000 
C     1.9140062    0.8794216    3.4204176 
C     0.4696644   -0.2679690   -4.3800353 
C    -0.0770057    2.7871069   -2.9392796 
C    -2.8131416   -0.3153654    3.0138992 
C     2.2189936   -1.0657611    1.9783787 
C     1.3035660   -1.9224266   -2.8001342 
C    -2.0719130    1.9644394   -1.8040189 
C    -1.8322113   -0.9199687    5.5666943 
C     3.2356148    0.7493662    3.8656887 
C     0.9198007   -1.0698683   -5.4394620 
C    -0.7803015    3.9347373   -3.3294297 
C    -3.7027158   -0.6500454    4.0419830 
C     3.5449321   -1.1796772    2.4160939 
C     1.7694104   -2.7079773   -3.8612356 
C    -2.7645275    3.1225148   -2.1794978 
C    -3.2119863   -0.9539687    5.3230482 
C     4.0540932   -0.2727413    3.3580694 
C     1.5837364   -2.2778430   -5.1843635 
C    -2.1199378    4.1067029   -2.9453216 
H    -2.3696047    2.1223941    2.6310802 
H     3.0465079   -0.2589515   -2.1472511 
H    -2.8260598    4.4800472    1.9337449 
H     5.1790802    0.4893155   -1.0761952 
H     0.8082751    6.7530307   -0.0778371 
H    -0.0658619    6.2121992   -1.5878843 
H     4.8321246    4.3978828    1.5102477 
H     4.7675285    3.2030136    2.8894465 
H     0.1376322   -0.5677791    4.7418732 
H     1.2878517    1.6995261    3.7875409 
H    -0.0475042    0.6724146   -4.5914456 
H     0.9801919    2.6744483   -3.2022246 
H    -3.1984360   -0.1027020    2.0090055 
H     1.8136799   -1.7659959    1.2405457 
H     1.4345681   -2.2637352   -1.7653618 
H    -2.5581587    1.2028216   -1.1836267 
H    -1.4432850   -1.1702346    6.5590858 
H     3.6303958    1.4539602    4.6055310 
H     0.7484611   -0.7450451   -6.4707695 
H    -0.2759207    4.7032362   -3.9249532 
H    -4.7787857   -0.6828585    3.8423165 
H     4.1828633   -1.9755119    2.0186628 
H     2.2694427   -3.6603230   -3.6560790 
H    -3.8041222    3.2629044   -1.8666958 
H    -3.9058099   -1.2244013    6.1255862 
H     5.0915866   -0.3611095    3.6965568 
H     1.9422107   -2.8929451   -6.0161469 
H    -2.6614380    5.0124329   -3.2377183 
