101
Energy =
C    -1.6052577   -2.9620830   -1.2610266 
C    -0.4226050   -3.4554276   -0.6286666 
C    -0.3061839   -3.5172399    0.7780722 
H     0.4633043   -3.6584243   -1.2441403 
Pd   -0.7242855   -1.3864269    0.0505383 
P     0.7979801   -0.2315247    1.4376055 
P    -1.5596186    0.5579290   -0.9299389 
H    -2.5648019   -3.1330601   -0.7514482 
H    -1.2416813   -3.5359831    1.3592016 
C    -1.8681066   -2.2669905   -5.5051234 
C    -0.6279055   -2.1617906   -4.8536207 
C    -0.5345000   -2.3894608   -3.4768900 
C    -1.6779816   -2.7366403   -2.7186165 
C    -2.9144736   -2.8462276   -3.3905720 
C    -3.0096164   -2.6112401   -4.7674558 
H    -1.9421756   -2.0813202   -6.5814678 
H     0.2690838   -1.8927383   -5.4219076 
H     0.4338127   -2.2690561   -2.9784074 
H    -3.8102357   -3.1182827   -2.8231875 
H    -3.9810334   -2.6937244   -5.2649769 
C     3.1095494   -4.8921559    2.9974592 
C     1.8270159   -4.9130416    3.5644588 
C     0.7286579   -4.4470917    2.8334228 
C     0.8868890   -3.9645202    1.5146773 
C     2.1868101   -3.9462581    0.9575468 
C     3.2848461   -4.4021428    1.6924539 
H     3.9707755   -5.2518072    3.5699106 
H     1.6813093   -5.2869653    4.5827197 
H    -0.2692991   -4.4595812    3.2839279 
H     2.3465998   -3.5630096   -0.0540116 
H     4.2838507   -4.3755496    1.2450818 
O    -0.0307487    4.8356957    0.1990609 
O     2.9404010    3.3100519   -0.5828930 
O    -0.5243512    5.5077419    2.3667947 
O     3.7009473    2.7107074   -2.6941880 
C     0.4472219    2.4725538    0.7206169 
C     0.7761670    2.1277273   -0.6935820 
C     0.4948812    1.5440422    1.8143599 
C    -0.0322659    1.3356119   -1.5749741 
C     0.1216130    3.7815503    1.0557020 
C     1.9918364    2.5590475   -1.2193954 
C    -0.1751437    4.1888436    2.3656020 
C     2.4521907    2.1974206   -2.4939141 
C     0.2310002    1.9705442    3.1283265 
C     0.4464651    0.9630519   -2.8474935 
C    -0.1106939    3.3056635    3.4328672 
C     1.7000501    1.3891032   -3.3349189 
C     0.9959283   -1.0137610    3.0850568 
C     2.4470759   -0.1873492    0.6228213 
C    -2.8182984    0.4547407   -2.2673869 
C    -2.3831332    1.7986024    0.1532538 
C    -0.3552348    5.9759003    1.0164288 
C     4.0070012    3.5010115   -1.5302622 
C    -0.1877596   -1.2932488    3.8030204 
C     2.6397458   -0.8525248   -0.6031452 
C    -3.9952466   -0.2433523   -1.9230029 
C    -2.7192650    3.0620531   -0.3747410 
C     2.2417399   -1.3319785    3.6545759 
C     3.4970663    0.5798173    1.1689181 
C    -2.7509089    1.1267150   -3.5020653 
C    -2.7341012    1.4754219    1.4754757 
C    -0.1222888   -1.8332839    5.0931841 
C     3.8702771   -0.7723061   -1.2671004 
C    -5.0874720   -0.2672813   -2.7969022 
C    -3.3784714    3.9996518    0.4285567 
C     2.3005741   -1.8893236    4.9405513 
C     4.7331664    0.6424634    0.5113973 
C    -3.8404760    1.0790082   -4.3851222 
C    -3.3911375    2.4199346    2.2769484 
C     1.1252231   -2.1262911    5.6666492 
C     4.9213785   -0.0309279   -0.7063232 
C    -5.0086501    0.3878591   -4.0354530 
C    -3.7095117    3.6827076    1.7564441 
H     0.2876838    1.2510593    3.9490831 
H    -0.1589072    0.3065623   -3.4776699 
H    -0.3255714    3.6250740    4.4550796 
H     2.0653243    1.0894398   -4.3199241 
H     0.4754675    6.7061171    0.9789676 
H    -1.3002417    6.4226913    0.6628429 
H     4.0638310    4.5694247   -1.8122330 
H     4.9546639    3.1474405   -1.0888001 
H    -1.1626533   -1.0817789    3.3470140 
H     1.8016358   -1.3990327   -1.0506364 
H    -4.0556765   -0.7609940   -0.9577960 
H    -2.4554463    3.3140167   -1.4072957 
H     3.1653836   -1.1627271    3.0944052 
H     3.3398635    1.1449338    2.0937131 
H    -1.8628071    1.7034657   -3.7746595 
H    -2.4726408    0.4905073    1.8789727 
H    -1.0448710   -2.0332795    5.6479964 
H     4.0046657   -1.2772409   -2.2290572 
H    -5.9979391   -0.8062827   -2.5151380 
H    -3.6385459    4.9803686    0.0161021 
H     3.2737164   -2.1438732    5.3724585 
H     5.5478869    1.2315361    0.9459490 
H    -3.7766088    1.5985678   -5.3468551 
H    -3.6494727    2.1706964    3.3110833 
H     1.1787862   -2.5545957    6.6728559 
H     5.8833750    0.0327448   -1.2253323 
H    -5.8587984    0.3631577   -4.7249480 
H    -4.2196189    4.4202212    2.3844545 
