101
Energy =
C    -1.2401728   -2.9008769   -1.4611447 
C    -1.0647924   -3.4273467   -0.1473655 
C    -1.8315727   -2.9605538    0.9434598 
H    -0.2117788   -4.0878239    0.0554076 
Pd   -0.7000233   -1.2428668   -0.0644058 
P    -0.0360866    0.1309412    1.7152364 
P    -0.3144749    0.3871381   -1.7053302 
H    -2.2486678   -2.5659888   -1.7406293 
H    -2.7572404   -2.4075354    0.7154934 
C     1.3050922   -3.8186897   -4.8118149 
C     1.8059295   -3.9366654   -3.5039298 
C     0.9885257   -3.6457273   -2.4083034 
C    -0.3517095   -3.2297856   -2.5931898 
C    -0.8411053   -3.1186895   -3.9132975 
C    -0.0215045   -3.4109447   -5.0104948 
H     1.9477990   -4.0443742   -5.6689147 
H     2.8418512   -4.2518034   -3.3404857 
H     1.4011763   -3.7252341   -1.3961146 
H    -1.8751281   -2.7962753   -4.0761433 
H    -0.4226082   -3.3163619   -6.0249282 
C    -1.5659357   -4.3715466    4.9921100 
C    -1.0372626   -5.1480137    3.9495802 
C    -1.1092779   -4.6948713    2.6278832 
C    -1.7235483   -3.4583514    2.3232767 
C    -2.2682022   -2.6959806    3.3823284 
C    -2.1821269   -3.1432745    4.7034102 
H    -1.5044518   -4.7251145    6.0263734 
H    -0.5724529   -6.1152419    4.1670389 
H    -0.7137026   -5.3229444    1.8230291 
H    -2.7399371   -1.7315611    3.1615218 
H    -2.5929540   -2.5315068    5.5126632 
O     2.7745550    3.7711267   -0.9164167 
O     0.3676532    4.7880407    1.1367877 
O     4.8441765    2.9497716   -0.2546960 
O    -1.6038937    5.8010048    0.4513314 
C     1.3944773    2.1412637    0.3221112 
C     0.1220399    2.7214147   -0.1931708 
C     1.4943715    1.0332194    1.2274497 
C    -0.7429660    2.0875039   -1.1446656 
C     2.6020845    2.7143109   -0.0659782 
C    -0.2687575    3.9889009    0.2264145 
C     3.8520998    2.2223500    0.3370075 
C    -1.4590208    4.6039069   -0.1894714 
C     2.7534891    0.5642027    1.6465027 
C    -1.9188396    2.7265107   -1.5795422 
C     3.9614369    1.1442801    1.2031143 
C    -2.3083257    3.9961888   -1.1022895 
C    -1.2117237    1.4330966    2.2470256 
C     0.4397216   -0.7870109    3.2337772 
C     1.4112528    0.5306263   -2.3015833 
C    -1.3756514    0.1099859   -3.1804725 
C     4.1937431    4.0011122   -0.9911069 
C    -0.3802094    6.0173789    1.1757630 
C    -2.5575866    1.3468593    1.8412624 
C     0.2030606   -0.3001601    4.5340828 
C     2.3598587   -0.4277183   -1.8983804 
C    -0.8777537    0.1243201   -4.4961889 
C    -0.7869349    2.5277506    3.0290242 
C     1.0739660   -2.0368926    3.0684446 
C     1.8083691    1.6152724   -3.1112685 
C    -2.7441694   -0.1669554   -2.9626376 
C    -3.4704263    2.3435659    2.2128001 
C     0.6198228   -1.0422488    5.6477344 
C     3.6961784   -0.3038674   -2.2993401 
C    -1.7414733   -0.1109806   -5.5772044 
C    -1.7068466    3.5127854    3.4101691 
C     1.4961360   -2.7699168    4.1835559 
C     3.1426888    1.7236269   -3.5236904 
C    -3.6037036   -0.3939264   -4.0445428 
C    -3.0463432    3.4255473    2.9989051 
C     1.2705374   -2.2723353    5.4757434 
C     4.0882417    0.7699586   -3.1130208 
C    -3.1020635   -0.3645130   -5.3567062 
H     2.8084318   -0.2721351    2.3485575 
H    -2.5539137    2.2399879   -2.3237028 
H     4.9333605    0.7667819    1.5288749 
H    -3.2290875    4.4783312   -1.4384155 
H     4.5156546    3.9611409   -2.0459926 
H     4.4334733    4.9786774   -0.5313512 
H    -0.6144534    6.2712629    2.2226649 
H     0.2042267    6.8203935    0.6854607 
H    -2.8778729    0.5086110    1.2111444 
H    -0.3152281    0.6510511    4.6834428 
H     2.0481025   -1.2527089   -1.2498456 
H     0.1855762    0.2992553   -4.6819688 
H     0.2671577    2.6252526    3.3092336 
H     1.2257855   -2.4373406    2.0585595 
H     1.0813357    2.3831051   -3.3964575 
H    -3.1353655   -0.2045134   -1.9381930 
H    -4.5120815    2.2798728    1.8821836 
H     0.4302073   -0.6570990    6.6549925 
H     4.4337060   -1.0429875   -1.9708609 
H    -1.3419895   -0.1040574   -6.5965449 
H    -1.3733543    4.3580995    4.0214432 
H     1.9827889   -3.7400263    4.0440460 
H     3.4470148    2.5626284   -4.1585903 
H    -4.6639848   -0.5995408   -3.8646129 
H    -3.7589189    4.2058103    3.2852864 
H     1.5904209   -2.8508549    6.3483864 
H     5.1337695    0.8670795   -3.4234231 
H    -3.7716901   -0.5475632   -6.2032711 
