101
Energy =
C    -1.4449679   -2.8235948   -1.5267595 
C    -1.0509894   -3.3850375   -0.2909482 
C    -1.6589218   -2.9390146    0.9273321 
H    -0.1677985   -4.0348497   -0.2523027 
Pd   -0.6893440   -1.2264093   -0.0810506 
P    -0.9710159    0.4187536    1.5545161 
P     0.7065926    0.0290431   -1.4693148 
H    -2.4173120   -2.3054663   -1.5443519 
H    -2.7167503   -2.6452396    0.8841617 
C     0.0582653   -3.6333391   -5.4670237 
C    -0.9396676   -2.6685102   -5.2621749 
C    -1.4137567   -2.4185202   -3.9707193 
C    -0.8964240   -3.1202949   -2.8557613 
C     0.1146591   -4.0831761   -3.0777136 
C     0.5816115   -4.3375100   -4.3703998 
H     0.4265063   -3.8387896   -6.4773907 
H    -1.3541781   -2.1152752   -6.1111270 
H    -2.1969685   -1.6684365   -3.8158248 
H     0.5295852   -4.6490395   -2.2386068 
H     1.3602884   -5.0909700   -4.5248524 
C    -0.2352649   -3.8571306    4.8866140 
C    -1.5655763   -3.4670860    4.6761321 
C    -2.0224466   -3.1863772    3.3826030 
C    -1.1573442   -3.2883029    2.2703441 
C     0.1830165   -3.6842701    2.4981932 
C     0.6367244   -3.9666997    3.7897374 
H     0.1229123   -4.0755580    5.8978346 
H    -2.2539279   -3.3786132    5.5230944 
H    -3.0616587   -2.8772743    3.2270402 
H     0.8829111   -3.7522900    1.6573249 
H     1.6777325   -4.2689054    3.9460340 
O     0.4484030    4.6006389   -1.3404656 
O     1.8630344    4.0652538    1.7227749 
O    -1.7058850    5.4347136   -1.5919509 
O     4.0965670    3.4952972    2.0061802 
C    -0.1419258    2.6676402    0.0759494 
C     1.2783865    2.2248465    0.1841042 
C    -1.2585183    2.0338005    0.7176359 
C     1.8464933    1.1014213   -0.5014619 
C    -0.4340095    3.8187250   -0.6484732 
C     2.1582743    2.9639010    0.9677218 
C    -1.7332889    4.3271688   -0.7952601 
C     3.5089216    2.6235502    1.1357859 
C    -2.5529629    2.5699948    0.5894735 
C     3.2100263    0.7877030   -0.3521230 
C    -2.8191176    3.7274373   -0.1747599 
C     4.0700293    1.5394370    0.4775318 
C    -2.4671151    0.1007778    2.5733468 
C     0.4032994    0.7157593    2.7245446 
C     1.8167007   -1.1087674   -2.3867765 
C    -0.0774773    1.1618379   -2.6759813 
C    -0.3246926    5.6640917   -1.9266518 
C     3.1036194    4.4889280    2.3179484 
C    -2.4452424    0.1274370    3.9804431 
C     0.4273669    1.8700285    3.5348100 
C     2.0617394   -1.0125294   -3.7681913 
C    -1.4794490    1.1446903   -2.8132523 
C    -3.6600366   -0.2650200    1.9092051 
C     1.4609971   -0.2108292    2.7879853 
C     2.4449119   -2.1321488   -1.6402447 
C     0.6859558    2.0964828   -3.4051548 
C    -3.6041349   -0.1841885    4.7083189 
C     1.5036324    2.0853520    4.4050328 
C     2.9540003   -1.9028725   -4.3839520 
C    -2.1137363    2.0495789   -3.6739440 
C    -4.8168361   -0.5636118    2.6391954 
C     2.5423953    0.0197817    3.6482243 
C     3.3502788   -3.0042092   -2.2565633 
C     0.0482962    2.9865545   -4.2799164 
C    -4.7902842   -0.5234230    4.0434587 
C     2.5649468    1.1670273    4.4559605 
C     3.6113153   -2.8854036   -3.6305752 
C    -1.3497181    2.9685868   -4.4104712 
H    -3.3885450    2.0910211    1.1058906 
H     3.6318637   -0.0589945   -0.8990766 
H    -3.8289046    4.1338308   -0.2672150 
H     5.1254845    1.2823870    0.5927153 
H     0.0018264    6.6330144   -1.5056254 
H    -0.2061452    5.6392861   -3.0243700 
H     3.4056747    5.4626700    1.8872320 
H     2.9818809    4.5527551    3.4126090 
H    -1.5223717    0.3744709    4.5128009 
H    -0.3812672    2.6055339    3.4672843 
H     1.5539193   -0.2507878   -4.3668017 
H    -2.0689668    0.4417048   -2.2136697 
H    -3.6783488   -0.3215132    0.8138212 
H     1.4362095   -1.1008674    2.1506360 
H     2.2281386   -2.2327237   -0.5690887 
H     1.7722111    2.1399860   -3.2722422 
H    -3.5734847   -0.1663225    5.8026264 
H     1.5177298    2.9779202    5.0397161 
H     3.1339883   -1.8253373   -5.4610252 
H    -3.2047599    2.0452988   -3.7634397 
H    -5.7374502   -0.8369174    2.1132541 
H     3.3703458   -0.6953249    3.6856219 
H     3.8455683   -3.7823475   -1.6664175 
H     0.6449513    3.7050067   -4.8521921 
H    -5.6918458   -0.7648976    4.6157031 
H     3.4119694    1.3471500    5.1259594 
H     4.3146490   -3.5696886   -4.1161809 
H    -1.8459733    3.6764298   -5.0826274 
