101
Energy =
C    -1.3077957   -2.9290272   -1.4571574 
C    -0.8451032   -3.4504306   -0.2276941 
C    -1.4450994   -3.0288253    1.0032110 
H     0.0780272   -4.0431412   -0.2085038 
Pd   -0.6135154   -1.2709639   -0.0500970 
P    -0.9594704    0.3768096    1.5707564 
P     0.6668827    0.0511780   -1.4863627 
H    -2.3105387   -2.4723160   -1.4519488 
H    -2.5198129   -2.8012597    0.9877126 
C     0.1369021   -3.6815691   -5.4303842 
C    -0.9128270   -2.7779969   -5.2058808 
C    -1.3669180   -2.5457905   -3.9039826 
C    -0.7780757   -3.2044727   -2.7982584 
C     0.2840520   -4.1055975   -3.0402173 
C     0.7313826   -4.3424992   -4.3431397 
H     0.4902992   -3.8730380   -6.4487739 
H    -1.3830728   -2.2590869   -6.0474454 
H    -2.1898897   -1.8431915   -3.7334329 
H     0.7553547   -4.6370040   -2.2083546 
H     1.5506407   -5.0480560   -4.5129797 
C     0.1474670   -3.7949465    4.9304155 
C    -1.2066746   -3.4752838    4.7558990 
C    -1.7179049   -3.2456591    3.4727474 
C    -0.8842382   -3.3274015    2.3348896 
C     0.4807627   -3.6521636    2.5266093 
C     0.9884285   -3.8853103    3.8079296 
H     0.5478694   -3.9743115    5.9334397 
H    -1.8713408   -3.4024322    5.6230386 
H    -2.7758712   -2.9923706    3.3451918 
H     1.1566924   -3.7037300    1.6652604 
H     2.0473642   -4.1339100    3.9357904 
O     0.1413438    4.6048683   -1.3961109 
O     1.6586538    4.1883980    1.6321900 
O    -2.0648364    5.3026527   -1.6092917 
O     3.9269316    3.7510366    1.8711083 
C    -0.2995197    2.6542658    0.0504575 
C     1.1465679    2.2970342    0.1298067 
C    -1.3616699    1.9606095    0.7220226 
C     1.7633655    1.1994060   -0.5557630 
C    -0.6765900    3.7781545   -0.6775520 
C     1.9998384    3.0959434    0.8836040 
C    -2.0074992    4.2043962   -0.8014153 
C     3.3712329    2.8356905    1.0247748 
C    -2.6891130    2.4147293    0.6158914 
C     3.1456487    0.9661603   -0.4336437 
C    -3.0416372    3.5454574   -0.1532648 
C     3.9790168    1.7765206    0.3674211 
C    -2.4126133   -0.0164523    2.6250550 
C     0.4175623    0.7707249    2.7082607 
C     1.8203711   -1.0267829   -2.4224942 
C    -0.2135698    1.1232514   -2.6820131 
C    -0.7072342    5.6149511   -1.9721602 
C     2.8864823    4.6923354    2.1901673 
C    -2.3663850    0.0402665    4.0306763 
C     1.5243516   -0.0967509    2.7691591 
C     2.5270573   -2.0039313   -1.6841404 
C    -1.6149922    1.0212974   -2.7831103 
C    -3.5915977   -0.4711351    1.9917405 
C     0.3930372    1.9394607    3.4974505 
C     2.0250924   -0.9288313   -3.8103603 
C     0.4741027    2.0947635   -3.4379195 
C    -3.4886833   -0.3311990    4.7872499 
C     2.6058457    0.2071442    3.6061961 
C     3.4675342   -2.8260588   -2.3163538 
C    -2.3237407    1.8789908   -3.6340029 
C    -4.7124174   -0.8301418    2.7501193 
C     1.4708707    2.2284390    4.3439841 
C     2.9534408   -1.7701364   -4.4415614 
C    -0.2374492    2.9370951   -4.3029139 
C    -4.6620591   -0.7608913    4.1525988 
C     2.5805551    1.3690961    4.3924552 
C     3.6868594   -2.7047005   -3.6974122 
C    -1.6347770    2.8349897   -4.3970329 
H    -3.4829432    1.8904089    1.1537729 
H     3.6033963    0.1381105   -0.9802224 
H    -4.0762623    3.8878627   -0.2287485 
H     5.0497678    1.5817439    0.4617850 
H    -0.4332670    6.6047902   -1.5622697 
H    -0.6085785    5.5909995   -3.0718020 
H     3.1224331    5.6737463    1.7359882 
H     2.7866565    4.7689082    3.2861560 
H    -1.4518352    0.3574491    4.5397148 
H     1.5362436   -0.9991608    2.1489509 
H     2.3434170   -2.1072061   -0.6070492 
H    -2.1461359    0.2901759   -2.1629943 
H    -3.6267874   -0.5496654    0.8981325 
H    -0.4550140    2.6293033    3.4313622 
H     1.4583613   -0.2039602   -4.4018135 
H     1.5588050    2.2041866   -3.3331700 
H    -3.4392057   -0.2887164    5.8802006 
H     3.4709554   -0.4626100    3.6425108 
H     4.0228717   -3.5677925   -1.7328365 
H    -3.4145310    1.8094573   -3.6948389 
H    -5.6229842   -1.1728533    2.2478783 
H     1.4478156    3.1324008    4.9620656 
H     3.1016183   -1.6920783   -5.5234434 
H     0.3006537    3.6842722   -4.8960739 
H    -5.5348095   -1.0496331    4.7471702 
H     3.4278529    1.6067738    5.0439309 
H     4.4174751   -3.3504354   -4.1953686 
H    -2.1893245    3.5062025   -5.0611392 
