101
Energy =
C    -3.2313652    0.6401830    1.1915214 
C    -3.4853903    0.6983218   -0.2174577 
C    -3.3442877   -0.4620934   -1.0118272 
H    -3.6225209    1.6709666   -0.7061879 
Pd   -1.4103213    0.0410639    0.0917000 
P     0.1734910   -0.2131866   -1.6058203 
P     0.0927630   -0.1535858    1.8714520 
H    -3.4867749   -0.2936136    1.7109945 
H    -3.3618832   -1.4272938   -0.4807487 
C    -2.8294232    4.0570552    3.7815811 
C    -3.1403244    2.7937947    4.3048707 
C    -3.2862585    1.6930135    3.4518864 
C    -3.1210565    1.8311238    2.0555000 
C    -2.8085046    3.1131016    1.5414764 
C    -2.6673934    4.2117311    2.3940343 
H    -2.7143864    4.9179487    4.4480723 
H    -3.2695757    2.6617610    5.3841729 
H    -3.5246548    0.7086057    3.8686002 
H    -2.6551009    3.2475794    0.4644692 
H    -2.4241632    5.1950154    1.9775811 
C    -3.8218064   -0.9082962   -5.2561104 
C    -3.4434576   -1.9973812   -4.4564425 
C    -3.2918546   -1.8303389   -3.0764609 
C    -3.5073349   -0.5714775   -2.4666322 
C    -3.8807425    0.5176499   -3.2870639 
C    -4.0394985    0.3470064   -4.6652666 
H    -3.9493955   -1.0360047   -6.3359983 
H    -3.2736714   -2.9801166   -4.9081466 
H    -3.0013157   -2.6842198   -2.4549205 
H    -4.0627194    1.5019604   -2.8459940 
H    -4.3352218    1.1995041   -5.2845854 
O     4.0483795   -2.4997347   -0.7246766 
O     4.6427647    0.2832289    1.1519773 
O     3.7111231   -4.5986790    0.2133916 
O     5.2448224    2.3311888    0.2376524 
C     2.2600544   -1.3290310    0.5091325 
C     2.5655124   -0.0247360   -0.1468749 
C     1.2543210   -1.5366485    1.5120834 
C     1.7708823    0.5894673   -1.1697216 
C     3.0320918   -2.4406426    0.1877975 
C     3.7278894    0.6531370    0.2051479 
C     2.8340740   -3.7067628    0.7586386 
C     4.0954953    1.8879236   -0.3502938 
C     1.0850747   -2.8034234    2.1006678 
C     2.1655274    1.8119866   -1.7437911 
C     1.8692194   -3.9186384    1.7322371 
C     3.3341606    2.4926731   -1.3391800 
C     1.1556732    1.2824947    2.2633642 
C    -0.7697603   -0.6076652    3.4295015 
C     0.6333169   -1.9139514   -2.1053898 
C    -0.3989249    0.6879420   -3.0987514 
C     4.5330796   -3.8550426   -0.7050195 
C     5.6807715    1.2801884    1.1183811 
C     0.8596158    2.5314863    1.6855668 
C    -0.5514186    0.0725635    4.6422367 
C    -0.0730280   -2.9997511   -1.5515292 
C    -0.8953481    1.9978658   -2.9063507 
C     2.2777444    1.1436675    3.1066335 
C    -1.7476147   -1.6269004    3.3769911 
C     1.7226053   -2.1542092   -2.9677703 
C    -0.3678608    0.1451628   -4.3956991 
C     1.6870905    3.6331346    1.9392406 
C    -1.2845948   -0.2768533    5.7869215 
C     0.3023071   -4.3138657   -1.8582396 
C    -1.2943357    2.7718382   -4.0026163 
C     3.0910668    2.2534488    3.3689205 
C    -2.4687131   -1.9796636    4.5241109 
C     2.0815813   -3.4706395   -3.2873096 
C    -0.7890920    0.9184188   -5.4877880 
C     2.8027181    3.4949614    2.7791679 
C    -2.2377772   -1.3029380    5.7336573 
C     1.3776551   -4.5498655   -2.7292056 
C    -1.2346892    2.2339141   -5.2976913 
H     0.3328696   -2.9388394    2.8819570 
H     1.5601933    2.2555006   -2.5381192 
H     1.7276025   -4.8976475    2.1957402 
H     3.6263962    3.4459749   -1.7853999 
H     4.4385387   -4.2912228   -1.7151009 
H     5.5821654   -3.8667786   -0.3554621 
H     5.8278872    1.6901778    2.1318333 
H     6.6122646    0.8296333    0.7252613 
H    -0.0112783    2.6283655    1.0288507 
H     0.1772104    0.8865563    4.6940710 
H    -0.8942374   -2.8053829   -0.8521689 
H    -0.9552445    2.4111265   -1.8914107 
H     2.5247501    0.1667576    3.5356604 
H    -1.9476137   -2.1415377    2.4290876 
H     2.2995244   -1.3144282   -3.3695403 
H    -0.0230204   -0.8804095   -4.5563470 
H     1.4627486    4.6000634    1.4778141 
H    -1.1110167    0.2636958    6.7230938 
H    -0.2372509   -5.1546179   -1.4106799 
H    -1.6601511    3.7919271   -3.8455604 
H     3.9583075    2.1462382    4.0292402 
H    -3.2178941   -2.7765450    4.4731675 
H     2.9221934   -3.6538606   -3.9651506 
H    -0.7672865    0.4863053   -6.4934056 
H     3.4502131    4.3561493    2.9739303 
H    -2.8071627   -1.5718523    6.6292318 
H     1.6712340   -5.5773625   -2.9682035 
H    -1.5512542    2.8351851   -6.1561605 
