101
Energy =
C    -3.1586686    0.9378916    1.4480919 
C    -3.2556050    1.3906877    0.0961546 
C    -3.4492047    0.4885145   -0.9737902 
H    -3.0351432    2.4421659   -0.1290970 
Pd   -1.5513687    0.0056833    0.2137879 
P    -0.1022422   -0.4444464   -1.5964215 
P     0.0537402   -0.4871528    1.8314350 
H    -3.7369156    0.0455253    1.7292894 
H    -3.8887495   -0.4916687   -0.7305811 
C    -2.0670174    3.5312018    4.7111086 
C    -2.9020337    2.4260685    4.9279272 
C    -3.2616972    1.5943860    3.8606638 
C    -2.7903450    1.8446387    2.5539150 
C    -1.9496250    2.9648623    2.3504467 
C    -1.5958927    3.7998704    3.4151234 
H    -1.7834850    4.1804525    5.5456958 
H    -3.2726096    2.2065900    5.9341381 
H    -3.9170099    0.7357296    4.0384447 
H    -1.5454170    3.1686116    1.3525419 
H    -0.9426775    4.6608557    3.2364599 
C    -3.7178671    1.4921806   -5.1455200 
C    -4.2895435    0.3107261   -4.6513786 
C    -4.1801399   -0.0072921   -3.2932070 
C    -3.5099207    0.8561438   -2.3975687 
C    -2.9363648    2.0426699   -2.9109070 
C    -3.0369346    2.3542540   -4.2697182 
H    -3.7980526    1.7400497   -6.2089647 
H    -4.8168394   -0.3701939   -5.3268650 
H    -4.6224945   -0.9345537   -2.9143957 
H    -2.3965400    2.7242367   -2.2478380 
H    -2.5814004    3.2749316   -4.6487487 
O     4.2154079    1.0619541   -1.0375666 
O     4.4045592   -1.8490999    0.7734145 
O     4.2211945    3.2351777   -0.2175234 
O     4.5518712   -3.9235087   -0.2609434 
C     2.3360348    0.2277428    0.3288782 
C     2.3452185   -1.0972029   -0.3577725 
C     1.4209511    0.6345874    1.3560839 
C     1.3666773   -1.5177565   -1.3201985 
C     3.2537934    1.1947973   -0.0748898 
C     3.3812815   -1.9930342   -0.1212650 
C     3.2579066    2.5074478    0.4191846 
C     3.4720222   -3.2460654   -0.7471368 
C     1.4215326    1.9610161    1.8336819 
C     1.4869352   -2.7601338   -1.9683003 
C     2.3434876    2.9258615    1.3758080 
C     2.5451224   -3.6532514   -1.6948708 
C    -0.3337474   -0.2765186    3.6174620 
C     0.7452289   -2.1930993    1.8829956 
C    -0.9621003   -1.2193365   -3.0197172 
C     0.6579741    1.1287758   -2.1721290 
C     4.9103644    2.3213135   -1.0909763 
C     5.2217097   -3.0277395    0.6447341 
C    -1.4511584   -1.0087723    4.0720303 
C     0.1453136   -3.2321817    1.1507276 
C    -0.8575857   -0.7562189   -4.3434171 
C     1.6849998    1.1181688   -3.1386950 
C     0.4647428    0.4126944    4.5490650 
C     1.8481283   -2.4667996    2.7177489 
C    -1.7588802   -2.3516128   -2.7408641 
C     0.2750321    2.3479062   -1.5807497 
C    -1.7631193   -1.0542889    5.4350018 
C     0.6624123   -4.5332448    1.2279984 
C    -1.5146409   -1.4399786   -5.3771537 
C     2.2878198    2.3206100   -3.5323186 
C     0.1327999    0.3836700    5.9123167 
C     2.3580053   -3.7680231    2.7938142 
C    -2.3981308   -3.0405357   -3.7787711 
C     0.8932630    3.5452441   -1.9623634 
C    -0.9752567   -0.3496824    6.3582852 
C     1.7704318   -4.8011829    2.0449336 
C    -2.2707826   -2.5876997   -5.1015301 
C     1.8951389    3.5339383   -2.9446876 
H     0.6738976    2.2667175    2.5700196 
H     0.7395498   -3.0549056   -2.7091770 
H     2.3318667    3.9532957    1.7469807 
H     2.6236334   -4.6213503   -2.1946092 
H     5.9502226    2.1848913   -0.7384212 
H     4.8801142    2.7111143   -2.1229942 
H     6.2085472   -2.7497501    0.2282396 
H     5.3227774   -3.5124276    1.6308713 
H    -2.0714594   -1.5549838    3.3507231 
H    -0.7135330   -3.0132463    0.5059962 
H    -0.2795710    0.1437540   -4.5705610 
H     2.0275690    0.1690907   -3.5642508 
H     1.3554526    0.9575479    4.2243255 
H     2.3120665   -1.6615719    3.2970608 
H    -1.8732650   -2.6936813   -1.7049005 
H    -0.4835952    2.3417927   -0.7897332 
H    -2.6277492   -1.6329943    5.7761879 
H     0.2020660   -5.3373369    0.6450289 
H    -1.4367532   -1.0670324   -6.4034201 
H     3.0774098    2.3070689   -4.2912268 
H     0.7556069    0.9287288    6.6292298 
H     3.2147223   -3.9782130    3.4429902 
H    -3.0027071   -3.9255277   -3.5546193 
H     0.6024107    4.4858028   -1.4836298 
H    -1.2226947   -0.3762280    7.4245047 
H     2.1750722   -5.8168461    2.1017584 
H    -2.7748008   -3.1209749   -5.9141587 
H     2.3792502    4.4697073   -3.2427617 
