101
Energy =
C    -3.1631855    1.0519535    1.3603340 
C    -3.3285642    1.2076203   -0.0505208 
C    -3.5009901    0.0934717   -0.9021085 
H    -3.1782727    2.1991556   -0.4968055 
Pd   -1.5415675   -0.0304102    0.2764243 
P    -0.1279078   -0.7740993   -1.4637628 
P     0.1424332   -0.0881021    1.8891744 
H    -3.6781491    0.2088902    1.8437545 
H    -3.8737974   -0.8359998   -0.4437226 
C    -2.1282743    4.3211409    3.9688031 
C    -1.7106024    4.3359101    2.6274839 
C    -2.0467542    3.2802389    1.7740532 
C    -2.8161946    2.1870959    2.2386935 
C    -3.2349836    2.1925331    3.5865707 
C    -2.8926587    3.2458102    4.4430984 
H    -1.8581034    5.1436041    4.6388589 
H    -1.1125654    5.1716934    2.2483861 
H    -1.6835516    3.2904206    0.7402372 
H    -3.8350647    1.3586089    3.9645405 
H    -3.2209836    3.2234134    5.4870103 
C    -3.9647413    0.1972307   -5.1750648 
C    -4.4519292   -0.8826092   -4.4244885 
C    -4.2789187   -0.9073808   -3.0362081 
C    -3.6287847    0.1539600   -2.3671390 
C    -3.1404993    1.2348004   -3.1376135 
C    -3.3040843    1.2533793   -4.5255758 
H    -4.0945985    0.2157624   -6.2620753 
H    -4.9627436   -1.7129534   -4.9220199 
H    -4.6555979   -1.7565282   -2.4563396 
H    -2.6179250    2.0637504   -2.6526376 
H    -2.9140090    2.0965562   -5.1050431 
O     4.1073577    1.0357433   -1.4212362 
O     4.5296211   -1.4139086    0.9426158 
O     4.0142386    3.3296184   -1.0688684 
O     4.7682314   -3.6485236    0.3557445 
C     2.3268490    0.4120497    0.1705394 
C     2.3926668   -1.0249525   -0.2264717 
C     1.4244732    0.9776278    1.1314912 
C     1.4105226   -1.6885528   -1.0361915 
C     3.1725169    1.3183757   -0.4647650 
C     3.4881447   -1.7958280    0.1440901 
C     3.1168007    2.7036136   -0.2529641 
C     3.6339772   -3.1456463   -0.2115906 
C     1.3640914    2.3727043    1.3248637 
C     1.5843482   -3.0311610   -1.4171472 
C     2.2123368    3.2659382    0.6370240 
C     2.7029184   -3.7905006   -1.0119067 
C    -0.1966189    0.4720644    3.6082136 
C     0.9353755   -1.7079015    2.2621627 
C    -0.9864440   -1.8722843   -2.6563738 
C     0.5188657    0.6803155   -2.3864421 
C     4.7249454    2.2893125   -1.7657136 
C     5.4116449   -2.5490406    1.0255528 
C    -1.2573597   -0.1989275    4.2530501 
C     0.3745492   -2.9063942    1.7878886 
C    -0.9571951   -1.6878096   -4.0501819 
C     1.5105023    0.5189300   -3.3762451 
C     0.5967747    1.3738284    4.3417056 
C     2.0795237   -1.7444791    3.0853891 
C    -1.7022504   -2.9627040   -2.1148534 
C     0.0867334    1.9755211   -2.0425831 
C    -1.5181852    0.0244476    5.6092373 
C     0.9704251   -4.1343930    2.1090951 
C    -1.6072768   -2.6040000   -4.8903777 
C     2.0285916    1.6409996   -4.0371050 
C     0.3150633    1.6125907    5.6956114 
C     2.6681864   -2.9732095    3.4057114 
C    -2.3345577   -3.8836753   -2.9589331 
C     0.6205262    3.0958709   -2.6916504 
C    -0.7363423    0.9386842    6.3320328 
C     2.1188782   -4.1686924    2.9133004 
C    -2.2817987   -3.7080050   -4.3508368 
C     1.5866323    2.9292971   -3.6955763 
H     0.6253263    2.7872777    2.0156585 
H     0.8321594   -3.5136417   -2.0463949 
H     2.1533594    4.3462308    0.7886683 
H     2.8235828   -4.8364160   -1.3027726 
H     5.7827010    2.2817787   -1.4412558 
H     4.6359930    2.4530990   -2.8535268 
H     6.3661623   -2.3135297    0.5175853 
H     5.5731993   -2.8101160    2.0854851 
H    -1.8730971   -0.9089165    3.6873217 
H    -0.5163218   -2.8710138    1.1505563 
H    -0.4441687   -0.8248616   -4.4834669 
H     1.8921691   -0.4800316   -3.6121840 
H     1.4456820    1.8781956    3.8719856 
H     2.5136603   -0.8134527    3.4647048 
H    -1.7585139   -3.0890073   -1.0267289 
H    -0.6416086    2.0971774   -1.2325497 
H    -2.3386694   -0.5087246    6.1005687 
H     0.5398363   -5.0649532    1.7258269 
H    -1.5887549   -2.4474304   -5.9736892 
H     2.7908494    1.5084716   -4.8123691 
H     0.9331106    2.3210670    6.2568839 
H     3.5568969   -2.9989987    4.0453731 
H    -2.8757013   -4.7336694   -2.5304406 
H     0.2924143    4.1000798   -2.4047582 
H    -0.9440945    1.1218237    7.3913090 
H     2.5850932   -5.1279258    3.1602739 
H    -2.7806828   -4.4233110   -5.0128076 
H     2.0047029    3.8049380   -4.2028606 
