101
Energy =
C    -3.4069048   -0.0284950    1.1837871 
C    -3.4860248    0.8694058    0.0961259 
C    -3.2190960    0.4473697   -1.2400640 
H    -3.5939543    1.9412282    0.3074977 
Pd   -1.4279384    0.0490127    0.0326699 
P     0.0458307   -0.4728835   -1.7142989 
P     0.2132470   -0.0920430    1.7006808 
H    -3.4291581   -1.1068217    0.9571009 
H    -3.4767437   -0.5875920   -1.5040589 
C    -4.1799776    0.9321112    5.2986185 
C    -4.6501373    1.7826972    4.2863826 
C    -4.3970739    1.4853535    2.9428641 
C    -3.6769771    0.3220275    2.5864999 
C    -3.2264396   -0.5354156    3.6166522 
C    -3.4670029   -0.2288007    4.9586037 
H    -4.3741758    1.1689096    6.3496703 
H    -5.2231616    2.6791361    4.5451128 
H    -4.7910204    2.1457664    2.1635496 
H    -2.6596884   -1.4364196    3.3551153 
H    -3.0947014   -0.8942167    5.7438022 
C    -2.9092010    3.1045508   -4.6150127 
C    -2.6598178    3.5910914   -3.3202555 
C    -2.7610185    2.7394891   -2.2167965 
C    -3.1160305    1.3791366   -2.3803599 
C    -3.3658586    0.9058517   -3.6872942 
C    -3.2641470    1.7598844   -4.7923784 
H    -2.8268416    3.7725690   -5.4785037 
H    -2.3794592    4.6394768   -3.1737132 
H    -2.5440765    3.1308320   -1.2163538 
H    -3.6390248   -0.1446540   -3.8336321 
H    -3.4610360    1.3700461   -5.7964256 
O     4.5932542    0.3941114   -1.2413949 
O     4.3443229   -2.1841896    0.8371620 
O     5.0189718    2.5892939   -0.6128342 
O     4.1288820   -4.3965063    0.1717913 
C     2.5718933    0.0728680    0.1395309 
C     2.3656527   -1.3163600   -0.3591978 
C     1.7433942    0.7401003    1.1016664 
C     1.3086885   -1.7247483   -1.2376464 
C     3.6624724    0.8016579   -0.3262781 
C     3.2689341   -2.3112755    0.0006472 
C     3.9231432    2.1256321    0.0561005 
C     3.1418627   -3.6486256   -0.4034083 
C     2.0287079    2.0602247    1.4974721 
C     1.2084121   -3.0623629   -1.6628353 
C     3.1218708    2.7852574    0.9765494 
C     2.1182698   -4.0571262   -1.2455064 
C    -0.2147618    0.7997197    3.2489734 
C     0.7462209   -1.7726417    2.2030819 
C    -0.8436164   -1.2342205   -3.1314747 
C     1.0251626    0.9244564   -2.3796945 
C     5.5240778    1.4831838   -1.3822362 
C     5.0005316   -3.4654332    0.8367492 
C     0.1773208    0.3563558    4.5270598 
C     1.9536940   -1.9797687    2.9027175 
C    -0.6631484   -0.8166205   -4.4627508 
C     0.7318547    2.2333209   -1.9535947 
C    -0.9706640    1.9855414    3.1305049 
C    -0.0573612   -2.8764633    1.8575339 
C    -1.7772295   -2.2567429   -2.8487319 
C     2.0994191    0.6973588   -3.2651582 
C    -0.1610011    1.1039859    5.6633126 
C     2.3379346   -3.2772832    3.2641283 
C    -1.3882566   -1.4299355   -5.4962149 
C     1.5065265    3.3085036   -2.4071655 
C    -1.2988866    2.7329029    4.2674836 
C     0.3399289   -4.1740749    2.2082536 
C    -2.4930810   -2.8708995   -3.8837138 
C     2.8589881    1.7789728   -3.7291752 
C    -0.8927086    2.2934041    5.5363124 
C     1.5359942   -4.3750342    2.9136064 
C    -2.2976565   -2.4578779   -5.2124391 
C     2.5686580    3.0828878   -3.2959375 
H     1.3926793    2.5467313    2.2419472 
H     0.4114161   -3.3512250   -2.3521538 
H     3.3296381    3.8121658    1.2856624 
H     2.0244950   -5.0949828   -1.5730835 
H     6.5116182    1.1776069   -0.9875196 
H     5.5868028    1.7756066   -2.4445619 
H     5.9560909   -3.3904643    0.2817938 
H     5.1633243   -3.7946321    1.8762934 
H     0.7365583   -0.5762198    4.6424246 
H     2.6066997   -1.1314099    3.1330758 
H     0.0269953   -0.0013292   -4.6965738 
H    -0.0879712    2.3971952   -1.2468355 
H    -1.3100106    2.3142235    2.1404862 
H    -0.9811659   -2.7137785    1.2897037 
H    -1.9424362   -2.5706298   -1.8104333 
H     2.3546227   -0.3234103   -3.5690823 
H     0.1462233    0.7509946    6.6532050 
H     3.2735162   -3.4325223    3.8118100 
H    -1.2450487   -1.0924470   -6.5278410 
H     1.2851113    4.3230644   -2.0611484 
H    -1.8904293    3.6477468    4.1646505 
H    -0.2806854   -5.0299849    1.9242663 
H    -3.2081165   -3.6676039   -3.6539068 
H     3.6882569    1.6009470   -4.4221506 
H    -1.1585528    2.8720514    6.4268386 
H     1.8474779   -5.3891462    3.1840505 
H    -2.8612112   -2.9326862   -6.0220891 
H     3.1750382    3.9239858   -3.6476637 
