96
Energy =
C    -1.0704346   -2.0326372    2.2187029 
C     0.3134914   -2.3540715    2.1516451 
C     1.3177401   -1.4277454    2.5256876 
H     0.6050105   -3.2911964    1.6611358 
Pd   -0.0029762   -0.5973546    0.8590845 
P    -1.8273165    0.0142668   -0.4785743 
P     1.5863560    0.7464702   -0.2189228 
H    -1.3862452   -1.2904108    2.9677241 
H     1.0271428   -0.6247235    3.2196354 
C    -4.1148911   -4.8355793    1.0427764 
C    -2.9156050   -4.7652090    0.3146376 
C    -1.9294990   -3.8409787    0.6731792 
C    -2.1203716   -2.9693870    1.7705016 
C    -3.3411520   -3.0320119    2.4753309 
C    -4.3254661   -3.9620156    2.1192327 
H    -4.8854558   -5.5616596    0.7639824 
H    -2.7514328   -5.4315329   -0.5386941 
H    -1.0070195   -3.7812516    0.0850256 
H    -3.5123808   -2.3526406    3.3168391 
H    -5.2632068   -4.0000647    2.6825958 
C     5.5661912   -2.1097354    2.3730587 
C     4.6929081   -3.0326637    1.7741089 
C     3.3113647   -2.8168766    1.7980901 
C     2.7669179   -1.6820454    2.4452454 
C     3.6588272   -0.7685925    3.0553490 
C     5.0425920   -0.9739193    3.0112281 
H     6.6476698   -2.2782972    2.3476103 
H     5.0922787   -3.9219351    1.2759555 
H     2.6542423   -3.5401109    1.3055420 
H     3.2594400    0.1132896    3.5652177 
H     5.7130636   -0.2498653    3.4851421 
O    -1.7778535    4.1028402    0.0503116 
O    -0.2576486    4.0880298   -1.6718433 
C    -1.1648282    2.8170137    0.0065363 
C     0.1708994    3.1374935   -0.6974211 
C    -1.2195396    4.9277508   -1.0124618 
C    -2.0769923    1.8514926   -0.7746516 
C     0.9153786    2.0148776   -1.4082403 
C    -2.3030139    5.2941618   -2.0189633 
C    -0.5474750    6.1397371   -0.3665412 
C    -1.6434410   -0.7239758   -2.1487057 
C    -3.4995242   -0.4876579    0.0904116 
C     2.7537149   -0.2113930   -1.2537744 
C     2.5929781    1.7738954    0.9213811 
C    -2.4556543   -0.3126873   -3.2284549 
C    -4.0386728    0.1651083    1.2202999 
C     2.4427387   -0.4844392   -2.6043310 
C     3.8616708    2.2717616    0.5616414 
C    -0.6915683   -1.7433769   -2.3495095 
C    -4.2472690   -1.4884186   -0.5565345 
C     3.9297160   -0.7527653   -0.6924225 
C     2.0283340    2.1442327    2.1591606 
C    -2.3051595   -0.9086669   -4.4869534 
C    -5.3272979   -0.1509034    1.6677828 
C     3.2976177   -1.2805240   -3.3771674 
C     4.5609643    3.1080071    1.4429195 
C    -0.5456034   -2.3395153   -3.6106176 
C    -5.5352968   -1.8031865   -0.0990326 
C     4.7813435   -1.5442579   -1.4749188 
C     2.7233843    2.9936976    3.0303819 
C    -1.3505550   -1.9214925   -4.6796392 
C    -6.0812123   -1.1307118    1.0026699 
C     4.4685687   -1.8125833   -2.8151667 
C     3.9951661    3.4692697    2.6757183 
H    -1.0203077    2.4701316    1.0468218 
H     0.8456196    3.6190674    0.0394909 
H    -1.9754715    2.0511180   -1.8553553 
H    -3.1167462    2.0832765   -0.4946482 
H     1.7657972    2.4427090   -1.9670635 
H     0.2554524    1.5074001   -2.1336624 
H    -2.7612606    4.3788883   -2.4256797 
H    -1.8685576    5.8762236   -2.8480193 
H    -3.0824987    5.8982126   -1.5278964 
H    -1.2865134    6.7075110    0.2215983 
H    -0.1215345    6.7970836   -1.1419653 
H     0.2582601    5.8155255    0.3124088 
H    -3.2149612    0.4640244   -3.0861822 
H    -3.4574817    0.9317776    1.7475831 
H     1.5343871   -0.0833872   -3.0624134 
H     4.3074245    2.0021216   -0.4015527 
H    -0.0521101   -2.0557661   -1.5149668 
H    -3.8307363   -2.0197673   -1.4171084 
H     4.1912656   -0.5453713    0.3488233 
H     1.0396114    1.7606960    2.4389024 
H    -2.9372182   -0.5843140   -5.3199728 
H    -5.7441557    0.3705136    2.5356771 
H     3.0480971   -1.4799451   -4.4245494 
H     5.5506026    3.4831350    1.1625567 
H     0.2045310   -3.1235572   -3.7562070 
H    -6.1110220   -2.5822647   -0.6086007 
H     5.6929687   -1.9516799   -1.0263399 
H     2.2753474    3.2788011    3.9878029 
H    -1.2366405   -2.3837293   -5.6656475 
H    -7.0900456   -1.3753838    1.3503766 
H     5.1375536   -2.4304323   -3.4230175 
H     4.5446900    4.1250529    3.3588694 
