96
Energy =
C    -0.9271588   -2.1938802    2.3902202 
C     0.4563652   -2.4349968    2.2092044 
C     1.4267951   -1.4771092    2.6226287 
H     0.7872942   -3.3044090    1.6256361 
Pd    0.0599615   -0.5700580    1.1103927 
P     1.5140498    1.1452344    0.4496277 
P    -1.7420916   -0.1014829   -0.3173821 
H    -1.2041203   -1.4590492    3.1621413 
H     1.1667990   -0.8302667    3.4747367 
C    -4.1680555   -4.8214725    1.3514146 
C    -4.3417329   -3.8013519    2.2974238 
C    -3.2785700   -2.9481037    2.6121713 
C    -2.0159111   -3.1019289    1.9962624 
C    -1.8530693   -4.1433441    1.0527692 
C    -2.9184678   -4.9886629    0.7306173 
H    -4.9994026   -5.4879405    1.0997782 
H    -5.3098461   -3.6640867    2.7887798 
H    -3.4227901   -2.1494980    3.3469012 
H    -0.8844124   -4.3022421    0.5685468 
H    -2.7739004   -5.7877098   -0.0038505 
C     5.6444931   -2.0542473    1.9969230 
C     4.7395698   -2.3503035    0.9633562 
C     3.3675518   -2.1597542    1.1565382 
C     2.8740662   -1.6607055    2.3836569 
C     3.7942565   -1.3474456    3.4053001 
C     5.1668113   -1.5537481    3.2167003 
H     6.7183098   -2.2069439    1.8472228 
H     5.1065090   -2.7261287    0.0025415 
H     2.6682562   -2.3725478    0.3397974 
H     3.4288814   -0.9392566    4.3535339 
H     5.8666458   -1.3112112    4.0228376 
O    -0.5594625    4.3304040   -1.1353660 
O    -1.4228547    3.0506482   -2.8366737 
C     0.1682896    3.1036027   -1.1822673 
C    -0.8547819    2.1728778   -1.8648312 
C    -1.2789214    4.4235699   -2.3756128 
C     0.6669771    2.8052505    0.2286228 
C    -1.9699374    1.6342897   -0.9440942 
C    -2.6456983    5.0328745   -2.0865335 
C    -0.4734507    5.1879533   -3.4259293 
C     2.3840006    0.8567501   -1.1366170 
C     2.8075099    1.5604460    1.6853851 
C    -3.4128712   -0.4144286    0.3770820 
C    -1.6313429   -1.1114492   -1.8486093 
C     3.2906191    1.8040772   -1.6633272 
C     2.3822223    2.0833528    2.9263283 
C    -3.7724380    0.2702577    1.5574020 
C    -2.2443859   -0.7232737   -3.0589683 
C     2.0931715   -0.3066738   -1.8737306 
C     4.1793840    1.3478764    1.4565948 
C    -4.3421393   -1.2694102   -0.2431589 
C    -0.9091207   -2.3211678   -1.8024261 
C     3.8918981    1.5802808   -2.9083116 
C     3.3215247    2.4206645    3.9085394 
C    -5.0596833    0.1265292    2.0901963 
C    -2.1317340   -1.5361404   -4.1957354 
C     2.6924240   -0.5243204   -3.1223489 
C     5.1148687    1.6917042    2.4438680 
C    -5.6263750   -1.4164168    0.3014618 
C    -0.8038957   -3.1349460   -2.9376148 
C     3.5925279    0.4181518   -3.6392701 
C     4.6918561    2.2330270    3.6648775 
C    -5.9903034   -0.7146933    1.4592274 
C    -1.4154740   -2.7415631   -4.1376601 
H     1.0375308    3.1950440   -1.8636115 
H    -0.3591947    1.3516842   -2.4117982 
H    -0.1717652    2.8489840    0.9441566 
H     1.3827397    3.5929797    0.5172986 
H    -2.9152220    1.6436648   -1.5127721 
H    -2.1282700    2.2940251   -0.0733167 
H    -3.1736374    4.4251699   -1.3346442 
H    -3.2456320    5.0656931   -3.0100056 
H    -2.5299369    6.0582317   -1.6989513 
H    -0.3490860    6.2395125   -3.1201650 
H    -0.9950315    5.1537247   -4.3961392 
H     0.5207081    4.7285839   -3.5519998 
H     3.5285608    2.7141454   -1.1013599 
H     1.3141450    2.2321504    3.1267156 
H    -3.0448076    0.9196242    2.0604655 
H    -2.8037181    0.2147065   -3.1300520 
H     1.3802131   -1.0340290   -1.4729394 
H     4.5225846    0.8992769    0.5201269 
H    -4.0651655   -1.8243769   -1.1447945 
H    -0.4224782   -2.6148975   -0.8662316 
H     4.5939063    2.3170509   -3.3120950 
H     2.9837922    2.8348128    4.8642335 
H    -5.3363791    0.6693173    3.0000584 
H    -2.6056768   -1.2235524   -5.1317658 
H     2.4488591   -1.4282335   -3.6899103 
H     6.1796054    1.5204402    2.2567146 
H    -6.3432428   -2.0874207   -0.1826363 
H    -0.2424279   -4.0736791   -2.8859997 
H     4.0617508    0.2514107   -4.6143578 
H     5.4261942    2.5008648    4.4314274 
H    -6.9962705   -0.8281078    1.8761988 
H    -1.3321377   -3.3722547   -5.0287767 
