96
Energy =
C     1.9801260   -2.6685315    0.0073840 
C     0.7391779   -3.1933483    0.4686943 
C    -0.3733545   -3.3258567   -0.3964221 
H     0.6140951   -3.3705264    1.5449677 
Pd    0.3676817   -1.1512442   -0.2728996 
P    -1.6890904   -0.0642719   -0.5782491 
P     1.7820059    0.7147170   -0.3123235 
H     2.2298950   -2.8170431   -1.0545439 
H    -0.1639311   -3.3623153   -1.4766003 
C     5.3573541   -2.1806204    2.6280134 
C     5.5263471   -2.7014505    1.3369177 
C     4.4261421   -2.8335331    0.4801835 
C     3.1338782   -2.4671651    0.9096971 
C     2.9767578   -1.9354459    2.2100740 
C     4.0783348   -1.7902602    3.0595868 
H     6.2191041   -2.0707663    3.2944303 
H     6.5215757   -2.9972316    0.9898071 
H     4.5666831   -3.2267564   -0.5321577 
H     1.9854034   -1.6087259    2.5441265 
H     3.9414022   -1.3669093    4.0601237 
C    -4.2404425   -4.9090037    0.6246059 
C    -3.3664547   -4.5056892    1.6487344 
C    -2.1070182   -3.9870273    1.3365740 
C    -1.6942025   -3.8482549   -0.0101481 
C    -2.5821623   -4.2658148   -1.0270872 
C    -3.8398627   -4.7930440   -0.7137902 
H    -5.2250628   -5.3183013    0.8727867 
H    -3.6679171   -4.6039137    2.6967221 
H    -1.4367203   -3.6969256    2.1523495 
H    -2.2797671   -4.1719336   -2.0748914 
H    -4.5094733   -5.1094615   -1.5195074 
O    -1.7052650    3.9655667   -0.9066862 
O     0.0860854    3.8723201   -2.3417125 
C    -1.0114699    2.7408329   -0.6714647 
C     0.3983785    3.0877762   -1.1911120 
C    -1.0435018    4.6851519   -1.9848887 
C    -1.7209970    1.5929354   -1.4199124 
C     1.3539068    1.9817731   -1.6290536 
C    -1.9601561    4.7822658   -3.1985562 
C    -0.5983447    6.0418051   -1.4389445 
C    -2.5195404    0.2452290    1.0307266 
C    -2.8972372   -0.9748449   -1.6182329 
C     3.5324315    0.3475777   -0.7283311 
C     1.8020638    1.6670897    1.2531409 
C    -3.4554582    1.2847632    1.2181288 
C    -2.4833837   -1.3697898   -2.9082216 
C     3.8044759   -0.1509538   -2.0212183 
C     2.6063314    2.8186360    1.4069540 
C    -2.2025825   -0.5973757    2.1154579 
C    -4.2095075   -1.2492417   -1.1924533 
C     4.5882760    0.5136402    0.1866458 
C     0.9450214    1.2769448    2.3000287 
C    -4.0591373    1.4685226    2.4702265 
C    -3.3829306   -2.0076703   -3.7716928 
C     5.1198446   -0.4441500   -2.4016705 
C     2.5483898    3.5594023    2.5942027 
C    -2.8130211   -0.4162744    3.3628771 
C    -5.1029648   -1.8967527   -2.0587716 
C     5.9037088    0.2201816   -0.2024001 
C     0.8849987    2.0249688    3.4842396 
C    -3.7425240    0.6195547    3.5418254 
C    -4.6960235   -2.2700751   -3.3474707 
C     6.1738429   -0.2504788   -1.4941493 
C     1.6874704    3.1650796    3.6322397 
H    -1.0125176    2.5649080    0.4187412 
H     0.8920884    3.7115441   -0.4193962 
H    -1.3214990    1.4657569   -2.4412171 
H    -2.7832843    1.8660673   -1.5384329 
H     2.2938662    2.4494237   -1.9664287 
H     0.9337795    1.4372763   -2.4919010 
H    -2.2504494    3.7720869   -3.5282371 
H    -1.4410240    5.2922593   -4.0263819 
H    -2.8667568    5.3525087   -2.9401852 
H    -1.4730945    6.6044221   -1.0744589 
H    -0.0979020    6.6249501   -2.2290319 
H     0.0985752    5.9033708   -0.5960694 
H    -3.7132358    1.9641749    0.3999130 
H    -1.4540728   -1.1785726   -3.2374029 
H     2.9879101   -0.3074429   -2.7366798 
H     3.2781301    3.1360281    0.6016029 
H    -1.4681895   -1.3964381    1.9722216 
H    -4.5324820   -0.9672548   -0.1854948 
H     4.3899977    0.8537716    1.2067968 
H     0.3106544    0.3929052    2.1760205 
H    -4.7795234    2.2813478    2.6076770 
H    -3.0592285   -2.3033718   -4.7750641 
H     5.3229914   -0.8204760   -3.4096476 
H     3.1743381    4.4503267    2.7088224 
H    -2.5614584   -1.0823164    4.1948628 
H    -6.1211183   -2.1136104   -1.7198203 
H     6.7175181    0.3497482    0.5179878 
H     0.2063066    1.7166263    4.2860746 
H    -4.2184392    0.7679358    4.5166429 
H    -5.3988425   -2.7708675   -4.0212839 
H     7.2025703   -0.4761926   -1.7930013 
H     1.6427063    3.7513484    4.5558630 
