96
Energy =
C    -0.4933062   -2.7341650    1.5060767 
C     0.8333508   -2.8648087    1.0309827 
C     1.8758019   -2.0300540    1.5259089 
H     1.0331073   -3.5267982    0.1803360 
Pd    0.2536535   -0.7778025    0.5815689 
P     1.3897088    1.2566072    0.6309164 
P    -1.7936652   -0.0850903   -0.3122361 
H    -0.6157418   -2.2485362    2.4862816 
H     1.7506837   -1.6163649    2.5378961 
C    -3.8870854   -5.1287958    0.4154104 
C    -3.9450460   -4.2613228    1.5156713 
C    -2.8374345   -3.4702443    1.8412753 
C    -1.6492831   -3.5324170    1.0761088 
C    -1.6161233   -4.3932737   -0.0460323 
C    -2.7207253   -5.1859781   -0.3662586 
H    -4.7482906   -5.7555662    0.1622139 
H    -4.8512987   -4.2068463    2.1275120 
H    -2.8833856   -2.8027476    2.7085615 
H    -0.7213446   -4.4473739   -0.6732239 
H    -2.6757948   -5.8504619   -1.2346274 
C     5.9616973   -2.0755173    0.1659617 
C     4.9678569   -2.7057563   -0.6013295 
C     3.6360984   -2.6981200   -0.1761525 
C     3.2666849   -2.0708077    1.0372417 
C     4.2823127   -1.4623789    1.8087717 
C     5.6129913   -1.4555846    1.3746721 
H     7.0022706   -2.0755651   -0.1738383 
H     5.2336806   -3.2005808   -1.5413867 
H     2.8753861   -3.1746233   -0.8036349 
H     4.0180276   -1.0016069    2.7660326 
H     6.3826787   -0.9747242    1.9872369 
O    -0.2896768    3.9582692   -1.9198476 
O    -0.7894721    2.3319170   -3.4628552 
C     0.3699355    2.7578459   -1.5225805 
C    -0.5037561    1.6919061   -2.2221183 
C    -0.6767934    3.7725921   -3.2909275 
C     0.4745649    2.7489189   -0.0027426 
C    -1.8223771    1.3779870   -1.4860770 
C    -2.0336254    4.4353801   -3.4958777 
C     0.4050752    4.2790969   -4.2449425 
C     3.0087306    1.4094801   -0.2027788 
C     1.6207241    1.6456091    2.4093765 
C    -3.0608061    0.3634982    0.9342319 
C    -2.5111279   -1.4008397   -1.3754416 
C     3.8647581    2.5081817    0.0302648 
C     0.4712487    1.9247010    3.1826428 
C    -4.2940633    0.9377021    0.5535448 
C    -1.6984116   -1.8927669   -2.4206732 
C     3.3528502    0.4502409   -1.1735750 
C     2.8780039    1.5758816    3.0424949 
C    -2.7875765    0.1640060    2.3022180 
C    -3.8174801   -1.8985087   -1.2198968 
C     5.0596086    2.6255936   -0.6906125 
C     0.5831218    2.1409650    4.5616008 
C    -5.2358846    1.2915754    1.5285635 
C    -2.2041527   -2.8356863   -3.3239375 
C     4.5489810    0.5740709   -1.8933331 
C     2.9816113    1.7892079    4.4254297 
C    -3.7311049    0.5226507    3.2754948 
C    -4.3135143   -2.8510907   -2.1218846 
C     5.4035985    1.6581364   -1.6493668 
C     1.8383412    2.0710282    5.1869484 
C    -4.9568854    1.0839291    2.8890287 
C    -3.5166187   -3.3115174   -3.1792263 
H     1.3887196    2.7112554   -1.9601624 
H     0.0650889    0.7695999   -2.4396423 
H    -0.5246066    2.7782586    0.4641726 
H     1.0219677    3.6498915    0.3244164 
H    -2.5833059    1.1546447   -2.2518614 
H    -2.1625611    2.2676484   -0.9281512 
H    -2.7656765    4.0116691   -2.7902366 
H    -2.3841690    4.2626278   -4.5259206 
H    -1.9558575    5.5209296   -3.3214139 
H     0.5122880    5.3722224   -4.1531011 
H     0.1348768    4.0291228   -5.2836580 
H     1.3718515    3.8019543   -4.0149573 
H     3.6007985    3.2698908    0.7722630 
H    -0.5167522    1.9713154    2.7111093 
H    -4.5231388    1.1058966   -0.5042200 
H    -0.6669772   -1.5356894   -2.5284559 
H     2.6803230   -0.3941307   -1.3577287 
H     3.7762828    1.3611857    2.4565959 
H    -1.8248389   -0.2641622    2.6016889 
H    -4.4466653   -1.5546410   -0.3940359 
H     5.7235597    3.4764554   -0.5062685 
H    -0.3133102    2.3654228    5.1490753 
H    -6.1904378    1.7338251    1.2253706 
H    -1.5719606   -3.2011105   -4.1398227 
H     4.8144114   -0.1815119   -2.6390063 
H     3.9636494    1.7388764    4.9072127 
H    -3.5065483    0.3657110    4.3356946 
H    -5.3289921   -3.2380670   -1.9899871 
H     6.3397952    1.7539385   -2.2089825 
H     1.9245599    2.2393004    6.2652450 
H    -5.6948073    1.3649725    3.6474459 
H    -3.9128594   -4.0499586   -3.8837392 
