96
Energy =
C    -1.0903705   -2.0820339    2.1501377 
C     0.3118519   -2.2540919    2.2533538 
C     1.1680827   -1.2134562    2.7086868 
H     0.7723750   -3.1582283    1.8361259 
Pd    0.0335773   -0.5460232    0.8890927 
P    -1.5445587   -0.2638356   -0.8207839 
P     1.5500531    1.0725392    0.1314012 
H    -1.5488365   -1.3012768    2.7754220 
H     0.7461823   -0.4723058    3.4045468 
C    -3.8980581   -5.0295767    0.7471433 
C    -4.3432207   -3.8385142    1.3426308 
C    -3.4177222   -2.8922800    1.7976290 
C    -2.0265651   -3.1039791    1.6493221 
C    -1.5946803   -4.3057324    1.0390214 
C    -2.5197823   -5.2605731    0.6052975 
H    -4.6200625   -5.7764113    0.4013271 
H    -5.4147778   -3.6492405    1.4623594 
H    -3.7740363   -1.9723252    2.2709014 
H    -0.5272920   -4.5009126    0.8979189 
H    -2.1635972   -6.1875076    0.1444289 
C     5.4308538   -1.7357248    2.9669468 
C     4.7452876   -0.9749238    3.9247474 
C     3.3622221   -0.7848150    3.8160334 
C     2.6363777   -1.3663747    2.7550165 
C     3.3428127   -2.1139507    1.7843059 
C     4.7249408   -2.2976392    1.8902151 
H     6.5126035   -1.8819955    3.0512720 
H     5.2899791   -0.5214333    4.7589105 
H     2.8335367   -0.1886747    4.5671295 
H     2.8061474   -2.5394503    0.9291175 
H     5.2560373   -2.8774317    1.1280778 
O    -1.4793816    3.6250962   -2.0647560 
O    -0.9113716    4.3767941    0.0302035 
C    -1.6148864    2.5349803   -1.1539557 
C    -0.6583323    2.9754733   -0.0253542 
C    -1.4309739    4.8135959   -1.2585767 
C    -1.3240216    1.2393740   -1.8999198 
C     0.8338113    2.7448707   -0.3336652 
C    -0.4644371    5.7940225   -1.9108589 
C    -2.8296380    5.3888720   -1.0336855 
C    -1.5462982   -1.6407859   -2.0271160 
C    -3.2690316   -0.0659814   -0.2234560 
C     2.3950005    0.4710619   -1.3824874 
C     2.8980478    1.5668316    1.2761997 
C    -0.6973671   -1.5950867   -3.1551515 
C    -3.4708332    0.4844673    1.0590221 
C     3.1702972    1.3370290   -2.1849657 
C     4.2415489    1.2102135    1.0596996 
C    -2.3294879   -2.7921271   -1.7980353 
C    -4.3838052   -0.3610908   -1.0339718 
C     2.2905495   -0.8891176   -1.7352601 
C     2.5539978    2.3324288    2.4114883 
C    -0.6395720   -2.6809343   -4.0380984 
C    -4.7676177    0.7294803    1.5302037 
C     3.8192789    0.8450070   -3.3244406 
C     5.2323361    1.6480098    1.9508341 
C    -2.2685851   -3.8716348   -2.6896450 
C    -5.6799903   -0.1299980   -0.5527097 
C     2.9435458   -1.3784365   -2.8760124 
C     3.5493999    2.7702254    3.2935748 
C    -1.4243292   -3.8216617   -3.8081544 
C    -5.8741253    0.4135934    0.7268065 
C     3.7065787   -0.5119261   -3.6712682 
C     4.8923606    2.4348956    3.0594980 
H    -2.6448337    2.5017924   -0.7439800 
H    -0.9318532    2.5382281    0.9532089 
H    -0.2944731    1.2422895   -2.2988752 
H    -2.0175167    1.1508424   -2.7542028 
H     1.4052905    3.5046326    0.2225896 
H     1.0141477    2.9196217   -1.4084269 
H     0.5262653    5.3255259   -2.0204216 
H    -0.3678310    6.6967943   -1.2869722 
H    -0.8352107    6.0853309   -2.9071105 
H    -3.2535732    5.7432306   -1.9873543 
H    -2.7772823    6.2324226   -0.3265029 
H    -3.4962208    4.6216398   -0.6067569 
H    -0.0742794   -0.7184096   -3.3523066 
H    -2.6045963    0.7191938    1.6897491 
H     3.2790198    2.3932119   -1.9151227 
H     4.5181666    0.5956564    0.1981058 
H    -2.9993143   -2.8424188   -0.9352164 
H    -4.2422232   -0.7777646   -2.0366435 
H     1.6791934   -1.5603379   -1.1197647 
H     1.5074358    2.5995949    2.6037288 
H     0.0187395   -2.6306174   -4.9116703 
H    -4.9142184    1.1602681    2.5259670 
H     4.4179965    1.5217228   -3.9427031 
H     6.2753834    1.3664697    1.7751674 
H    -2.8875522   -4.7546915   -2.5014733 
H    -6.5421982   -0.3710701   -1.1829577 
H     2.8461724   -2.4351839   -3.1450282 
H     3.2761677    3.3764226    4.1635105 
H    -1.3810140   -4.6668798   -4.5027478 
H    -6.8887062    0.5946506    1.0963179 
H     4.2158346   -0.8913695   -4.5632036 
H     5.6710552    2.7798387    3.7473750 
