96
Energy =
C    -0.4378103   -1.5632580    2.7436548 
C     0.6695191   -2.2488470    2.1866677 
C     1.9247435   -1.6127193    1.9794359 
H     0.5216345   -3.2519119    1.7676147 
Pd    0.3100555   -0.5357312    0.8481252 
P    -1.7269226    0.3470217    0.0955676 
P     1.6467731    0.4166632   -0.8252937 
H    -0.2230686   -0.6802975    3.3640405 
H     2.1921353   -0.7800541    2.6479052 
C    -4.3541513   -3.2226230    3.4136287 
C    -3.4121783   -3.9465107    2.6641689 
C    -2.1419373   -3.4141993    2.4217587 
C    -1.7736770   -2.1519138    2.9453676 
C    -2.7290001   -1.4411436    3.7096728 
C    -4.0075686   -1.9649895    3.9328394 
H    -5.3498509   -3.6393666    3.5966922 
H    -3.6729416   -4.9287732    2.2571898 
H    -1.4341015   -3.9893781    1.8171136 
H    -2.4643704   -0.4653936    4.1280841 
H    -4.7317431   -1.3934003    4.5221112 
C     5.2653726   -3.6924474    0.2402535 
C     3.9665398   -3.9451627   -0.2314656 
C     2.8764860   -3.2567670    0.3097689 
C     3.0615592   -2.3031218    1.3377645 
C     4.3745439   -2.0394761    1.7823716 
C     5.4648556   -2.7335272    1.2436822 
H     6.1183719   -4.2339127   -0.1814604 
H     3.8046868   -4.6794871   -1.0275216 
H     1.8707481   -3.4482024   -0.0804019 
H     4.5377788   -1.2921794    2.5659437 
H     6.4751880   -2.5198927    1.6065855 
O    -1.0360764    3.9538810   -1.6909282 
O     0.7320306    4.4023100   -0.2947127 
C    -1.0369871    2.9769033   -0.6508367 
C     0.4441769    3.0085797   -0.2180471 
C    -0.1947832    5.0241303   -1.2307424 
C    -1.6135502    1.6796396   -1.2025074 
C     1.3961297    2.2466851   -1.1603676 
C     0.5625098    5.5847231   -2.4279920 
C    -1.0017903    6.0757029   -0.4686980 
C    -2.8045956   -0.9048613   -0.6933522 
C    -2.7163536    1.1640178    1.4080902 
C     1.3168082   -0.4214671   -2.4246453 
C     3.4685208    0.3363940   -0.6085484 
C    -2.6960439   -1.1595091   -2.0785194 
C    -4.1125488    1.3277373    1.3052058 
C     1.7644558    0.1229931   -3.6484015 
C     4.0568248    1.1528232    0.3817553 
C    -3.6903325   -1.6804986    0.0845404 
C    -2.0321055    1.7216591    2.5076869 
C     0.6316226   -1.6527926   -2.4262422 
C     4.2825058   -0.5042130   -1.3897314 
C    -3.4652440   -2.1685950   -2.6717615 
C    -4.8116779    2.0193121    2.3041863 
C     1.5168244   -0.5527595   -4.8499867 
C     5.4462707    1.1586112    0.5552381 
C    -4.4594760   -2.6846428   -0.5188562 
C    -2.7322349    2.4269197    3.4956452 
C     0.3892524   -2.3286064   -3.6310324 
C     5.6729684   -0.4971527   -1.2059327 
C    -4.3486207   -2.9336018   -1.8943317 
C    -4.1250905    2.5686222    3.3983343 
C     0.8295587   -1.7782109   -4.8429338 
C     6.2575979    0.3389129   -0.2450776 
H    -1.6559764    3.3230718    0.2018570 
H     0.5839314    2.6862135    0.8307511 
H    -1.0007282    1.3067121   -2.0419453 
H    -2.6309787    1.8704424   -1.5857708 
H     2.3852055    2.7254210   -1.0848633 
H     1.0506175    2.3709930   -2.2012038 
H     1.1408484    4.7831789   -2.9139622 
H     1.2537212    6.3764342   -2.0978133 
H    -0.1450898    6.0093677   -3.1586552 
H    -1.7079916    6.5799131   -1.1483105 
H    -0.3215268    6.8257899   -0.0339475 
H    -1.5669386    5.6051640    0.3525473 
H    -2.0118214   -0.5785998   -2.7031240 
H    -4.6556910    0.9103157    0.4508770 
H     2.3178633    1.0682016   -3.6651139 
H     3.4318567    1.7964372    1.0131171 
H    -3.7937414   -1.4927281    1.1567770 
H    -0.9451069    1.5985075    2.5873807 
H     0.2726331   -2.0709995   -1.4780717 
H     3.8368115   -1.1600552   -2.1433018 
H    -3.3757120   -2.3523862   -3.7475174 
H    -5.8975998    2.1339648    2.2242415 
H     1.8646282   -0.1238335   -5.7953108 
H     5.8961696    1.8060738    1.3150412 
H    -5.1469304   -3.2730468    0.0971837 
H    -2.1919364    2.8597488    4.3438294 
H    -0.1528112   -3.2797006   -3.6198088 
H     6.2992832   -1.1533881   -1.8184639 
H    -4.9524775   -3.7182766   -2.3616485 
H    -4.6758300    3.1109358    4.1737708 
H     0.6388840   -2.3025905   -5.7850306 
H     7.3442179    0.3460743   -0.1118731 
