96
Energy =
C     1.5663486   -1.9837544    1.9718133 
C     0.2432615   -2.0358916    2.4731551 
C    -0.8223305   -2.6004905    1.7218771 
H     0.0055859   -1.5121754    3.4066491 
Pd    0.1018400   -0.8864500    0.5889029 
P    -1.6864993   -0.3119577   -0.8232319 
P     1.5896449    0.5239218   -0.5669586 
H     1.8261805   -2.7034947    1.1809849 
H    -0.5570400   -3.3495960    0.9602777 
C     4.9906380   -0.3890726    4.0341991 
C     5.1193669   -0.9429698    2.7516005 
C     3.9962232   -1.4515995    2.0924618 
C     2.7158746   -1.4095612    2.6916874 
C     2.6024530   -0.8391662    3.9816113 
C     3.7279770   -0.3428505    4.6464430 
H     5.8696611    0.0033177    4.5553821 
H     6.0981792   -0.9786920    2.2634058 
H     4.1088652   -1.8848151    1.0929756 
H     1.6307600   -0.7976550    4.4837697 
H     3.6207998    0.0803788    5.6505497 
C    -4.8106497   -3.0543522    3.2564802 
C    -4.0036407   -2.0052295    3.7275077 
C    -2.7199148   -1.8169055    3.2069145 
C    -2.2087755   -2.6845936    2.2126979 
C    -3.0458308   -3.7121454    1.7236179 
C    -4.3310972   -3.8988240    2.2447389 
H    -5.8136511   -3.2037374    3.6690525 
H    -4.3791707   -1.3305273    4.5038897 
H    -2.1085043   -0.9856124    3.5753428 
H    -2.6738709   -4.3806011    0.9397228 
H    -4.9606366   -4.7067490    1.8589027 
O    -1.9474054    3.5178683    0.6342911 
O    -0.4433201    4.0354055   -1.0206104 
C    -1.2516708    2.3260851    0.2820829 
C     0.0501702    2.8877598   -0.3297956 
C    -1.4459471    4.6191191   -0.1744544 
C    -2.1160668    1.5025857   -0.6942086 
C     0.8163058    2.0333135   -1.3311413 
C    -2.5577858    5.1675360   -1.0599897 
C    -0.8393619    5.6615753    0.7654151 
C    -3.3199645   -1.1364733   -0.6598363 
C    -1.2007102   -0.6521378   -2.5639676 
C     2.3797125   -0.3277206   -1.9879255 
C     2.9679290    1.2524324    0.3970903 
C    -3.7008421   -2.1779468   -1.5302594 
C    -1.6290541    0.1345092   -3.6523518 
C     2.8764407   -1.6322651   -1.7798582 
C     2.7056160    1.6878888    1.7122464 
C    -4.2056966   -0.7286545    0.3606904 
C    -0.3992565   -1.7876179   -2.8089669 
C     2.5002668    0.2557798   -3.2645972 
C     4.2467059    1.4445513   -0.1621262 
C    -4.9648919   -2.7720484   -1.4048857 
C    -1.2402845   -0.1985789   -4.9575158 
C     3.4918194   -2.3355212   -2.8216879 
C     3.7037953    2.3372163    2.4483695 
C    -5.4689262   -1.3207690    0.4734942 
C    -0.0300317   -2.1296809   -4.1160290 
C     3.1086848   -0.4555926   -4.3092803 
C     5.2446217    2.0858049    0.5847500 
C    -5.8544109   -2.3382014   -0.4122518 
C    -0.4430929   -1.3296907   -5.1910578 
C     3.6074499   -1.7474316   -4.0914499 
C     4.9732224    2.5371523    1.8849294 
H    -1.0620998    1.7493945    1.2075547 
H     0.7252347    3.1938417    0.4959576 
H    -2.0872640    1.9670758   -1.6943604 
H    -3.1582349    1.5649015   -0.3444325 
H     1.6222799    2.6479167   -1.7671829 
H     0.1545301    1.7067136   -2.1517488 
H    -2.9655227    4.3608897   -1.6894817 
H    -2.1658146    5.9667368   -1.7099218 
H    -3.3666798    5.5790022   -0.4354540 
H    -1.6043701    6.0150563    1.4754241 
H    -0.4591214    6.5196714    0.1875742 
H    -0.0093061    5.2215983    1.3423259 
H    -3.0239566   -2.5096372   -2.3238773 
H    -2.2734456    1.0052017   -3.4927577 
H     2.7686163   -2.1008142   -0.7966451 
H     1.7231617    1.5020390    2.1624842 
H    -3.9186345    0.0540782    1.0708569 
H    -0.0548610   -2.3990809   -1.9665921 
H     2.1180062    1.2605006   -3.4626312 
H     4.4619840    1.0950911   -1.1774880 
H    -5.2576938   -3.5682639   -2.0971323 
H    -1.5710611    0.4234132   -5.7956249 
H     3.8759665   -3.3454396   -2.6448870 
H     3.4961343    2.6692844    3.4700691 
H    -6.1498465   -0.9909695    1.2639677 
H     0.5973944   -3.0089162   -4.2900020 
H     3.1911460    0.0058855   -5.2985656 
H     6.2375169    2.2339799    0.1476070 
H    -6.8447361   -2.7962685   -0.3233700 
H    -0.1441858   -1.5866731   -6.2124483 
H     4.0831347   -2.2975417   -4.9098474 
H     5.7556612    3.0369310    2.4650949 
