96
Energy =
C     1.7817430   -2.2971184    1.2229643 
C     0.5796991   -2.4028135    1.9580039 
C    -0.6406264   -2.7629412    1.3074049 
H     0.5618876   -2.0919562    3.0093310 
Pd    0.1661616   -0.8674010    0.4256105 
P    -1.5693183   -0.4314785   -1.0631651 
P     1.5173089    0.9643653   -0.1154663 
H     1.8022223   -2.8036431    0.2453687 
H    -0.5563263   -3.3980793    0.4134849 
C     5.7221425   -1.5259529    2.7301618 
C     4.6078682   -1.2475764    3.5404273 
C     3.3138976   -1.4560216    3.0581433 
C     3.1070426   -1.9608661    1.7527434 
C     4.2373667   -2.2056599    0.9371979 
C     5.5328442   -1.9961479    1.4225227 
H     6.7340308   -1.3678310    3.1169914 
H     4.7518282   -0.8617842    4.5543195 
H     2.4592311   -1.2290261    3.7025049 
H     4.0910180   -2.5815661   -0.0818138 
H     6.3956620   -2.2066488    0.7823742 
C    -4.4590083   -2.9956713    3.2895910 
C    -3.4313838   -2.2158483    3.8455771 
C    -2.1920877   -2.1207338    3.2048932 
C    -1.9425361   -2.8187885    1.9990924 
C    -2.9875970   -3.5997024    1.4554597 
C    -4.2326778   -3.6840183    2.0886865 
H    -5.4302680   -3.0644198    3.7898498 
H    -3.6006405   -1.6733815    4.7816699 
H    -1.4130001   -1.4867649    3.6421532 
H    -2.8119692   -4.1642105    0.5332317 
H    -5.0264812   -4.2947058    1.6468846 
O    -1.9004222    3.5838116   -1.6500426 
O    -1.1431450    4.0448716    0.4686530 
C    -1.8611746    2.3577738   -0.9223576 
C    -0.8147672    2.6920319    0.1648575 
C    -1.8280237    4.6344376   -0.6727730 
C    -1.5618631    1.2277412   -1.8988577 
C     0.6475115    2.6178202   -0.3209179 
C    -0.9968090    5.7706991   -1.2553894 
C    -3.2227455    5.0646420   -0.2174836 
C    -3.2988442   -0.6018557   -0.4952764 
C    -1.3302067   -1.6252004   -2.4342775 
C     2.4525052    0.7327684   -1.6743196 
C     2.7604686    1.3815045    1.1690700 
C    -3.5943056   -0.2175884    0.8284223 
C    -0.5943519   -1.2845047   -3.5882246 
C     3.1563004    1.7991498   -2.2765883 
C     4.1471147    1.2836019    0.9524815 
C    -4.3372190   -1.0233955   -1.3509979 
C    -1.7931911   -2.9507822   -2.2797185 
C     2.4686455   -0.5376123   -2.2837401 
C     2.2797064    1.8362698    2.4173119 
C    -4.9159620   -0.2470652    1.2903599 
C    -0.3308806   -2.2531143   -4.5675879 
C     3.8585146    1.5911669   -3.4705349 
C     5.0397837    1.6726709    1.9618453 
C    -5.6558311   -1.0629013   -0.8779437 
C    -1.5308714   -3.9120736   -3.2630954 
C     3.1724010   -0.7416253   -3.4795600 
C     3.1772917    2.2288061    3.4173364 
C    -5.9459333   -0.6740613    0.4391890 
C    -0.7953205   -3.5664960   -4.4083574 
C     3.8669135    0.3220144   -4.0732188 
C     4.5602079    2.1538871    3.1877634 
H    -2.8351185    2.1711175   -0.4248266 
H    -0.9592106    2.0900453    1.0813974 
H    -0.5771519    1.3810789   -2.3729178 
H    -2.3269526    1.2199326   -2.6945655 
H     1.2242166    3.3574931    0.2570161 
H     0.6996751    2.9148282   -1.3828007 
H    -0.0018157    5.3957645   -1.5427897 
H    -0.8777137    6.5705198   -0.5071788 
H    -1.4943651    6.1857853   -2.1469991 
H    -3.7699595    5.5288651   -1.0540109 
H    -3.1394000    5.7914907    0.6066312 
H    -3.7931514    4.1940817    0.1459218 
H    -2.7840415    0.0926383    1.4973323 
H    -0.2142212   -0.2693756   -3.7318332 
H     3.1642977    2.7899943   -1.8092875 
H     4.5321356    0.9128298   -0.0018646 
H    -4.1176318   -1.3207092   -2.3819791 
H    -2.3770341   -3.2214948   -1.3944991 
H     1.9118005   -1.3632630   -1.8265571 
H     1.2006389    1.8989116    2.6039303 
H    -5.1374082    0.0470093    2.3206181 
H     0.2387202   -1.9743605   -5.4601915 
H     4.4021414    2.4216377   -3.9325983 
H     6.1173239    1.5955394    1.7853818 
H    -6.4603314   -1.3938953   -1.5428318 
H    -1.9050029   -4.9333502   -3.1370716 
H     3.1693762   -1.7308459   -3.9488357 
H     2.7966436    2.5959227    4.3760695 
H    -6.9779615   -0.7070184    0.8033395 
H    -0.5905485   -4.3188968   -5.1767809 
H     4.4156854    0.1652772   -5.0076417 
H     5.2628342    2.4634463    3.9681975 
