96
Energy =
C     1.4847879   -3.0111086    0.0935276 
C     0.5235826   -3.0677429    1.1370605 
C    -0.8685280   -3.0867257    0.8448174 
H     0.8436731   -2.9421622    2.1793393 
Pd    0.0837626   -1.2400414    0.0027031 
P     1.5666867    0.3427586   -0.8442821 
P    -1.8266796    0.0927040   -0.1558275 
H     1.1645987   -3.3896525   -0.8895246 
H    -1.1757517   -3.5289279   -0.1156301 
C     5.7558000   -3.0404640    0.5713257 
C     4.9381783   -2.7320456    1.6716226 
C     3.5491783   -2.6819420    1.5279788 
C     2.9438096   -2.9567218    0.2793605 
C     3.7805881   -3.2353903   -0.8260257 
C     5.1725236   -3.2799550   -0.6813937 
H     6.8432144   -3.0855423    0.6904644 
H     5.3886222   -2.5243736    2.6472417 
H     2.9319372   -2.4300645    2.3958734 
H     3.3283039   -3.4350864   -1.8040797 
H     5.8020786   -3.5124620   -1.5465107 
C    -3.9356408   -3.0649321    3.8632206 
C    -2.7864734   -2.2742164    4.0326458 
C    -1.7862310   -2.2709577    3.0554936 
C    -1.9169575   -3.0528220    1.8850191 
C    -3.0837724   -3.8281590    1.7193406 
C    -4.0793484   -3.8411115    2.7043396 
H    -4.7174945   -3.0692023    4.6296856 
H    -2.6730582   -1.6547984    4.9285072 
H    -0.9017307   -1.6383609    3.1879961 
H    -3.2083545   -4.4262484    0.8106358 
H    -4.9754978   -4.4531045    2.5602049 
O     0.1395070    4.0230986   -2.0508915 
O    -1.8940978    3.3061204   -1.2664251 
C     0.1441873    2.5924097   -2.0740606 
C    -1.3712119    2.3090062   -2.1364908 
C    -1.0981308    4.4894429   -1.4557307 
C     0.9431749    2.1043939   -0.8504678 
C    -2.0105780    0.9574633   -1.8183953 
C    -0.8438213    5.1145608   -0.0872729 
C    -1.7632707    5.4391213   -2.4504150 
C     3.0740701    0.5060380    0.1907443 
C     2.1411411    0.0464145   -2.5581223 
C    -1.9866446    1.3280523    1.1847483 
C    -3.3961452   -0.8662221   -0.1384192 
C     2.9130493    0.9717520    1.5146569 
C     3.0272023    0.9406463   -3.1994962 
C    -3.0192515    2.2886993    1.2067796 
C    -3.6274051   -1.7774682   -1.1922808 
C     4.3602680    0.1738224   -0.2741188 
C     1.6610115   -1.0753519   -3.2620694 
C    -1.0529583    1.2888811    2.2392048 
C    -4.3500651   -0.7405424    0.8883047 
C     4.0267756    1.1272214    2.3487144 
C     3.4284418    0.7040531   -4.5203439 
C    -3.1042581    3.1964094    2.2689534 
C    -4.8147287   -2.5184991   -1.2377343 
C     5.4709019    0.3336990    0.5668581 
C     2.0653769   -1.3089434   -4.5847433 
C    -1.1354049    2.2058993    3.2968491 
C    -5.5352428   -1.4894586    0.8387237 
C     5.3098862    0.8131384    1.8737202 
C     2.9500663   -0.4206005   -5.2128728 
C    -2.1623751    3.1608357    3.3107196 
C    -5.7757240   -2.3689294   -0.2250779 
H     0.6442406    2.2815412   -3.0066121 
H    -1.6720664    2.5288551   -3.1848689 
H     0.3554134    2.2476764    0.0725247 
H     1.8283984    2.7590322   -0.7781383 
H    -1.6621521    0.2187240   -2.5619978 
H    -3.0966639    1.0774611   -1.9736095 
H    -0.3828701    4.3761416    0.5875021 
H    -1.7944057    5.4489304    0.3592383 
H    -0.1721230    5.9815250   -0.1910021 
H    -1.0925128    6.2866806   -2.6654135 
H    -2.7094446    5.8241069   -2.0365808 
H    -1.9703193    4.9122848   -3.3961987 
H     1.9164631    1.2271802    1.8915274 
H     3.4074142    1.8192498   -2.6664766 
H    -3.7444808    2.3394355    0.3903814 
H    -2.8792657   -1.9101409   -1.9833134 
H     4.5005002   -0.2163266   -1.2857528 
H     0.9651072   -1.7631096   -2.7671055 
H    -0.2607550    0.5302255    2.2215918 
H    -4.1691445   -0.0693827    1.7325644 
H     3.8933946    1.4987455    3.3701095 
H     4.1160904    1.3999834   -5.0117057 
H    -3.9056293    3.9422819    2.2803765 
H    -4.9900270   -3.2141503   -2.0650380 
H     6.4664671    0.0709513    0.1957795 
H     1.6886209   -2.1839070   -5.1244040 
H    -0.4025484    2.1705886    4.1095763 
H    -6.2685870   -1.3873509    1.6448898 
H     6.1812615    0.9371258    2.5248216 
H     3.2664521   -0.6013926   -6.2453071 
H    -2.2319730    3.8782755    4.1349316 
H    -6.7044085   -2.9475463   -0.2609687 
