96
Energy =
C    -1.3029148   -1.9346391    2.1096096 
C     0.0070316   -1.8660935    2.6636563 
C     0.5623462   -0.6390059    3.0950528 
H     0.6583943   -2.7467827    2.6098548 
Pd   -0.0291466   -0.5322787    0.8952004 
P    -1.4715644   -0.2105590   -0.9409262 
P     1.5918665    0.8892967   -0.0242029 
H    -2.0387699   -1.1947490    2.4526674 
H    -0.1374187    0.1899523    3.2873333 
C    -3.0441324   -5.4336513    0.2956331 
C    -3.8426632   -4.3383509    0.6570054 
C    -3.2678077   -3.2155503    1.2640126 
C    -1.8768188   -3.1553683    1.5108743 
C    -1.0839948   -4.2708945    1.1447721 
C    -1.6625449   -5.3975088    0.5507375 
H    -3.4939499   -6.3132825   -0.1759305 
H    -4.9209796   -4.3570140    0.4686520 
H    -3.9005100   -2.3677327    1.5453327 
H    -0.0013786   -4.2551124    1.3080782 
H    -1.0319873   -6.2505483    0.2789811 
C     4.4363990   -0.0222300    4.8441709 
C     3.6341842    1.0690796    4.4760126 
C     2.3767526    0.8508254    3.9065843 
C     1.8993700   -0.4612587    3.6790807 
C     2.7205504   -1.5506168    4.0523650 
C     3.9727036   -1.3309076    4.6350151 
H     5.4183579    0.1463616    5.2975813 
H     3.9912932    2.0914766    4.6331117 
H     1.7516404    1.7047884    3.6208553 
H     2.3686591   -2.5780558    3.9148072 
H     4.5892841   -2.1849322    4.9336623 
O    -1.4260394    3.8534686   -1.4809053 
O    -0.6497142    4.2569105    0.6419291 
C    -1.5176379    2.6351615   -0.7410565 
C    -0.4559224    2.8757832    0.3533318 
C    -1.2681747    4.8999793   -0.5103562 
C    -1.3458248    1.4783693   -1.7163196 
C     1.0111255    2.6555402   -0.0779366 
C    -0.3314239    5.9525870   -1.0895798 
C    -2.6214976    5.4600750   -0.0717229 
C    -1.2817786   -1.3544258   -2.3559475 
C    -3.2424404   -0.3094695   -0.4561715 
C     1.9519013    0.3514243   -1.7513578 
C     3.2793794    0.9247477    0.7000393 
C    -1.1253830   -0.9225233   -3.6877881 
C    -3.6478240    0.3201704    0.7407724 
C     2.3034565    1.2453435   -2.7824258 
C     3.8426505   -0.3185220    1.0550950 
C    -1.2663039   -2.7356759   -2.0665840 
C    -4.1954480   -0.9925975   -1.2354588 
C     1.9370167   -1.0344281   -2.0139841 
C     4.0462494    2.0973898    0.8410354 
C    -0.9551305   -1.8643629   -4.7127226 
C    -4.9883575    0.2785968    1.1447256 
C     2.6145584    0.7571476   -4.0594528 
C     5.1555568   -0.3882466    1.5321650 
C    -1.1021083   -3.6700917   -3.0952465 
C    -5.5347976   -1.0425683   -0.8201932 
C     2.2658800   -1.5192178   -3.2860736 
C     5.3596752    2.0229232    1.3266641 
C    -0.9431336   -3.2360066   -4.4212700 
C    -5.9338178   -0.4082849    0.3653045 
C     2.5982570   -0.6234235   -4.3121755 
C     5.9161202    0.7830761    1.6705483 
H    -2.5087803    2.5630357   -0.2485360 
H    -0.6691699    2.2972801    1.2727884 
H    -0.3688773    1.5463619   -2.2248985 
H    -2.1340086    1.5554813   -2.4849920 
H     1.6264444    3.2272925    0.6347948 
H     1.1712119    3.0941578   -1.0770569 
H     0.6314849    5.4901364   -1.3581886 
H    -0.1535359    6.7465565   -0.3468835 
H    -0.7774081    6.4008856   -1.9922421 
H    -3.1134118    5.9705453   -0.9155853 
H    -2.4798228    6.1786280    0.7516427 
H    -3.2759056    4.6486018    0.2867828 
H    -1.1172207    0.1405088   -3.9412796 
H    -2.9076643    0.8318626    1.3680941 
H     2.3448416    2.3242105   -2.5983830 
H     3.2448566   -1.2326971    0.9616538 
H    -1.3854559   -3.0797557   -1.0352022 
H    -3.8913337   -1.4956982   -2.1586940 
H     1.6487144   -1.7350706   -1.2212858 
H     3.6377847    3.0744189    0.5643165 
H    -0.8277293   -1.5201714   -5.7441173 
H    -5.2938257    0.7729714    2.0726086 
H     2.8801858    1.4589750   -4.8567818 
H     5.5810884   -1.3570724    1.8107159 
H    -1.0984156   -4.7385813   -2.8561768 
H    -6.2684478   -1.5822903   -1.4278358 
H     2.2381511   -2.5959959   -3.4791440 
H     5.9502678    2.9390832    1.4300015 
H    -0.8106399   -3.9660596   -5.2265135 
H    -6.9799252   -0.4505475    0.6852324 
H     2.8434214   -0.9994400   -5.3107295 
H     6.9418053    0.7288791    2.0493724 
