96
Energy =
C    -0.8456940   -2.5986397    1.9541635 
C     0.5691721   -2.6779950    1.8670062 
C     1.3924632   -1.6960649    2.4852299 
H     1.0330487   -3.4102547    1.1939184 
Pd    0.0155502   -0.7387390    0.9995346 
P    -1.7406560   -0.2376280   -0.4454981 
P     1.2295114    1.2172173    0.6117733 
H    -1.2534551   -2.0404118    2.8110091 
H     0.9929049   -1.1952511    3.3807734 
C    -3.6555575   -5.4059484    0.3129015 
C    -4.0607908   -4.4581548    1.2639168 
C    -3.1395104   -3.5305847    1.7651836 
C    -1.7938235   -3.5356973    1.3304929 
C    -1.4096125   -4.4746620    0.3446256 
C    -2.3291024   -5.4029707   -0.1505803 
H    -4.3706591   -6.1396588   -0.0730513 
H    -5.0945899   -4.4472091    1.6244927 
H    -3.4573741   -2.7992810    2.5169054 
H    -0.3841065   -4.4838917   -0.0375612 
H    -2.0119680   -6.1269296   -0.9076500 
C     5.6849589   -1.6536689    2.1852913 
C     4.9120808   -1.9953747    1.0626390 
C     3.5164218   -2.0073968    1.1483440 
C     2.8638463   -1.6717821    2.3565873 
C     3.6513172   -1.3133759    3.4707479 
C     5.0493584   -1.3137121    3.3879486 
H     6.7778046   -1.6466511    2.1185114 
H     5.4006980   -2.2489846    0.1160580 
H     2.9216161   -2.2579599    0.2631753 
H     3.1609485   -1.0340687    4.4091100 
H     5.6436863   -1.0372757    4.2647484 
O    -1.7343732    3.3534640   -2.4802174 
O     0.3313058    3.6925913   -1.5406096 
C    -1.6668881    2.5705564   -1.2843945 
C    -0.5807586    3.3422884   -0.5061090 
C    -0.4524999    3.9919935   -2.7092678 
C    -1.3953390    1.1100694   -1.6930241 
C     0.1858923    2.7824563    0.6920565 
C     0.2504278    3.3859305   -3.9202599 
C    -0.6970023    5.4951123   -2.8300799 
C    -2.1558236   -1.6429391   -1.5515982 
C    -3.3040713    0.2668802    0.3648487 
C     2.1792704    1.2071058   -0.9524707 
C     2.4522711    1.6012222    1.9312734 
C    -1.1701795   -2.0674268   -2.4703157 
C    -4.4439092    0.6172486   -0.3928965 
C     2.8931240    2.3348963   -1.4086839 
C     1.9656043    1.8585945    3.2318963 
C    -3.3940181   -2.3105699   -1.5077993 
C    -3.3584665    0.3417461    1.7705555 
C     2.2130904    0.0146758   -1.7021809 
C     3.8392752    1.6245953    1.6953590 
C    -1.4326814   -3.1255728   -3.3487542 
C    -5.6178187    1.0246061    0.2534034 
C     3.6222601    2.2627155   -2.6012798 
C     2.8524973    2.1760178    4.2680960 
C    -3.6497229   -3.3687598   -2.3917071 
C    -4.5358629    0.7505495    2.4141089 
C     2.9367997   -0.0510373   -2.9014070 
C     4.7222391    1.9390557    2.7390978 
C    -2.6766317   -3.7752606   -3.3145244 
C    -5.6656828    1.0896311    1.6558506 
C     3.6417613    1.0748175   -3.3509028 
C     4.2337171    2.2253272    4.0207087 
H    -2.6461740    2.6520515   -0.7836701 
H    -1.0838985    4.2574215   -0.1221423 
H    -0.3483685    0.9925857   -2.0216920 
H    -2.0363862    0.9098570   -2.5684104 
H    -0.5283869    2.6051751    1.5158029 
H     0.8698125    3.5799403    1.0298355 
H     0.4146898    2.3081617   -3.7637374 
H     1.2294301    3.8691624   -4.0711663 
H    -0.3646511    3.5327659   -4.8222913 
H    -1.3857872    5.6967653   -3.6663939 
H     0.2533254    6.0235106   -3.0102321 
H    -1.1543501    5.8797115   -1.9039401 
H    -0.1991911   -1.5612392   -2.5098046 
H    -4.4166010    0.5676890   -1.4871327 
H     2.8674142    3.2707913   -0.8442999 
H     0.8895185    1.8132624    3.4391805 
H    -4.1575797   -2.0154846   -0.7831205 
H    -2.4699795    0.0801983    2.3575221 
H     1.6661302   -0.8623007   -1.3344577 
H     4.2357963    1.3886124    0.7039003 
H    -0.6663782   -3.4404761   -4.0647808 
H    -6.4983405    1.2933425   -0.3391233 
H     4.1730157    3.1412192   -2.9527502 
H     2.4647445    2.3852424    5.2705558 
H    -4.6154180   -3.8820721   -2.3482542 
H    -4.5699814    0.8048411    3.5071076 
H     2.9538437   -0.9807067   -3.4796166 
H     5.7995289    1.9501912    2.5455988 
H    -2.8834159   -4.6006887   -4.0033806 
H    -6.5856737    1.4083093    2.1566206 
H     4.2099742    1.0279001   -4.2856922 
H     4.9270439    2.4746846    4.8304458 
