96
Energy =
C    -0.7519499   -2.6585087    1.6506358 
C     0.6747584   -2.6654140    1.5932307 
C     1.4258226   -1.7571268    2.3766093 
H     1.1869877   -3.2827750    0.8445371 
Pd    0.0026660   -0.6653810    0.9650724 
P     1.4441717    1.0841430    0.3810178 
P    -2.0158072    0.0114130   -0.0025185 
H    -1.2018953   -2.3531676    2.6051829 
H     0.9181247   -1.3256552    3.2538416 
C    -3.3041315   -5.1688742   -0.7349964 
C    -2.0049534   -4.8742109   -1.1814803 
C    -1.1746046   -4.0375754   -0.4309661 
C    -1.6186618   -3.4910374    0.7963381 
C    -2.9386297   -3.7707287    1.2175012 
C    -3.7718251   -4.6040976    0.4604703 
H    -3.9511278   -5.8273828   -1.3235752 
H    -1.6423419   -5.2914734   -2.1260678 
H    -0.1738557   -3.8005163   -0.8072748 
H    -3.3056959   -3.3392828    2.1550853 
H    -4.7863734   -4.8201311    0.8111076 
C     5.7037856   -1.4416427    2.6243803 
C     5.1192507   -1.9984244    1.4736019 
C     3.7296341   -2.1067642    1.3711549 
C     2.8920874   -1.6459417    2.4137331 
C     3.4934982   -1.0712808    3.5562732 
C     4.8856856   -0.9816418    3.6661669 
H     6.7931504   -1.3666628    2.7050186 
H     5.7518256   -2.3542480    0.6538805 
H     3.2944541   -2.5468343    0.4698315 
H     2.8584080   -0.6913832    4.3640103 
H     5.3314078   -0.5400237    4.5628690 
O     0.3199521    3.5021969   -2.6140706 
O    -1.8204599    3.7107855   -1.8235717 
C     0.0768640    2.4011731   -1.7426500 
C    -1.4681152    2.3296210   -1.7309520 
C    -0.8653388    4.3370159   -2.6894702 
C     0.7597794    2.6437555   -0.3797522 
C    -2.2139924    1.7947078   -0.5130034 
C    -0.5629498    5.7243850   -2.1358347 
C    -1.3523901    4.3418441   -4.1388481 
C     2.5846142    0.5149714   -0.9443098 
C     2.4480426    1.7327025    1.7704909 
C    -3.4513431   -0.1156847    1.1407788 
C    -2.3576650   -0.9834772   -1.5075522 
C     3.5621638    1.3663164   -1.5030895 
C     1.7385935    2.2443944    2.8797852 
C    -3.2192618   -0.3251413    2.5144378 
C    -1.3348886   -1.0136650   -2.4832632 
C     2.4132778   -0.7776574   -1.4799284 
C     3.8545976    1.7237469    1.7919604 
C    -4.7755243    0.0909439    0.6941215 
C    -3.5178767   -1.7543323   -1.7073440 
C     4.3689745    0.9153548   -2.5559664 
C     2.4293995    2.7721129    3.9771620 
C    -4.2881440   -0.3700585    3.4205895 
C    -1.4929493   -1.7587099   -3.6572998 
C     3.2161284   -1.2236296   -2.5388407 
C     4.5405002    2.2566909    2.8936823 
C    -5.8429845    0.0346703    1.5997443 
C    -3.6675113   -2.5051735   -2.8825555 
C     4.1998531   -0.3789341   -3.0731552 
C     3.8340908    2.7860951    3.9817222 
C    -5.6026071   -0.2033204    2.9620270 
C    -2.6661589   -2.5018438   -3.8626828 
H     0.5168203    1.5102193   -2.2262193 
H    -1.7967521    1.7799832   -2.6372869 
H     0.0944419    3.1467917    0.3426239 
H     1.6169544    3.3166385   -0.5516727 
H    -3.2899034    1.9551457   -0.6975494 
H    -1.9559836    2.3899221    0.3803842 
H    -0.2108127    5.6366897   -1.0956565 
H    -1.4712942    6.3484183   -2.1550876 
H     0.2176334    6.2098777   -2.7430665 
H    -0.5623636    4.7347511   -4.7991940 
H    -2.2510950    4.9723981   -4.2368247 
H    -1.5954732    3.3161949   -4.4619851 
H     3.6962871    2.3844834   -1.1230074 
H     0.6413274    2.2279060    2.8848367 
H    -2.1913432   -0.4386119    2.8754273 
H    -0.4024260   -0.4627196   -2.3165717 
H     1.6343622   -1.4287089   -1.0628365 
H     4.4197348    1.2787363    0.9681639 
H    -4.9812878    0.3002731   -0.3611005 
H    -4.2944744   -1.8009910   -0.9404840 
H     5.1276823    1.5809634   -2.9800689 
H     1.8719014    3.1738425    4.8296526 
H    -4.0924654   -0.5312617    4.4856763 
H    -0.6953015   -1.7643879   -4.4074353 
H     3.0714677   -2.2293683   -2.9470587 
H     5.6350466    2.2414969    2.9030086 
H    -6.8660953    0.1852232    1.2402945 
H    -4.5710258   -3.1071483   -3.0216787 
H     4.8297876   -0.7240037   -3.8994986 
H     4.3747875    3.2009475    4.8386031 
H    -6.4393217   -0.2440919    3.6669003 
H    -2.7913516   -3.0888360   -4.7783216 
