96
Energy =
C    -1.2499534   -1.2270838    2.2245089 
C     0.1403458   -1.4973550    2.2931219 
C     1.0940248   -0.4711696    2.5287216 
H     0.5032794   -2.4994376    2.0330911 
Pd   -0.0980284   -0.0548380    0.6516475 
P     1.5322599    1.1574672   -0.5276328 
P    -1.6998757    0.0351851   -1.0564740 
H    -1.6149211   -0.3243116    2.7346841 
H     0.7572352    0.4198228    3.0782253 
C    -4.3335685   -4.1499413    1.5430112 
C    -3.0014767   -4.4635627    1.2264090 
C    -1.9875365   -3.5232478    1.4344359 
C    -2.2831165   -2.2421116    1.9583593 
C    -3.6285141   -1.9429199    2.2691064 
C    -4.6415595   -2.8869386    2.0681153 
H    -5.1252185   -4.8890753    1.3835639 
H    -2.7516223   -5.4506336    0.8234551 
H    -0.9532378   -3.7962086    1.1986275 
H    -3.8766909   -0.9586592    2.6790725 
H    -5.6759266   -2.6327220    2.3185781 
C     5.3155044   -1.2306129    2.8408503 
C     4.5304552   -2.0210920    1.9852276 
C     3.1617795   -1.7681402    1.8530721 
C     2.5465262   -0.7200554    2.5766655 
C     3.3539750    0.0840596    3.4102299 
C     4.7228662   -0.1740492    3.5470796 
H     6.3864335   -1.4319355    2.9468575 
H     4.9892117   -2.8374238    1.4175730 
H     2.5653487   -2.3864797    1.1739124 
H     2.8977958    0.9114487    3.9638299 
H     5.3298649    0.4569533    4.2038804 
O    -0.0832252    3.4978639    0.5829993 
O    -2.1626330    2.7017414    0.2387806 
C    -0.2038985    3.4645660   -0.8407514 
C    -1.6645103    2.9249112   -1.0826192 
C    -1.4039651    3.5210409    1.1409992 
C     0.9831834    2.7076683   -1.4395563 
C    -1.8626472    1.6726809   -1.9483427 
C    -1.3648001    2.8374531    2.4960947 
C    -1.9585746    4.9490743    1.1855289 
C     2.2478369    0.1348159   -1.8778185 
C     3.0189220    1.7547071    0.3833899 
C    -3.4667044   -0.4089038   -0.7398543 
C    -1.1650830   -1.1608171   -2.3486141 
C     2.9365411    0.7124407   -2.9662808 
C     2.9047974    2.8446587    1.2733039 
C    -4.2590972    0.4594103    0.0436655 
C    -0.9613732   -2.4911382   -1.9170087 
C     2.1518920   -1.2671087   -1.7915290 
C     4.2725247    1.1386027    0.1966365 
C    -4.0535195   -1.5672758   -1.2878439 
C    -0.9256329   -0.8390485   -3.6974169 
C     3.4996081   -0.1035974   -3.9562901 
C     4.0409334    3.3297066    1.9349717 
C    -5.6177309    0.1836765    0.2459672 
C    -0.5487798   -3.4786532   -2.8179079 
C     2.7249082   -2.0810907   -2.7775884 
C     5.4012688    1.6290221    0.8677763 
C    -5.4106864   -1.8415857   -1.0674222 
C    -0.4864269   -1.8262230   -4.5929567 
C     3.3951087   -1.5003943   -3.8633669 
C     5.2919981    2.7289827    1.7293507 
C    -6.1988395   -0.9659648   -0.3088891 
C    -0.3035758   -3.1461290   -4.1595962 
H    -0.1648592    4.4964419   -1.2421521 
H    -2.2392385    3.7408670   -1.5621632 
H     1.8590523    3.3769593   -1.4670369 
H     0.7623650    2.4242772   -2.4825540 
H    -1.1375428    1.6891411   -2.7782555 
H    -2.8677747    1.6838533   -2.4008034 
H    -0.9384954    1.8302842    2.3591490 
H    -2.3810032    2.7545251    2.9122141 
H    -0.7352432    3.4102946    3.1947629 
H    -1.3324025    5.5735105    1.8427512 
H    -2.9901559    4.9396854    1.5727014 
H    -1.9691919    5.4060608    0.1820304 
H     3.0539816    1.7986597   -3.0399072 
H     1.9326166    3.3221376    1.4257843 
H    -3.8133412    1.3606120    0.4724257 
H    -1.1417520   -2.7503634   -0.8683113 
H     1.6095620   -1.7159588   -0.9526369 
H     4.3738608    0.2801779   -0.4732911 
H    -3.4647586   -2.2559262   -1.8989661 
H    -1.0788608    0.1771788   -4.0718147 
H     4.0296628    0.3529984   -4.7985952 
H     3.9469738    4.1859152    2.6115209 
H    -6.2242737    0.8735216    0.8425047 
H    -0.4100828   -4.5076678   -2.4698524 
H     2.6362195   -3.1691398   -2.7016896 
H     6.3697374    1.1421263    0.7153981 
H    -5.8511895   -2.7459124   -1.4995484 
H    -0.2947319   -1.5593986   -5.6371670 
H     3.8383914   -2.1348676   -4.6378692 
H     6.1781079    3.1129860    2.2453197 
H    -7.2607809   -1.1794418   -0.1488210 
H     0.0316685   -3.9135620   -4.8647444 
