96
Energy =
C    -1.1645538   -2.0017710    2.2046954 
C     0.2166090   -2.3410098    2.1814090 
C     1.2215487   -1.4243874    2.5767272 
H     0.5104340   -3.2859378    1.7075568 
Pd   -0.0387107   -0.5915336    0.8661512 
P    -1.8129906    0.0364491   -0.5304915 
P     1.5990681    0.7224786   -0.1763628 
H    -1.4929663   -1.2493098    2.9379083 
H     0.9217638   -0.6115351    3.2551799 
C    -4.2087320   -4.7761309    0.9618620 
C    -2.9850556   -4.7318496    0.2733115 
C    -1.9982094   -3.8169520    0.6530698 
C    -2.2125374   -2.9289757    1.7328520 
C    -3.4568571   -2.9656159    2.3972820 
C    -4.4422273   -3.8860369    2.0198910 
H    -4.9800339   -5.4948188    0.6664649 
H    -2.8022965   -5.4112990   -0.5657650 
H    -1.0558709   -3.7780513    0.0954459 
H    -3.6459466   -2.2735650    3.2245132 
H    -5.3984701   -3.9039231    2.5522823 
C     5.4636133   -2.1615789    2.5505748 
C     4.5955521   -3.0797252    1.9368468 
C     3.2167520   -2.8464243    1.9200951 
C     2.6690388   -1.6981062    2.5402081 
C     3.5552660   -0.7898783    3.1661400 
C     4.9369964   -1.0129193    3.1626976 
H     6.5431549   -2.3437970    2.5568124 
H     4.9971660   -3.9791444    1.4591368 
H     2.5644456   -3.5666650    1.4168415 
H     3.1532303    0.1020970    3.6559071 
H     5.6031883   -0.2924558    3.6479759 
O    -1.7202976    4.1274212   -0.0181513 
O    -0.1573114    4.0790723   -1.7010390 
C    -1.1251025    2.8325822   -0.0383658 
C     0.2325557    3.1293108   -0.7097933 
C    -1.1222220    4.9375101   -1.0709174 
C    -2.0315085    1.8758601   -0.8368645 
C     0.9791115    1.9910964   -1.3928374 
C    -2.1739097    5.3148947   -2.1066060 
C    -0.4478320    6.1426361   -0.4146096 
C    -1.5807640   -0.7092024   -2.1915708 
C    -3.5092265   -0.4471750   -0.0196208 
C     2.7817158   -0.2585333   -1.1712234 
C     2.5873809    1.7452747    0.9839786 
C    -2.3412701   -0.2839592   -3.3030572 
C    -4.0852304    0.2167475    1.0853112 
C     2.5066700   -0.5346474   -2.5289100 
C     3.8727872    2.2221202    0.6566327 
C    -0.6460665   -1.7514335   -2.3523599 
C    -4.2399073   -1.4468086   -0.6876225 
C     3.9326703   -0.8135424   -0.5725404 
C     1.9926372    2.1350315    2.2015100 
C    -2.1561177   -0.8881310   -4.5530305 
C    -5.3921952   -0.0866409    1.4859705 
C     3.3723134   -1.3472384   -3.2719983 
C     4.5579027    3.0573460    1.5499194 
C    -0.4661131   -2.3563861   -3.6047960 
C    -5.5463816   -1.7492549   -0.2766252 
C     4.7953819   -1.6215726   -1.3253788 
C     2.6740366    2.9832950    3.0845818 
C    -1.2191363   -1.9239749   -4.7054707 
C    -6.1281481   -1.0652276    0.7993372 
C     4.5183481   -1.8928575   -2.6729113 
C     3.9618624    3.4383284    2.7623461 
H    -1.0123245    2.4900556    1.0072676 
H     0.8947401    3.6066934    0.0410113 
H    -1.9030064    2.0712772   -1.9154461 
H    -3.0742538    2.1220020   -0.5813293 
H     1.8505679    2.4022730   -1.9313026 
H     0.3314692    1.4879404   -2.1321612 
H    -2.6371127    4.4045770   -2.5188226 
H    -1.7091350    5.8839619   -2.9281973 
H    -2.9552903    5.9351162   -1.6392631 
H    -1.1924635    6.7245375    0.1522726 
H     0.0071031    6.7893317   -1.1824980 
H     0.3359246    5.8100388    0.2856669 
H    -3.0876519    0.5102192   -3.1927399 
H    -3.5183950    0.9822662    1.6295568 
H     1.6181493   -0.1231004   -3.0156761 
H     4.3424331    1.9367731   -0.2905492 
H    -0.0463735   -2.0748656   -1.4929341 
H    -3.7957827   -1.9863749   -1.5291126 
H     4.1664737   -0.6036937    0.4747960 
H     0.9910686    1.7677144    2.4561777 
H    -2.7476356   -0.5522912   -5.4108922 
H    -5.8372952    0.4436050    2.3342683 
H     3.1507832   -1.5489587   -4.3252139 
H     5.5603271    3.4162213    1.2948453 
H     0.2703359   -3.1584095   -3.7187571 
H    -6.1085416   -2.5274702   -0.8023937 
H     5.6875189   -2.0393063   -0.8480235 
H     2.2027435    3.2833310    4.0261461 
H    -1.0785085   -2.3929817   -5.6848121 
H    -7.1512595   -1.2998724    1.1103159 
H     5.1959553   -2.5235859   -3.2575319 
H     4.5004338    4.0934064    3.4548252 
