96
Energy =
C    -1.1785070   -2.0038488    2.1187010 
C     0.1554742   -1.9322187    2.6120690 
C     0.7157265   -0.7089280    3.0476364 
H     0.8143503   -2.8023890    2.5049770 
Pd    0.0194045   -0.5557348    0.8815451 
P    -1.5144086   -0.1997830   -0.8721610 
P     1.5806536    0.9031573   -0.0812305 
H    -1.9063591   -1.2835627    2.5162693 
H     0.0159277    0.1061339    3.2923485 
C    -2.9600120   -5.4740835    0.2886918 
C    -1.5686477   -5.4268728    0.4811791 
C    -0.9767045   -4.3097945    1.0800485 
C    -1.7650301   -3.2155433    1.5138482 
C    -3.1651947   -3.2872143    1.3295617 
C    -3.7540377   -4.4000069    0.7175560 
H    -3.4206169   -6.3459991   -0.1867806 
H    -0.9412200   -6.2636015    0.1565916 
H     0.1120247   -4.2841611    1.1938008 
H    -3.7942121   -2.4559528    1.6636030 
H    -4.8395944   -4.4276406    0.5782913 
C     4.6621029   -0.0829729    4.6229107 
C     3.8328764    1.0063924    4.3133781 
C     2.5517942    0.7852807    3.8005910 
C     2.0767485   -0.5274828    3.5720743 
C     2.9248149   -1.6148038    3.8864091 
C     4.2012816   -1.3924922    4.4126736 
H     5.6630402    0.0877267    5.0318337 
H     4.1874648    2.0294681    4.4717582 
H     1.9057801    1.6376409    3.5601150 
H     2.5760200   -2.6431463    3.7476730 
H     4.8393603   -2.2452534    4.6664121 
O    -1.5337188    3.8776160   -1.2989033 
O    -0.6479655    4.2320663    0.7893755 
C    -1.5746480    2.6388395   -0.5892777 
C    -0.4589593    2.8608159    0.4543523 
C    -1.3339039    4.8991299   -0.3098379 
C    -1.4435837    1.5113091   -1.6044478 
C     0.9855472    2.6652028   -0.0573743 
C    -0.4398357    5.9773080   -0.9091744 
C    -2.6668887    5.4323364    0.2159544 
C    -1.3835683   -1.3018988   -2.3262807 
C    -3.2581296   -0.3322175   -0.3039674 
C     1.8555375    0.4134879   -1.8381840 
C     3.3020794    0.9330949    0.5582927 
C    -1.2971478   -0.8318595   -3.6515459 
C    -3.6096144    0.2584480    0.9293255 
C     1.8462657   -0.9658847   -2.1335563 
C     4.0700465    2.1070084    0.6816450 
C    -1.3417311   -2.6903475   -2.0766553 
C    -4.2417665   -1.0041160   -1.0544270 
C     2.1376878    1.3369289   -2.8644626 
C     3.8873278   -0.3133655    0.8626876 
C    -1.1696081   -1.7433997   -4.7095270 
C    -4.9277156    0.1893909    1.3981458 
C     2.1130947   -1.4151849   -3.4328528 
C     5.4061226    2.0306571    1.1005505 
C    -1.2205438   -3.5943615   -3.1378842 
C    -5.5579922   -1.0819163   -0.5745561 
C     2.3863927    0.8840203   -4.1679571 
C     5.2225238   -0.3848267    1.2731463 
C    -1.1312649   -3.1223302   -4.4574484 
C    -5.9037110   -0.4864715    0.6472780 
C     2.3766945   -0.4902236   -4.4531028 
C     5.9839866    0.7877388    1.3947060 
H    -2.5377761    2.5424521   -0.0477122 
H    -0.6196968    2.2562545    1.3676413 
H    -0.4949834    1.6035881   -2.1605966 
H    -2.2711528    1.6016161   -2.3290206 
H     1.6327323    3.2225466    0.6384436 
H     1.0910936    3.1320876   -1.0507955 
H     0.5110342    5.5327064   -1.2429754 
H    -0.2286556    6.7521029   -0.1550315 
H    -0.9386848    6.4458280   -1.7730854 
H    -3.2086363    5.9594496   -0.5861376 
H    -2.4878757    6.1304014    1.0496069 
H    -3.2931041    4.6044710    0.5870837 
H    -1.3109148    0.2378001   -3.8753216 
H    -2.8441567    0.7606788    1.5335099 
H     1.6110951   -1.6894558   -1.3439759 
H     3.6441280    3.0865133    0.4425290 
H    -1.4069001   -3.0637434   -1.0506789 
H    -3.9790787   -1.4769699   -2.0059248 
H     2.1729102    2.4116619   -2.6567460 
H     3.2890696   -1.2285327    0.7830554 
H    -1.0964649   -1.3697385   -5.7359396 
H    -5.1915033    0.6535151    2.3540203 
H     2.0903840   -2.4873601   -3.6505378 
H     5.9973568    2.9477917    1.1907939 
H    -1.1957061   -4.6689494   -2.9292988 
H    -6.3154538   -1.6129161   -1.1602797 
H     2.5982696    1.6086701   -4.9609623 
H     5.6653420   -1.3562027    1.5132854 
H    -1.0324853   -3.8285775   -5.2883535 
H    -6.9319089   -0.5505172    1.0176717 
H     2.5730884   -0.8386240   -5.4722393 
H     7.0273240    0.7321434    1.7215606 
