96
Energy =
C    -1.1142142   -2.0287456    2.2002216 
C     0.2682080   -2.3601325    2.1509697 
C     1.2753302   -1.4428215    2.5384006 
H     0.5586916   -3.2989777    1.6631991 
Pd   -0.0199552   -0.5993302    0.8571409 
P    -1.8209147    0.0302295   -0.5039402 
P     1.5904922    0.7402495   -0.1966331 
H    -1.4349018   -1.2853144    2.9459533 
H     0.9839213   -0.6376029    3.2294215 
C    -4.1570520   -4.8187541    0.9901689 
C    -2.9466381   -4.7583763    0.2797543 
C    -1.9613335   -3.8371284    0.6480206 
C    -2.1637316   -2.9593063    1.7384043 
C    -3.3957042   -3.0112538    2.4243998 
C    -4.3795454   -3.9378151    2.0581769 
H    -4.9269155   -5.5426871    0.7039682 
H    -2.7731239   -5.4302631   -0.5673407 
H    -1.0299270   -3.7851247    0.0732625 
H    -3.5758944   -2.3267575    3.2598727 
H    -5.3259137   -3.9678946    2.6074062 
C     5.5194629   -2.1601357    2.4265937 
C     4.6441332   -3.0766189    1.8207050 
C     3.2642123   -2.8497772    1.8323758 
C     2.7230636   -1.7099183    2.4735864 
C     3.6167873   -0.8037779    3.0918609 
C     4.9992234   -1.0201265    3.0599730 
H     6.5997809   -2.3370422    2.4103140 
H     5.0407679   -3.9694807    1.3267877 
H     2.6058818   -3.5681794    1.3344124 
H     3.2200659    0.0814946    3.5978673 
H     5.6711536   -0.3011116    3.5394385 
O    -1.7574473    4.1125109    0.0692376 
O    -0.2176239    4.1075210   -1.6354858 
C    -1.1506802    2.8239736    0.0189207 
C     0.1946874    3.1444183   -0.6663594 
C    -1.1815894    4.9459440   -0.9776156 
C    -2.0589863    1.8714487   -0.7824316 
C     0.9409024    2.0249522   -1.3801708 
C    -2.2512226    5.3307318   -1.9919698 
C    -0.5093613    6.1461254   -0.3101076 
C    -1.6063798   -0.6911849   -2.1780301 
C    -3.5056109   -0.4755174    0.0233909 
C     2.7602028   -0.2177238   -1.2286276 
C     2.5944258    1.7488104    0.9630649 
C    -2.3910314   -0.2615025   -3.2708827 
C    -4.0786867    0.1760098    1.1371908 
C     3.9180213   -0.7858175   -0.6557556 
C     2.0155151    2.1225813    2.1932732 
C    -0.6610148   -1.7187198   -2.3680115 
C    -4.2299072   -1.4823583   -0.6408859 
C     2.4685681   -0.4652129   -2.5883046 
C     3.8765044    2.2279633    0.6265268 
C    -2.2188281   -0.8465166   -4.5317272 
C    -5.3771137   -0.1467547    1.5504434 
C     4.7702285   -1.5794852   -1.4352324 
C     2.7093662    2.9571824    3.0796040 
C    -0.4939898   -2.3044762   -3.6313726 
C    -5.5276440   -1.8041847   -0.2173050 
C     3.3241434   -1.2633415   -3.3583895 
C     4.5743953    3.0490860    1.5231148 
C    -1.2707767   -1.8675056   -4.7135346 
C    -6.1070634   -1.1324372    0.8676499 
C     4.4762732   -1.8229445   -2.7845460 
C     3.9942137    3.4140521    2.7480431 
H    -1.0201320    2.4653564    1.0570985 
H     0.8634840    3.6146692    0.0830783 
H    -1.9450762    2.0824922   -1.8597323 
H    -3.1005871    2.1055578   -0.5114396 
H     1.8003887    2.4533191   -1.9244673 
H     0.2862742    1.5290195   -2.1182551 
H    -2.7106371    4.4231239   -2.4142695 
H    -1.8037600    5.9193936   -2.8093715 
H    -3.0323623    5.9341529   -1.5027620 
H    -1.2514496    6.7116033    0.2763894 
H    -0.0706774    6.8097888   -1.0729514 
H     0.2867293    5.8090335    0.3739248 
H    -3.1462143    0.5207260   -3.1373010 
H    -3.5167917    0.9470499    1.6786760 
H     4.1652188   -0.5970692    0.3924400 
H     1.0166627    1.7531501    2.4555165 
H    -0.0431560   -2.0458237   -1.5229012 
H    -3.7877037   -2.0121165   -1.4895867 
H     1.5747260   -0.0430308   -3.0557192 
H     4.3338988    1.9552573   -0.3302930 
H    -2.8291437   -0.5074969   -5.3750528 
H    -5.8202336    0.3741169    2.4055552 
H     5.6674594   -2.0079838   -0.9773656 
H     2.2503176    3.2448237    4.0310314 
H     0.2510555   -3.0948615   -3.7683337 
H    -6.0847943   -2.5877996   -0.7403531 
H     3.0897156   -1.4429253   -4.4128184 
H     5.5743647    3.4095309    1.2607115 
H    -1.1401790   -2.3214461   -5.7013294 
H    -7.1235248   -1.3822112    1.1884847 
H     5.1455592   -2.4426956   -3.3901240 
H     4.5426667    4.0581480    3.4430641 
