96
Energy =
C    -1.1694488   -1.5942386    1.9438425 
C     0.2378138   -1.6609554    2.1377328 
C     1.0046960   -0.5509637    2.5631551 
H     0.7688827   -2.5673975    1.8237187 
Pd   -0.1086570   -0.1067607    0.6162517 
P     1.5548940    1.1416935   -0.4808476 
P    -1.7564910    0.0794638   -1.0360696 
H    -1.7329803   -0.8689029    2.5468724 
H     0.4846644    0.2513123    3.1073081 
C    -3.5063196   -4.9092213    0.4811407 
C    -2.1159048   -4.8946200    0.2848606 
C    -1.3512229   -3.8125213    0.7319983 
C    -1.9532033   -2.7310180    1.4190219 
C    -3.3524133   -2.7668789    1.6181307 
C    -4.1218275   -3.8362034    1.1446473 
H    -4.1052527   -5.7521946    0.1214759 
H    -1.6263400   -5.7232477   -0.2369145 
H    -0.2751885   -3.8072546    0.5304619 
H    -3.8403665   -1.9469814    2.1524789 
H    -5.2046384   -3.8363242    1.3060141 
C     5.2170787   -0.7428011    3.3874233 
C     4.6443269   -1.6657130    2.4967168 
C     3.2843130   -1.5906787    2.1835367 
C     2.4618598   -0.5980284    2.7676506 
C     3.0605810    0.3457540    3.6317193 
C     4.4227101    0.2704677    3.9429893 
H     6.2814767   -0.8062480    3.6355473 
H     5.2631761   -2.4467654    2.0429512 
H     2.8601208   -2.3107315    1.4761052 
H     2.4432746    1.1346101    4.0747369 
H     4.8655424    1.0066775    4.6209893 
O    -0.0424615    3.5624100    0.3680807 
O    -2.1122632    2.7410867    0.0014945 
C    -0.1141687    3.4394123   -1.0538747 
C    -1.5750940    2.9125446   -1.3124579 
C    -1.3792410    3.5883892    0.8923355 
C     1.0781265    2.6153241   -1.5482094 
C    -1.7643856    1.6148402   -2.1059143 
C    -1.3580375    2.9459037    2.2699405 
C    -1.9406551    5.0141124    0.8836698 
C     2.3198118   -0.0030325   -1.7060051 
C     3.0043909    1.7960929    0.4516523 
C    -3.5104456    0.0150977   -0.4784235 
C    -1.5764385   -1.2700051   -2.2707180 
C     3.1316352    0.4693346   -2.7603703 
C     2.8700733    2.9624203    1.2363854 
C    -4.5429141   -0.3656067   -1.3601777 
C    -0.6554684   -1.1519897   -3.3346854 
C     2.1059271   -1.3894019   -1.5734515 
C     4.2552171    1.1494352    0.3815382 
C    -3.8380348    0.4348374    0.8235759 
C    -2.2677655   -2.4885606   -2.0985572 
C     3.7036669   -0.4324737   -3.6675848 
C     3.9823243    3.4884621    1.9068504 
C    -5.8768943   -0.3537062   -0.9291032 
C    -0.4515996   -2.2171052   -4.2205258 
C     2.6872321   -2.2903789   -2.4761364 
C     5.3599777    1.6823782    1.0597592 
C    -5.1721469    0.4563028    1.2485644 
C    -2.0582825   -3.5513385   -2.9876621 
C     3.4839412   -1.8126947   -3.5259269 
C     5.2306224    2.8552669    1.8156993 
C    -6.1939726    0.0538401    0.3753446 
C    -1.1547607   -3.4194660   -4.0516816 
H    -0.0351004    4.4410593   -1.5204478 
H    -2.1266245    3.7143662   -1.8406689 
H     1.9690527    3.2635276   -1.5948553 
H     0.8943421    2.2491996   -2.5724501 
H    -0.9983567    1.5204383   -2.8918052 
H    -2.7428498    1.6166786   -2.6146689 
H    -0.9514221    1.9240619    2.1698511 
H    -2.3757319    2.9015419    2.6881725 
H    -0.7165069    3.5279129    2.9500519 
H    -1.3390210    5.6598465    1.5433088 
H    -2.9846624    5.0083013    1.2360814 
H    -1.9192917    5.4422320   -0.1323604 
H     3.3346583    1.5401006   -2.8687536 
H     1.9017407    3.4663097    1.2978552 
H    -4.3105114   -0.6799083   -2.3833092 
H    -0.0732568   -0.2359162   -3.4750447 
H     1.4541814   -1.7553783   -0.7702337 
H     4.3745236    0.2355029   -0.2067971 
H    -3.0412104    0.7563240    1.4982870 
H    -2.9776683   -2.6089359   -1.2751309 
H     4.3300616   -0.0572313   -4.4835194 
H     3.8714636    4.4023565    2.5001961 
H    -6.6706182   -0.6605077   -1.6180885 
H     0.2652560   -2.1056055   -5.0401756 
H     2.5024770   -3.3638190   -2.3677000 
H     6.3258739    1.1713114    0.9962526 
H    -5.4146636    0.7864520    2.2641963 
H    -2.6079382   -4.4865685   -2.8403358 
H     3.9350847   -2.5136993   -4.2358876 
H     6.0985402    3.2709930    2.3379527 
H    -7.2370527    0.0644251    0.7081479 
H    -0.9978417   -4.2504312   -4.7471916 
