96
Energy =
C     1.7545700   -2.1103601    1.5314335 
C     0.4254724   -2.5654143    1.7750964 
C    -0.3871517   -3.0402805    0.7193885 
H    -0.0164378   -2.4263898    2.7687570 
Pd    0.2841542   -0.8793854    0.3503538 
P    -1.6697148   -0.1272588   -0.6911915 
P     1.7905405    0.6966963   -0.4641278 
H     2.2797141   -2.5350696    0.6627841 
H     0.1369684   -3.3690692   -0.1910934 
C     4.3806265   -0.4717325    4.5273917 
C     4.8890166   -0.9501971    3.3110443 
C     4.0235217   -1.4882015    2.3515496 
C     2.6296571   -1.5463941    2.5766966 
C     2.1332456   -1.0612210    3.8100063 
C     2.9993004   -0.5379245    4.7748362 
H     5.0557388   -0.0546378    5.2814107 
H     5.9652101   -0.9133983    3.1131943 
H     4.4281143   -1.8866498    1.4155413 
H     1.0574056   -1.0791388    4.0149217 
H     2.5950818   -0.1724383    5.7246942 
C    -4.3586183   -4.6473908    1.0031335 
C    -3.8118385   -3.9591386    2.0995787 
C    -2.5331112   -3.4028962    2.0182883 
C    -1.7646857   -3.5353109    0.8377759 
C    -2.3365239   -4.2128521   -0.2647431 
C    -3.6198672   -4.7649412   -0.1831061 
H    -5.3596145   -5.0850672    1.0741048 
H    -4.3902586   -3.8522024    3.0223486 
H    -2.1297242   -2.8649876    2.8813983 
H    -1.7584728   -4.3168820   -1.1893474 
H    -4.0400631   -5.2953743   -1.0437282 
O    -1.6844128    3.8980042    0.0834247 
O    -0.1251790    4.1108374   -1.5893591 
C    -1.0279988    2.6429318   -0.0712911 
C     0.3109217    3.0738600   -0.7129509 
C    -1.1363563    4.8428104   -0.8783789 
C    -1.8841060    1.7180214   -0.9611722 
C     1.0984757    2.0562789   -1.5287104 
C    -2.2100611    5.2614315   -1.8753297 
C    -0.5300519    6.0110405   -0.1006202 
C    -3.1467323   -0.5041134    0.3343073 
C    -1.9701362   -0.8375618   -2.3539784 
C     2.8617405   -0.2427998   -1.6198108 
C     2.8718268    1.6128651    0.6890997 
C    -4.2651947   -1.2090986   -0.1455641 
C    -3.0157960   -0.3644600   -3.1775498 
C     4.1555978   -0.6660747   -1.2517844 
C     4.0393828    2.2733418    0.2493689 
C    -3.1468878   -0.0154685    1.6596498 
C    -1.1263012   -1.8602290   -2.8314320 
C     2.3269697   -0.6553665   -2.8605566 
C     2.4632442    1.7339046    2.0309141 
C    -5.3828677   -1.3910714    0.6820484 
C    -3.2126105   -0.9158458   -4.4503800 
C     4.9025054   -1.4803712   -2.1154202 
C     4.7944894    3.0291999    1.1549722 
C    -4.2703397   -0.1920735    2.4765057 
C    -1.3242259   -2.4073194   -4.1072172 
C     3.0790863   -1.4679632   -3.7184068 
C     3.2209899    2.4946032    2.9313063 
C    -5.3938083   -0.8753320    1.9854263 
C    -2.3688825   -1.9372291   -4.9162713 
C     4.3674447   -1.8841888   -3.3476413 
C     4.3879819    3.1376900    2.4951026 
H    -0.8829986    2.2085976    0.9349523 
H     0.9611422    3.4874375    0.0857948 
H    -1.6950607    1.9421288   -2.0254066 
H    -2.9421991    1.9484808   -0.7557119 
H     1.9420804    2.5667672   -2.0248046 
H     0.4670447    1.6092855   -2.3152277 
H    -2.6132493    4.3715803   -2.3842045 
H    -1.7826458    5.9419456   -2.6297587 
H    -3.0289556    5.7782689   -1.3500723 
H    -1.3049767    6.4901660    0.5193875 
H    -0.1130427    6.7565591   -0.7971246 
H     0.2721934    5.6524469    0.5650580 
H    -4.2662002   -1.6229303   -1.1579514 
H    -3.6812578    0.4309513   -2.8249025 
H     4.5832356   -0.3500372   -0.2958608 
H     4.3594304    2.1967131   -0.7957063 
H    -2.2667690    0.5085263    2.0519405 
H    -0.3026901   -2.2161671   -2.2031598 
H     1.3198893   -0.3486791   -3.1623402 
H     1.5536727    1.2242757    2.3657482 
H    -6.2473667   -1.9454289    0.3030008 
H    -4.0264671   -0.5454610   -5.0821577 
H     5.9099977   -1.7955022   -1.8243588 
H     5.7015954    3.5382581    0.8132333 
H    -4.2678962    0.2024944    3.4978528 
H    -0.6591522   -3.1984447   -4.4691026 
H     2.6561435   -1.7748104   -4.6807384 
H     2.9029552    2.5755412    3.9750841 
H    -6.2725717   -1.0148580    2.6233540 
H    -2.5247356   -2.3627329   -5.9129409 
H     4.9545376   -2.5182209   -4.0197915 
H     4.9833530    3.7281031    3.1992244 
