96
Energy =
C    -1.3791905   -1.8699067    2.1907585 
C    -0.0129941   -2.2569953    2.2757308 
C     0.9957516   -1.3600312    2.7048279 
H     0.2771620   -3.2295640    1.8589990 
Pd   -0.1159422   -0.5540632    0.8810073 
P    -1.7704980    0.0747390   -0.6549041 
P     1.6346389    0.6611683   -0.0943821 
H    -1.7285287   -1.0783796    2.8712630 
H     0.6806508   -0.5107246    3.3294901 
C    -4.4302988   -4.5883069    0.8452659 
C    -3.1642763   -4.6071870    0.2367428 
C    -2.1731526   -3.7114231    0.6496369 
C    -2.4260020   -2.7795718    1.6831094 
C    -3.7107462   -2.7532014    2.2660493 
C    -4.7006545   -3.6546078    1.8558965 
H    -5.2050879   -5.2920770    0.5241840 
H    -2.9514193   -5.3211154   -0.5658159 
H    -1.1963016   -3.7217809    0.1535518 
H    -3.9288328   -2.0266542    3.0557117 
H    -5.6890976   -3.6233587    2.3251321 
C     5.2004845   -2.2396042    2.9966967 
C     4.6760660   -1.0500134    3.5270944 
C     3.3061669   -0.7808083    3.4277922 
C     2.4314845   -1.6835370    2.7780729 
C     2.9774785   -2.8738554    2.2411986 
C     4.3427395   -3.1523347    2.3608277 
H     6.2699221   -2.4574233    3.0833162 
H     5.3340421   -0.3331058    4.0285834 
H     2.9048242    0.1433462    3.8544772 
H     2.3345766   -3.5916680    1.7226162 
H     4.7425686   -4.0833187    1.9462828 
O    -1.5641564    4.1784432   -0.3044730 
O     0.1090475    4.0076261   -1.8691739 
C    -1.0160351    2.8647904   -0.2311806 
C     0.3947560    3.0882785   -0.8157980 
C    -0.8671448    4.9225875   -1.3448823 
C    -1.8981413    1.9053363   -1.0533914 
C     1.1457107    1.8987685   -1.3990592 
C    -1.8308556    5.2872453   -2.4671525 
C    -0.1987929    6.1333552   -0.6929481 
C    -1.4625990   -0.7510235   -2.2647770 
C    -3.5126909   -0.3230335   -0.2329407 
C     2.8467036   -0.3977431   -0.9668729 
C     2.5764456    1.6960295    1.0936278 
C    -2.1463318   -0.3573227   -3.4362125 
C    -4.2425533   -1.3201552   -0.9054927 
C     3.9339615   -0.9659536   -0.2695869 
C     1.9118760    2.1543397    2.2496267 
C    -0.5470277   -1.8203702   -2.3257575 
C    -4.1260416    0.4077002    0.8078560 
C     2.6540342   -0.7198265   -2.3286985 
C     3.8988791    2.1142096    0.8426970 
C    -1.9050580   -1.0202384   -4.6461882 
C    -5.5826481   -1.5546164   -0.5640651 
C     4.8156980   -1.8324477   -0.9296557 
C     2.5602905    3.0127294    3.1475692 
C    -0.3099130   -2.4832915   -3.5387510 
C    -5.4658441    0.1715578    1.1393334 
C     3.5379078   -1.5905488   -2.9786457 
C     4.5499203    2.9596365    1.7517938 
C    -0.9872157   -2.0827917   -4.6990660 
C    -6.1990057   -0.8052711    0.4471850 
C     4.6205205   -2.1491864   -2.2815987 
C     3.8840950    3.4090966    2.9028662 
H    -0.9885015    2.5633325    0.8326050 
H     1.0197450    3.5748087   -0.0394077 
H    -1.6862115    2.0481166   -2.1271056 
H    -2.9466658    2.1977709   -0.8847406 
H     2.0664594    2.2581740   -1.8903328 
H     0.5329513    1.3871965   -2.1618429 
H    -2.2951221    4.3747566   -2.8733134 
H    -1.2909604    5.8052381   -3.2765164 
H    -2.6210863    5.9512808   -2.0822427 
H    -0.9603197    6.7626486   -0.2045731 
H     0.3302071    6.7312571   -1.4528837 
H     0.5225993    5.8069928    0.0741009 
H    -2.8770151    0.4581713   -3.4035869 
H    -3.7714228   -1.9111197   -1.6962503 
H     4.1042021   -0.7216324    0.7825102 
H     0.8818091    1.8320660    2.4448166 
H    -0.0069379   -2.1195241   -1.4193251 
H    -3.5618014    1.1728926    1.3553449 
H     1.8157190   -0.2990892   -2.8908733 
H     4.4235533    1.7752397   -0.0567209 
H    -2.4375517   -0.7092780   -5.5508244 
H    -6.1438823   -2.3314344   -1.0928764 
H     5.6578955   -2.2599991   -0.3763248 
H     2.0350638    3.3662819    4.0407807 
H     0.4117363   -3.3057596   -3.5750677 
H    -5.9386315    0.7529210    1.9376997 
H     3.3806336   -1.8277039   -4.0360249 
H     5.5808394    3.2726511    1.5569821 
H    -0.8022803   -2.5975511   -5.6475920 
H    -7.2475974   -0.9873791    0.7037574 
H     5.3127447   -2.8256480   -2.7934240 
H     4.3965040    4.0717760    3.6078523 
