96
Energy =
C    -1.2521661   -1.9423778    2.2047199 
C     0.1269888   -2.2891010    2.2404980 
C     1.1221430   -1.3689922    2.6515395 
H     0.4322648   -3.2462351    1.7995547 
Pd   -0.0712449   -0.5699764    0.8760896 
P    -1.7921682    0.0322960   -0.5961974 
P     1.6095983    0.7117047   -0.1374213 
H    -1.6034073   -1.1723153    2.9085002 
H     0.8023882   -0.5378657    3.2979540 
C    -4.2618404   -4.7319312    0.9125171 
C    -3.0151309   -4.7046039    0.2656504 
C    -2.0386145   -3.7853302    0.6613255 
C    -2.2868189   -2.8758293    1.7156425 
C    -3.5532458   -2.8959206    2.3376128 
C    -4.5283481   -3.8207248    1.9444778 
H    -5.0251245   -5.4539837    0.6047519 
H    -2.8061546   -5.4007389   -0.5533847 
H    -1.0776567   -3.7595188    0.1356185 
H    -3.7681609   -2.1872643    3.1442166 
H    -5.5023876   -3.8254539    2.4438745 
C     5.3582377   -2.1264944    2.7958133 
C     4.8169540   -0.9586264    3.3566639 
C     3.4371704   -0.7293854    3.3057360 
C     2.5682735   -1.6508533    2.6748213 
C     3.1308247   -2.8191660    2.1074962 
C     4.5069446   -3.0580341    2.1787866 
H     6.4359214   -2.3132277    2.8445799 
H     5.4698109   -0.2275359    3.8441586 
H     3.0233196    0.1780089    3.7556791 
H     2.4924285   -3.5510399    1.6031755 
H     4.9198818   -3.9727435    1.7414713 
O    -1.6975931    4.1334854   -0.1772185 
O    -0.0738927    4.0402947   -1.7996905 
C    -1.1083169    2.8361659   -0.1460347 
C     0.2746922    3.1123150   -0.7730919 
C    -1.0588260    4.9159739   -1.2269637 
C    -1.9887411    1.8646871   -0.9557597 
C     1.0405763    1.9561537   -1.4024453 
C    -2.0704709    5.2697444   -2.3098573 
C    -0.4055963    6.1355543   -0.5761321 
C    -1.5083442   -0.7548838   -2.2297023 
C    -3.5076329   -0.4279475   -0.1301053 
C     2.8203523   -0.2977126   -1.0681290 
C     2.5622549    1.7536350    1.0356774 
C    -2.2373152   -0.3605293   -3.3732968 
C    -4.1132306    0.2659340    0.9400571 
C     2.5960357   -0.5963283   -2.4303818 
C     3.8656022    2.2080014    0.7504594 
C    -0.5647263   -1.7958577   -2.3370791 
C    -4.2247336   -1.4374190   -0.7979682 
C     3.9406697   -0.8533443   -0.4143074 
C     1.9229764    2.1789786    2.2182991 
C    -2.0129834   -0.9945156   -4.6018871 
C    -5.4346095   -0.0184994    1.3057477 
C     3.4810513   -1.4319716   -3.1234728 
C     4.5237605    3.0565160    1.6515511 
C    -0.3447491   -2.4299783   -3.5685506 
C    -5.5461478   -1.7203718   -0.4222619 
C     4.8229048   -1.6848929   -1.1171867 
C     2.5777742    3.0406610    3.1083878 
C    -1.0671288   -2.0288050   -4.7011056 
C    -6.1562702   -1.0073246    0.6185849 
C     4.5960362   -1.9787017   -2.4694094 
C     3.8832797    3.4732218    2.8289993 
H    -1.0359765    2.5173317    0.9105696 
H     0.9108109    3.6044115   -0.0093628 
H    -1.8180254    2.0328546   -2.0331043 
H    -3.0391665    2.1216993   -0.7464245 
H     1.9330498    2.3517662   -1.9175408 
H     0.4176731    1.4395196   -2.1535842 
H    -2.5204742    4.3504733   -2.7167734 
H    -1.5740562    5.8177277   -3.1272569 
H    -2.8669157    5.9025967   -1.8870299 
H    -1.1688512    6.7330255   -0.0518220 
H     0.0794534    6.7619442   -1.3424169 
H     0.3506580    5.8185961    0.1606941 
H    -2.9896734    0.4326904   -3.3044695 
H    -3.5578488    1.0399908    1.4840796 
H     1.7321030   -0.1846491   -2.9594538 
H     4.3702598    1.8946667   -0.1694552 
H     0.0103333   -2.0953587   -1.4525428 
H    -3.7583321   -2.0000425   -1.6118591 
H     4.1358822   -0.6256726    0.6371382 
H     0.9077824    1.8282463    2.4405343 
H    -2.5805657   -0.6830792   -5.4847637 
H    -5.9021154    0.5345932    2.1269786 
H     3.2990313   -1.6510276   -4.1807859 
H     5.5402625    3.3975403    1.4298515 
H     0.3987205   -3.2303237   -3.6410393 
H    -6.0976123   -2.5063947   -0.9477403 
H     5.6906511   -2.1030734   -0.5971744 
H     2.0720300    3.3684766    4.0224160 
H    -0.8955667   -2.5209976   -5.6640113 
H    -7.1906215   -1.2271732    0.9019886 
H     5.2887325   -2.6278051   -3.0149182 
H     4.4010295    4.1384677    3.5276312 
