96
Energy =
C     1.4378382   -2.6841578    1.1548100 
C     0.3177472   -2.4848177    1.9920392 
C    -1.0069728   -2.6622699    1.4827407 
H     0.4560605   -2.0769774    3.0018754 
Pd    0.0245287   -1.0509471    0.3522311 
P    -1.8232228   -0.1794196   -0.7963436 
P     1.5987592    0.4825995   -0.4822253 
H     1.2736594   -3.2969801    0.2545092 
H    -1.1375585   -3.3974797    0.6742957 
C     5.5957961   -2.3140736    2.1698647 
C     4.6385964   -1.5910701    2.9040352 
C     3.2801827   -1.7090467    2.5982979 
C     2.8498513   -2.5329972    1.5322347 
C     3.8242331   -3.2502934    0.7993461 
C     5.1823936   -3.1535671    1.1247925 
H     6.6586425   -2.2251622    2.4170340 
H     4.9542673   -0.9329719    3.7198780 
H     2.5501325   -1.1413508    3.1808915 
H     3.5078597   -3.8889083   -0.0324503 
H     5.9204572   -3.7256177    0.5533082 
C    -4.4705956   -2.0485165    3.9580558 
C    -3.3762969   -1.1734439    4.0628680 
C    -2.2565925   -1.3491820    3.2434274 
C    -2.2058874   -2.4070176    2.3052963 
C    -3.3242922   -3.2596297    2.1904008 
C    -4.4423249   -3.0864754    3.0152924 
H    -5.3455829   -1.9132675    4.6021085 
H    -3.3990573   -0.3508179    4.7853279 
H    -1.4147567   -0.6500839    3.3162065 
H    -3.3090566   -4.0714996    1.4557570 
H    -5.2972844   -3.7630413    2.9174776 
O    -1.7454599    3.7256816    0.5053469 
O    -0.2948779    4.0221707   -1.2516954 
C    -1.1461888    2.4680112    0.2019463 
C     0.1648175    2.9125086   -0.4805724 
C    -1.2227906    4.7291850   -0.4128658 
C    -2.0973315    1.6680377   -0.7080991 
C     0.8937437    1.9440631   -1.4049987 
C    -2.3418631    5.2741903   -1.2914404 
C    -0.5160622    5.8033649    0.4146701 
C    -3.4844377   -0.8718698   -0.4350273 
C    -1.5844963   -0.5432285   -2.5849407 
C     2.8756391   -0.1584098   -1.6254858 
C     2.4986370    1.2987757    0.8964899 
C    -4.2763339   -0.3252932    0.5963672 
C    -2.4182479    0.0439853   -3.5615953 
C     2.6232834   -0.2038376   -3.0142607 
C     3.7000259    2.0069289    0.6875180 
C    -3.9621859   -1.9829895   -1.1601429 
C    -0.5856180   -1.4519846   -2.9865924 
C     4.0863242   -0.6810255   -1.1241010 
C     1.9093151    1.2974355    2.1767233 
C    -5.5455586   -0.8539196    0.8628635 
C    -2.2371479   -0.2622947   -4.9159321 
C     3.5692268   -0.7626076   -3.8834295 
C     4.3069102    2.6856320    1.7528403 
C    -5.2323397   -2.5087892   -0.8846366 
C    -0.4088254   -1.7591556   -4.3442978 
C     5.0288210   -1.2342656   -2.0018199 
C     2.5126546    1.9868751    3.2371731 
C    -6.0302231   -1.9390213    0.1179739 
C    -1.2318137   -1.1619400   -5.3091138 
C     4.7730940   -1.2799432   -3.3798798 
C     3.7158111    2.6769023    3.0265415 
H    -0.9667437    1.9332568    1.1529086 
H     0.8622082    3.2574848    0.3091101 
H    -2.0476244    2.0760793   -1.7322170 
H    -3.1223432    1.8356015   -0.3420922 
H     1.7298049    2.4770654   -1.8899007 
H     0.2223429    1.5750967   -2.2002254 
H    -2.8247647    4.4490776   -1.8382772 
H    -1.9351186    5.9958381   -2.0185220 
H    -3.0954388    5.7811347   -0.6679458 
H    -1.2267683    6.2545562    1.1258446 
H    -0.1167600    6.5908332   -0.2450689 
H     0.3135753    5.3610224    0.9903138 
H    -3.9115923    0.5127876    1.1994965 
H    -3.2181374    0.7315343   -3.2655783 
H     1.6909586    0.1939676   -3.4258312 
H     4.1644559    2.0253847   -0.3042680 
H    -3.3539334   -2.4227246   -1.9578325 
H     0.0619958   -1.9130116   -2.2296245 
H     4.3011979   -0.6452453   -0.0522383 
H     0.9724460    0.7476032    2.3351993 
H    -6.1525442   -0.4191751    1.6628790 
H    -2.8862492    0.1981098   -5.6678109 
H     3.3656144   -0.7877886   -4.9590706 
H     5.2430514    3.2284208    1.5863388 
H    -5.6026810   -3.3595547   -1.4660611 
H     0.3773120   -2.4597182   -4.6438897 
H     5.9670543   -1.6300952   -1.5998977 
H     2.0464201    1.9815036    4.2278518 
H    -7.0254976   -2.3454055    0.3247739 
H    -1.0952401   -1.3987026   -6.3693673 
H     5.5124838   -1.7118768   -4.0620999 
H     4.1924900    3.2122517    3.8541934 
