96
Energy =
C     1.4946439   -2.3448974    1.6818953 
C     0.2492859   -2.1724693    2.3290617 
C    -0.9655900   -2.5546012    1.6819861 
H     0.1995840   -1.6303164    3.2819742 
Pd    0.0563614   -0.9829923    0.4910703 
P    -1.7296524   -0.3246793   -0.8800709 
P     1.5725122    0.5322809   -0.4705043 
H     1.5196709   -3.0887434    0.8697100 
H    -0.9064708   -3.3770159    0.9527296 
C     5.3947972   -1.3618846    3.1974319 
C     4.2573805   -0.7823519    3.7828698 
C     2.9817553   -1.0823873    3.2980908 
C     2.8129335   -1.9782153    2.2172591 
C     3.9686460   -2.5599238    1.6440356 
C     5.2458698   -2.2546703    2.1258992 
H     6.3921919   -1.1202104    3.5784856 
H     4.3677377   -0.0840294    4.6182023 
H     2.1096894   -0.6095702    3.7593589 
H     3.8589822   -3.2783282    0.8234806 
H     6.1257001   -2.7206248    1.6706035 
C    -4.7985885   -2.1100515    3.5820220 
C    -3.8266300   -1.1066298    3.7341386 
C    -2.5861543   -1.2289312    3.0996524 
C    -2.2911785   -2.3593899    2.3021251 
C    -3.2877865   -3.3437421    2.1329618 
C    -4.5265607   -3.2240018    2.7747827 
H    -5.7673598   -2.0166833    4.0834918 
H    -4.0390095   -0.2258297    4.3491568 
H    -1.8393434   -0.4331359    3.2085181 
H    -3.0832548   -4.2141268    1.5006091 
H    -5.2846677   -4.0017854    2.6381200 
O    -2.0777932    3.4778600    0.6339164 
O    -0.5526500    4.0014720   -1.0009946 
C    -1.3634428    2.2926151    0.2933855 
C    -0.0529476    2.8765027   -0.2755431 
C    -1.5832170    4.5779779   -0.1829428 
C    -2.1899082    1.4757312   -0.7186095 
C     0.7961877    2.0455878   -1.2297534 
C    -2.6875290    5.0929694   -1.0975344 
C    -1.0159226    5.6453223    0.7533798 
C    -3.3285111   -1.2181234   -0.7481961 
C    -1.2355949   -0.5688370   -2.6362960 
C     2.5835165   -0.1511794   -1.8411782 
C     2.7556317    1.2384282    0.7432858 
C    -3.5201398   -2.4020552   -1.4914432 
C    -0.2185425   -1.4987937   -2.9317442 
C     3.0566447   -1.4729099   -1.7067296 
C     4.1402679    1.3047524    0.4985368 
C    -4.3481314   -0.7728835    0.1175085 
C    -1.8602922    0.1283199   -3.6921640 
C     2.8722598    0.5630213   -3.0211493 
C     2.2371312    1.7582016    1.9497133 
C    -4.7277249   -3.1064083   -1.3947247 
C     0.1898076   -1.7115883   -4.2557512 
C     3.8090989   -2.0690310   -2.7250699 
C     4.9867652    1.9143370    1.4360787 
C    -5.5560410   -1.4777849    0.2020864 
C    -1.4471870   -0.0830308   -5.0139752 
C     3.6174221   -0.0403638   -4.0448573 
C     3.0829109    2.3943331    2.8664606 
C    -5.7517770   -2.6403078   -0.5566996 
C    -0.4190105   -0.9974445   -5.2967833 
C     4.0875748   -1.3534584   -3.9005866 
C     4.4598428    2.4748139    2.6087314 
H    -1.2005459    1.7102517    1.2200237 
H     0.5720621    3.2210352    0.5723512 
H    -2.1246913    1.9539354   -1.7104605 
H    -3.2432919    1.5296904   -0.4035042 
H     1.6040208    2.6951951   -1.6072763 
H     0.1984907    1.7097281   -2.0960759 
H    -3.0707065    4.2705355   -1.7218438 
H    -2.2963670    5.8880992   -1.7529363 
H    -3.5144395    5.5011083   -0.4947634 
H    -1.8004703    5.9899210    1.4462190 
H    -0.6458069    6.5047282    0.1709481 
H    -0.1857671    5.2320164    1.3496063 
H    -2.7354700   -2.7612652   -2.1660895 
H     0.2643104   -2.0493595   -2.1158796 
H     2.8261441   -2.0331853   -0.7971541 
H     4.5562545    0.8845887   -0.4227250 
H    -4.2108514    0.1180246    0.7381078 
H    -2.6751393    0.8317136   -3.4900370 
H     2.5170444    1.5872070   -3.1611472 
H     1.1692104    1.6524879    2.1760547 
H    -4.8726927   -4.0149219   -1.9884781 
H     0.9933555   -2.4240181   -4.4666619 
H     4.1732437   -3.0946177   -2.6043871 
H     6.0635272    1.9575576    1.2428943 
H    -6.3413622   -1.1186638    0.8742261 
H    -1.9327816    0.4659268   -5.8273290 
H     3.8303000    0.5221908   -4.9595835 
H     2.6696187    2.8094064    3.7915333 
H    -6.6984087   -3.1862693   -0.4905550 
H    -0.0968002   -1.1539388   -6.3314196 
H     4.6693407   -1.8193079   -4.7026332 
H     5.1244753    2.9620918    3.3294704 
