109
Energy =
C    -2.0347959   -0.2204458    2.4094815 
C    -1.7348495   -1.5738493    2.1035074 
C    -0.4823117   -2.1323980    2.4607847 
H    -2.4242505   -2.1650772    1.4875982 
Pd   -0.2333855   -0.3639294    1.0334660 
P     1.8148878   -1.1349229    0.1428760 
P    -0.5979446    1.6836436   -0.0737761 
H    -1.4548149    0.2307640    3.2284314 
H     0.0549073   -1.6646425    3.2998271 
C    -5.7181949    1.8702123    1.6329318 
C    -5.5169476    0.5937925    1.0823365 
C    -4.3271543   -0.1029122    1.3213484 
C    -3.3111026    0.4599419    2.1273596 
C    -3.5453045    1.7298682    2.7058978 
C    -4.7287380    2.4330202    2.4540143 
H    -6.6483284    2.4133258    1.4379339 
H    -6.2955804    0.1374608    0.4626127 
H    -4.1923194   -1.0924916    0.8741463 
H    -2.7864272    2.1625099    3.3667962 
H    -4.8851478    3.4164420    2.9093087 
C     0.5979343   -6.2307869    1.7413265 
C    -0.1354401   -5.5266213    0.7713783 
C    -0.4894333   -4.1919784    0.9908005 
C    -0.1031152   -3.5292084    2.1776456 
C     0.6470355   -4.2430491    3.1365928 
C     0.9832549   -5.5854874    2.9254122 
H     0.8706079   -7.2773936    1.5707563 
H    -0.4292105   -6.0191354   -0.1613162 
H    -1.0504805   -3.6501821    0.2234803 
H     0.9696510   -3.7373705    4.0528092 
H     1.5602135   -6.1251288    3.6832280 
O     1.9412123   -0.4103484   -4.4015897 
N     2.2627561    0.8405714   -2.5189588 
N     4.0758893   -0.2473058   -3.5434980 
C     0.6859791    2.1706454   -1.3291901 
C    -2.2390983    1.6771834   -0.9943773 
C    -0.7076815    3.1460851    1.1088856 
C     2.0968864    2.3224840   -0.6951703 
C     2.9655660    1.1919326   -1.2879465 
C     0.8307044    1.1178967   -2.4551310 
C    -2.4267030    2.8224502   -2.0144875 
C    -2.5222126    0.3041685   -1.6499054 
C     0.1112196    2.9215277    2.4029797 
C    -0.3797031    4.5344687    0.5118224 
C    -3.8288307    2.7686581   -2.6512985 
C    -3.9103992    0.2657695   -2.3131986 
C    -0.1576482    4.0357200    3.4305382 
C    -0.6608953    5.6473297    1.5401773 
C    -4.0865213    1.4109833   -3.3221212 
C     0.1275398    5.4261467    2.8404710 
C     3.2246619    0.0125032   -0.3225422 
C     2.7197243    0.0323518   -3.5581879 
C     2.7416007   -2.1543350    1.3694714 
C     1.5775195   -2.1698233   -1.3506081 
C     4.6821559   -0.9658242   -4.6577069 
C     3.0508836   -1.5428704    2.6044216 
C     0.2727050   -2.3408814   -1.8539601 
C     3.1535945   -3.4777141    1.1336038 
C     2.6608744   -2.7663555   -2.0310426 
C     3.7924061   -2.2327918    3.5711843 
C     0.0493970   -3.0853217   -3.0185859 
C     3.8996941   -4.1633093    2.1046457 
C     2.4322955   -3.5168584   -3.1901605 
C     4.2279452   -3.5438478    3.3174209 
C     1.1300994   -3.6742509   -3.6876332 
H     0.3662091    3.1347344   -1.7554099 
H    -2.9754250    1.8151338   -0.1782888 
H    -1.7795930    3.1391508    1.3866511 
H     2.5210928    3.3014306   -0.9698896 
H     2.0843274    2.2722119    0.4064767 
H     3.9633233    1.6061689   -1.5334327 
H     0.2672984    0.1907271   -2.2348715 
H     0.4727748    1.4783470   -3.4330647 
H    -2.2751994    3.8032903   -1.5327049 
H    -1.6679608    2.7330604   -2.8154585 
H    -1.7561343    0.0914710   -2.4178695 
H    -2.4366611   -0.4917906   -0.8857964 
H    -0.1208353    1.9310440    2.8338946 
H     1.1913336    2.9074068    2.1594335 
H     0.6892933    4.5699240    0.2285999 
H    -0.9604124    4.7194773   -0.4072085 
H    -4.5891014    2.9429239   -1.8646451 
H    -3.9310453    3.5905061   -3.3823243 
H    -4.6857686    0.3515094   -1.5299727 
H    -4.0558887   -0.7133441   -2.8045681 
H     0.4524458    3.8640877    4.3354518 
H    -1.2178149    3.9849070    3.7494942 
H    -1.7458270    5.6658489    1.7634651 
H    -0.4121871    6.6286835    1.0982425 
H    -3.3765508    1.2766436   -4.1620165 
H    -5.1010112    1.3839505   -3.7579829 
H    -0.1162193    6.2124275    3.5766381 
H     1.2115273    5.5161124    2.6290789 
H     3.6341722    0.4002508    0.6270464 
H     3.9941951   -0.6540612   -0.7506147 
H     4.6853175    0.3631432   -3.0020738 
H     3.8900054   -1.5584665   -5.1382138 
H     5.4754368   -1.6380691   -4.2884645 
H     5.1127931   -0.2829517   -5.4146018 
H     2.7066044   -0.5212522    2.8122561 
H    -0.5665602   -1.8700461   -1.3292438 
H     2.8739249   -3.9890280    0.2084467 
H     3.6863817   -2.6380478   -1.6714019 
H     4.0320132   -1.7470346    4.5229032 
H    -0.9678305   -3.1956722   -3.4077662 
H     4.2097431   -5.1953743    1.9123877 
H     3.2788336   -3.9693887   -3.7161989 
H     4.8109748   -4.0833765    4.0708191 
H     0.9611734   -4.2476774   -4.6045198 
