109
Energy =
C    -2.4429353   -0.8541830    1.2020850 
C    -1.7469604   -2.0980038    1.2491874 
C    -0.6168538   -2.2702180    2.0697523 
H    -2.0472893   -2.8958201    0.5586342 
Pd   -0.3535888   -0.5953621    0.4241973 
P     1.9426482   -0.8792967   -0.0680284 
P    -0.6510860    1.5116710   -0.6059831 
H    -2.3911227   -0.2245038    2.1024880 
H    -0.4206841   -1.4903782    2.8219118 
C    -6.0531007   -0.4043266   -1.0996926 
C    -4.9488805   -1.0731165   -1.6550831 
C    -3.7677546   -1.2277382   -0.9196840 
C    -3.6679839   -0.6960639    0.3883425 
C    -4.7852782   -0.0323245    0.9397848 
C    -5.9704653    0.1056391    0.2045893 
H    -6.9756049   -0.2880670   -1.6779348 
H    -5.0069648   -1.4791007   -2.6706129 
H    -2.9097057   -1.7415215   -1.3698782 
H    -4.7250260    0.3704976    1.9570686 
H    -6.8306629    0.6156413    0.6508882 
C     1.3379582   -5.9864919    2.9625677 
C     0.1890996   -5.9820484    2.1548524 
C    -0.4368611   -4.7763990    1.8261110 
C     0.0657340   -3.5456645    2.3135196 
C     1.2209415   -3.5692902    3.1299330 
C     1.8547254   -4.7741357    3.4455742 
H     1.8262958   -6.9323756    3.2181722 
H    -0.2244651   -6.9259856    1.7849828 
H    -1.3394061   -4.7946300    1.2077185 
H     1.6235599   -2.6268664    3.5166014 
H     2.7524131   -4.7696959    4.0715016 
O    -1.2113754   -2.5875910   -2.4034773 
N     0.1963812   -0.8335984   -2.9067790 
N     0.8481039   -3.0487919   -3.2993594 
C    -0.2054406    1.4354552   -2.4224456 
C    -2.4034490    2.2283504   -0.6556668 
C     0.5269873    2.7796299    0.1063853 
C     1.2913277    1.2714990   -2.7642291 
C     1.5464821   -0.2503294   -2.9254854 
C    -0.8533564    0.1777546   -3.0311181 
C    -2.7640388    2.9202604    0.6800892 
C    -2.7384308    3.1329145   -1.8660564 
C     0.4727016    4.1784738   -0.5468279 
C     0.4890164    2.8630066    1.6503457 
C    -4.2143854    3.4372357    0.7014052 
C    -4.2010162    3.6156349   -1.8080127 
C     1.6006030    5.0761660   -0.0030296 
C     1.6146852    3.7746849    2.1674608 
C    -4.5025820    4.3523679   -0.4960322 
C     1.5488918    5.1719212    1.5301478 
C     2.4874524   -0.8508015   -1.8686377 
C    -0.1309178   -2.1877274   -2.8515773 
C     3.0393527    0.2850515    0.8461295 
C     2.6920250   -2.5144230    0.3459242 
C     0.6362414   -4.4916958   -3.3100248 
C     2.8981458    0.2917856    2.2520239 
C     3.9498808   -2.6520452    0.9627313 
C     4.0414673    1.0813102    0.2600874 
C     2.0094398   -3.6623459   -0.1084282 
C     3.7676387    1.0409663    3.0531905 
C     4.5257079   -3.9242210    1.1009679 
C     4.9012244    1.8470638    1.0639305 
C     2.5971440   -4.9257388    0.0175182 
C     4.7766973    1.8171575    2.4598103 
C     3.8574423   -5.0590794    0.6213749 
H    -0.5938513    2.3525185   -2.8876853 
H    -3.0336420    1.3245920   -0.7441123 
H     1.5093027    2.3295853   -0.1443016 
H     1.4966522    1.7900556   -3.7153593 
H     1.9661068    1.7156882   -2.0133497 
H     2.0414094   -0.4205277   -3.9069677 
H    -1.7620916   -0.1582854   -2.5064631 
H    -1.1160335    0.3493210   -4.0959270 
H    -2.5933787    2.2253940    1.5230758 
H    -2.0920038    3.7831011    0.8356455 
H    -2.0659672    4.0110480   -1.8921689 
H    -2.5908583    2.5818464   -2.8105401 
H     0.5490114    4.0993466   -1.6464851 
H    -0.5021623    4.6518454   -0.3283245 
H    -0.4818545    3.2621892    1.9880017 
H     0.5829414    1.8470668    2.0765019 
H    -4.9093710    2.5803084    0.6709409 
H    -4.3949863    3.9661223    1.6546002 
H    -4.8713423    2.7383598   -1.8984113 
H    -4.4024408    4.2647077   -2.6790878 
H     1.5287549    6.0791706   -0.4605161 
H     2.5783178    4.6544246   -0.3106152 
H     2.5890940    3.3127088    1.9275448 
H     1.5590956    3.8443077    3.2687331 
H    -3.8756353    5.2642292   -0.4317233 
H    -5.5543013    4.6892247   -0.4764084 
H     2.3773350    5.8011996    1.9015332 
H     0.6092204    5.6746470    1.8336461 
H     3.4751304   -0.3634067   -1.9333689 
H     2.6570647   -1.9144066   -2.0919773 
H     1.5529254   -2.6775194   -3.9343646 
H     1.5827960   -5.0107656   -3.0862017 
H     0.2462469   -4.8452297   -4.2824992 
H    -0.1083730   -4.7299147   -2.5364802 
H     2.1108471   -0.3124460    2.7176750 
H     4.4901298   -1.7716489    1.3237542 
H     4.1752917    1.1047234   -0.8261230 
H     1.0156218   -3.5607107   -0.5581554 
H     3.6545594    1.0247607    4.1419037 
H     5.5060088   -4.0240152    1.5785831 
H     5.6770144    2.4601259    0.5939408 
H     2.0589649   -5.8107566   -0.3355963 
H     5.4555015    2.4062366    3.0845626 
H     4.3122053   -6.0493641    0.7266687 
