109
Energy =
C    -2.2526686   -0.9627301    1.3115670 
C    -1.8948698   -2.1142077    0.5795292 
C    -0.6903229   -2.8266579    0.8551543 
H    -2.4979933   -2.4209144   -0.2848439 
Pd   -0.2076206   -0.7401771    0.2100533 
P     2.1281559   -1.1392268    0.1864345 
P    -0.1896372    1.5632232   -0.3166947 
H    -1.7105751   -0.7863110    2.2531086 
H    -0.3156487   -2.8004297    1.8892971 
C    -6.0616336    1.0352106    1.2737445 
C    -5.0296118    1.4736183    2.1180756 
C    -3.7867586    0.8307860    2.0965616 
C    -3.5389693   -0.2537729    1.2204273 
C    -4.5858775   -0.6726471    0.3650277 
C    -5.8336932   -0.0415474    0.4003942 
H    -7.0402879    1.5248273    1.2991644 
H    -5.1994498    2.3076006    2.8067734 
H    -2.9937476    1.1600800    2.7770729 
H    -4.4373226   -1.5184746   -0.3133087 
H    -6.6357064   -0.3918489   -0.2571525 
C     0.2292355   -6.4187531   -1.3184540 
C     0.3723790   -6.3724636    0.0759937 
C     0.1067229   -5.1869634    0.7711137 
C    -0.3245332   -4.0327908    0.0840282 
C    -0.4493365   -4.0847853   -1.3231542 
C    -0.1733252   -5.2682476   -2.0161093 
H     0.4430325   -7.3441886   -1.8630947 
H     0.7016504   -7.2605562    0.6248282 
H     0.2285228   -5.1531645    1.8588193 
H    -0.7308120   -3.1804364   -1.8759210 
H    -0.2622470   -5.2932266   -3.1063561 
O     2.1328876   -2.2169314   -3.4887159 
N     1.3050273   -0.1720733   -2.8468907 
N     0.0204036   -1.6292101   -4.1652478 
C     0.7490699    1.9194150   -1.8972620 
C    -1.8911116    2.3194560   -0.5924334 
C     0.6535643    2.5830954    1.0163028 
C     2.2824047    1.7200308   -1.7778361 
C     2.5923429    0.2935007   -2.3033285 
C     0.3558546    0.9222851   -3.0071827 
C    -1.9390513    3.8554135   -0.7541280 
C    -2.6625327    1.6313209   -1.7423174 
C     1.2196654    3.9701715    0.6297510 
C    -0.2498909    2.6565085    2.2705679 
C    -3.3910680    4.3599641   -0.8735520 
C    -4.1091792    2.1464941   -1.8366491 
C     1.9605328    4.5921341    1.8287920 
C     0.4703149    3.3412525    3.4460609 
C    -4.1449301    3.6703275   -2.0185778 
C     1.0351711    4.7140374    3.0498440 
C     3.1947506   -0.6588993   -1.2622808 
C     1.2144919   -1.3890494   -3.5156906 
C     2.7562584   -0.2205932    1.6623338 
C     2.7275965   -2.8604107    0.4778203 
C    -0.1605719   -2.8219054   -4.9843191 
C     3.9524990    0.5227008    1.6795893 
C     2.8348468   -3.7348602   -0.6269980 
C     1.9939676   -0.3055020    2.8501933 
C     3.0734818   -3.3229741    1.7633323 
C     4.3752289    1.1645890    2.8539691 
C     3.3263678   -5.0334041   -0.4444618 
C     2.4319166    0.3110537    4.0285105 
C     3.5530135   -4.6301934    1.9355352 
C     3.6238480    1.0527345    4.0319873 
C     3.6921368   -5.4836098    0.8325021 
H     0.5038818    2.9534797   -2.1916882 
H    -2.4164091    2.0588883    0.3463462 
H     1.5168946    1.9452842    1.2861756 
H     2.7967297    2.4742226   -2.3960417 
H     2.6532002    1.8485302   -0.7474435 
H     3.3366610    0.3494070   -3.1222732 
H    -0.6710421    0.5451189   -2.8894186 
H     0.4377195    1.4071602   -4.0047499 
H    -1.4607548    4.3486988    0.1062675 
H    -1.3707359    4.1577650   -1.6557831 
H    -2.1617616    1.8536666   -2.7034960 
H    -2.6476081    0.5328797   -1.6043017 
H     1.9054801    3.8870200   -0.2302754 
H     0.4090651    4.6502891    0.3190183 
H    -1.1739736    3.2179574    2.0349320 
H    -0.5593347    1.6336684    2.5577709 
H    -3.9164596    4.1594798    0.0809375 
H    -3.3858753    5.4562824   -1.0099822 
H    -4.6495887    1.8763565   -0.9133794 
H    -4.6272291    1.6380020   -2.6698537 
H     2.3598261    5.5814953    1.5424948 
H     2.8308477    3.9569792    2.0881635 
H     1.3008968    2.6929088    3.7794719 
H    -0.2254023    3.4362676    4.2993556 
H    -3.6770176    3.9426306   -2.9856748 
H    -5.1892382    4.0274914   -2.0610530 
H     1.5785788    5.1610803    3.9012518 
H     0.2021723    5.4042490    2.8093178 
H     4.1443570   -0.2438979   -0.8847474 
H     3.4368169   -1.6018633   -1.7709644 
H    -0.6291199   -0.8604583   -4.3087146 
H    -0.1052448   -2.5897321   -6.0639676 
H    -1.1348661   -3.2940059   -4.7692528 
H     0.6502472   -3.5206564   -4.7327478 
H     4.5717736    0.6076655    0.7817878 
H     2.5414454   -3.4106154   -1.6320297 
H     1.0495857   -0.8624860    2.8468280 
H     3.0025633   -2.6617053    2.6320768 
H     5.3045985    1.7433172    2.8477761 
H     3.4116315   -5.6978507   -1.3098281 
H     1.8350961    0.2231140    4.9420517 
H     3.8348039   -4.9726323    2.9368378 
H     3.9621399    1.5459273    4.9488332 
H     4.0782907   -6.4990718    0.9686721 
