109
Energy =
C    -1.9954910   -0.2357984    2.3251175 
C    -1.6782364   -1.5797608    2.0049396 
C    -0.4163668   -2.1285720    2.3432848 
H    -2.3729089   -2.1792167    1.4032399 
Pd   -0.1953398   -0.3544717    0.9191316 
P     1.8873829   -1.1211695    0.0781579 
P    -0.5337096    1.7068873   -0.1858787 
H    -1.3925476    0.2300329    3.1190118 
H     0.1262602   -1.6627880    3.1796797 
C    -5.8312218    1.6610729    1.8562943 
C    -4.8206285    2.2589898    2.6250460 
C    -3.5788893    1.6279033    2.7617797 
C    -3.3103874    0.3959806    2.1199150 
C    -4.3428954   -0.1984768    1.3572578 
C    -5.5891362    0.4250832    1.2338715 
H    -6.8060999    2.1476382    1.7520274 
H    -5.0043135    3.2138239    3.1282305 
H    -2.8022242    2.0858136    3.3838869 
H    -4.1776785   -1.1581296    0.8578074 
H    -6.3787829   -0.0550840    0.6471375 
C     0.6289103   -6.2363122    1.6246896 
C    -0.0901964   -5.5235645    0.6505197 
C    -0.4309754   -4.1851467    0.8687003 
C    -0.0445828   -3.5275423    2.0581742 
C     0.6895446   -4.2507284    3.0224954 
C     1.0125201   -5.5964476    2.8123384 
H     0.8914327   -7.2856558    1.4550473 
H    -0.3837054   -6.0125298   -0.2841202 
H    -0.9824554   -3.6367524    0.0991421 
H     1.0095601   -3.7500006    3.9421902 
H     1.5775365   -6.1432127    3.5740066 
O     2.2341110   -0.2331872   -4.4371247 
N     2.4764373    0.9546591   -2.5012749 
N     4.3307740   -0.1022644   -3.4845334 
C     0.8515589    2.2264341   -1.3172039 
C    -2.0023308    1.7877559   -1.3825174 
C    -0.7513338    3.1364853    1.0067506 
C     2.2249846    2.3344481   -0.6039185 
C     3.1229870    1.2417533   -1.2230111 
C     1.0407586    1.2167941   -2.4775465 
C    -2.3796203    0.3710653   -1.8751278 
C    -3.2501043    2.5293045   -0.8551486 
C     0.0994205    3.0061625    2.2914713 
C    -0.5651292    4.5376872    0.3826262 
C    -3.4911890    0.4201863   -2.9378115 
C    -4.3576216    2.5720170   -1.9255205 
C    -0.2795017    4.1019277    3.3053264 
C    -0.9549113    5.6327445    1.3936481 
C    -4.7303455    1.1674382   -2.4238841 
C    -0.1439792    5.5066839    2.6939040 
C     3.3321200    0.0142521   -0.3099770 
C     2.9757468    0.1810140   -3.5476685 
C     2.7829226   -2.1887543    1.2887235 
C     1.6765559   -2.1143092   -1.4477495 
C     4.9815839   -0.7766951   -4.6018649 
C     3.0809768   -1.6232922    2.5478055 
C     0.3746044   -2.3023498   -1.9520272 
C     3.1989652   -3.5017746    1.0066978 
C     2.7711738   -2.6647015   -2.1481039 
C     3.8147942   -2.3483535    3.4946963 
C     0.1648749   -3.0120005   -3.1407415 
C     3.9357435   -4.2232523    1.9585809 
C     2.5571061   -3.3785557   -3.3329196 
C     4.2529259   -3.6490110    3.1964418 
C     1.2578907   -3.5489127   -3.8336462 
H     0.5631388    3.2088618   -1.7262330 
H    -1.6124727    2.3595745   -2.2485261 
H    -1.8111515    3.0287109    1.3085644 
H     2.6605931    3.3302721   -0.7839224 
H     2.1530040    2.2045466    0.4886813 
H     4.1311876    1.6648270   -1.4011084 
H     0.4781839    0.2769362   -2.3104719 
H     0.7133375    1.6095251   -3.4531628 
H    -1.4941819   -0.1378614   -2.2908787 
H    -2.7131836   -0.2262451   -1.0037707 
H    -3.6319755    2.0175087    0.0430374 
H    -2.9978073    3.5603325   -0.5562533 
H    -0.0283125    2.0015614    2.7347185 
H     1.1729630    3.1043543    2.0422956 
H     0.4966934    4.6715861    0.0994151 
H    -1.1582581    4.6434007   -0.5435739 
H    -3.1003934    0.9278775   -3.8414706 
H    -3.7540148   -0.6084743   -3.2448217 
H    -4.0140814    3.1865740   -2.7811748 
H    -5.2438413    3.0809120   -1.5053707 
H     0.3502075    4.0099037    4.2084177 
H    -1.3266731    3.9461249    3.6322365 
H    -2.0360768    5.5458775    1.6195219 
H    -0.8052144    6.6285134    0.9396765 
H    -5.1802515    0.5954319   -1.5904156 
H    -5.4964137    1.2328695   -3.2168917 
H    -0.4647234    6.2725626    3.4220261 
H     0.9240792    5.7060192    2.4763128 
H     3.7258940    0.3496078    0.6658368 
H     4.0976854   -0.6499437   -0.7484378 
H     4.9166544    0.4990908   -2.9076440 
H     4.2165357   -1.3738023   -5.1193541 
H     5.7803009   -1.4399779   -4.2286407 
H     5.4156246   -0.0648175   -5.3296379 
H     2.7365479   -0.6092406    2.7896665 
H    -0.4736900   -1.8724691   -1.4060973 
H     2.9317049   -3.9760856    0.0584063 
H     3.7943617   -2.5259803   -1.7863096 
H     4.0462578   -1.8979784    4.4656436 
H    -0.8510968   -3.1359440   -3.5293778 
H     4.2488971   -5.2471121    1.7307105 
H     3.4127174   -3.7917890   -3.8762382 
H     4.8296113   -4.2159830    3.9344051 
H     1.1003088   -4.0929224   -4.7702621 
