109
Energy =
C    -2.1784049   -0.2755713    1.9656779 
C    -1.7321095   -1.6187135    1.8050000 
C    -0.4850203   -2.0442657    2.3131224 
H    -2.3165101   -2.3150269    1.1906729 
Pd   -0.2469934   -0.3356491    0.7938770 
P     1.8433392   -1.0861488   -0.0058561 
P    -0.3168689    1.8078502   -0.1369006 
H    -1.7664199    0.2763445    2.8234820 
H    -0.0427148   -1.4487314    3.1266524 
C    -6.1131300    1.0524701    0.8133225 
C    -5.3804044    1.7452230    1.7883464 
C    -4.0932231    1.3165164    2.1365437 
C    -3.5033163    0.1929527    1.5115339 
C    -4.2475799   -0.4800576    0.5140794 
C    -5.5398264   -0.0629977    0.1795072 
H    -7.1238887    1.3776116    0.5473251 
H    -5.8188564    2.6125891    2.2925396 
H    -3.5423917    1.8449742    2.9221542 
H    -3.8151635   -1.3426856   -0.0038766 
H    -6.1023689   -0.6054279   -0.5872099 
C     0.9543741   -6.0898574    2.1476663 
C     1.2370712   -5.2710235    3.2506259 
C     0.7863198   -3.9462549    3.2762822 
C     0.0221363   -3.4236948    2.2102020 
C    -0.2583493   -4.2598829    1.1057492 
C     0.2099103   -5.5767595    1.0720107 
H     1.3158749   -7.1230433    2.1220050 
H     1.8227220   -5.6605658    4.0893493 
H     1.0268343   -3.3051526    4.1307877 
H    -0.8284074   -3.8714037    0.2570761 
H    -0.0051570   -6.2061915    0.2022849 
O     3.7767242   -0.6201187   -3.7619929 
N     2.0550405    0.4810575   -2.7401569 
N     1.6783335   -0.7370269   -4.7035793 
C     0.7811504    2.1694593   -1.6174039 
C    -1.9769011    2.4224877   -0.7502345 
C     0.2153214    3.0205420    1.2030013 
C     2.2957352    2.3592402   -1.3642365 
C     2.9615232    1.0226597   -1.7266487 
C     0.7101978    1.0450614   -2.6920674 
C    -2.0116905    3.9137834   -1.1582539 
C    -2.5327333    1.5415072   -1.8922133 
C    -0.9507065    3.4197057    2.1376215 
C     1.3566228    2.4233315    2.0646611 
C    -3.4479660    4.3387716   -1.5206548 
C    -3.9579327    1.9773070   -2.2785930 
C    -0.4851521    4.4165162    3.2154676 
C     1.8376659    3.4136314    3.1390259 
C    -4.0150460    3.4668397   -2.6518212 
C     0.6793704    3.8560104    4.0459637 
C     3.2324320    0.0331030   -0.5726692 
C     2.5793858   -0.3200972   -3.7528867 
C     2.7883021   -1.9955560    1.2900410 
C     1.5623623   -2.2484183   -1.3989986 
C     2.0867464   -1.5527974   -5.8366628 
C     3.2646035   -3.3097517    1.1389616 
C     2.6168967   -2.9126556   -2.0604889 
C     3.0683222   -1.2908255    2.4814463 
C     0.2347170   -2.4819413   -1.8157890 
C     4.0401186   -3.8950019    2.1513479 
C     2.3372144   -3.8211407   -3.0895387 
C     3.8415150   -1.8805178    3.4891218 
C    -0.0405602   -3.3853014   -2.8509235 
C     4.3381083   -3.1831063    3.3207311 
C     1.0119745   -4.0684326   -3.4785304 
H     0.3648100    3.1030274   -2.0289803 
H    -2.6386628    2.2811181    0.1252822 
H     0.5846469    3.9268619    0.6817691 
H     2.6632737    3.1269133   -2.0661507 
H     2.5464017    2.7100039   -0.3525625 
H     3.9396073    1.1982267   -2.2044148 
H    -0.0387615    0.2706319   -2.4232599 
H     0.4245474    1.4620247   -3.6780512 
H    -1.6162070    4.5599213   -0.3554024 
H    -1.3637533    4.0743196   -2.0418530 
H    -1.8835461    1.6394813   -2.7832127 
H    -2.5184086    0.4776758   -1.5902825 
H    -1.7918854    3.8525123    1.5728191 
H    -1.3342105    2.5047375    2.6269212 
H     0.9675994    1.5047802    2.5517105 
H     2.2056367    2.0998187    1.4394341 
H    -4.0895336    4.2438175   -0.6227108 
H    -3.4559640    5.4051770   -1.8085901 
H    -4.6305884    1.7891809   -1.4233570 
H    -4.3213591    1.3520959   -3.1142579 
H    -1.3378833    4.6748036    3.8686594 
H    -0.1696525    5.3566065    2.7221819 
H     2.2813450    4.2988030    2.6426500 
H     2.6439041    2.9491217    3.7350853 
H    -3.4275126    3.6416500   -3.5751670 
H    -5.0544731    3.7627628   -2.8796317 
H     1.0270783    4.6066000    4.7773508 
H     0.3231668    2.9847818    4.6311936 
H     3.6094250    0.5552944    0.3242940 
H     4.0278505   -0.6644391   -0.8888261 
H     0.6861436   -0.5681041   -4.5651395 
H     3.1661161   -1.7384141   -5.7335180 
H     1.8979782   -1.0333477   -6.7937388 
H     1.5541593   -2.5204003   -5.8414630 
H     3.0153704   -3.8917467    0.2478214 
H     3.6588625   -2.7119290   -1.7971738 
H     2.6798614   -0.2746524    2.6206009 
H    -0.5827036   -1.9468508   -1.3127540 
H     4.4004027   -4.9209029    2.0251383 
H     3.1634945   -4.3268925   -3.5985740 
H     4.0587678   -1.3220228    4.4056876 
H    -1.0760121   -3.5610224   -3.1615134 
H     4.9461467   -3.6443650    4.1056615 
H     0.8013491   -4.7834120   -4.2807551 
