109
Energy =
C    -1.8049162   -0.0941298    2.5427703 
C    -1.7244364   -1.4214750    2.0592361 
C    -0.5312325   -2.1771345    2.2148335 
H    -2.5551204   -1.8357809    1.4736941 
Pd   -0.1522723   -0.3062777    0.9718023 
P     1.9134064   -1.1200533    0.1541577 
P    -0.4513421    1.7164132   -0.1991708 
H    -1.0764039    0.1829284    3.3204747 
H     0.1300588   -1.9057906    3.0504906 
C    -5.2958494    2.4208140    2.5518839 
C    -5.1597418    1.4280347    1.5658488 
C    -4.0346943    0.5977803    1.5503396 
C    -3.0095209    0.7528867    2.5112814 
C    -3.1668630    1.7467854    3.5047197 
C    -4.3004229    2.5688204    3.5289713 
H    -6.1783017    3.0684310    2.5615851 
H    -5.9381147    1.3000737    0.8063240 
H    -3.9450097   -0.1702071    0.7762320 
H    -2.3909388    1.8694013    4.2685632 
H    -4.4031504    3.3304678    4.3085650 
C    -0.0420377   -6.2209840    0.8354819 
C    -0.9252506   -5.3601952    0.1616059 
C    -1.0905615   -4.0425813    0.5956469 
C    -0.3715539   -3.5521999    1.7108630 
C     0.5111438   -4.4293986    2.3789897 
C     0.6710359   -5.7519391    1.9478768 
H     0.0863515   -7.2530240    0.4934016 
H    -1.4814489   -5.7186546   -0.7105807 
H    -1.7737383   -3.3813344    0.0519979 
H     1.0719663   -4.0658795    3.2464948 
H     1.3584859   -6.4162997    2.4816741 
O     2.1704290   -0.6122367   -4.3912154 
N     2.4447894    0.7129363   -2.5534450 
N     4.2833415   -0.4115412   -3.4885517 
C     0.8496551    2.1138384   -1.4744243 
C    -2.0579846    1.6580512   -1.1685144 
C    -0.4670535    3.3214939    0.8043381 
C     2.2558400    2.3196507   -0.8452842 
C     3.1223052    1.1385316   -1.3318653 
C     1.0139099    1.0043170   -2.5401900 
C    -2.1660115    2.6824226   -2.3208250 
C    -2.3950750    0.2394379   -1.6851408 
C    -1.8562911    3.9735424    0.9826084 
C     0.2094228    3.1015598    2.1781341 
C    -3.5807764    2.6563544   -2.9303837 
C    -3.8044276    0.2066059   -2.3045254 
C    -1.7518847    5.2814159    1.7905775 
C     0.3155657    4.4152308    2.9713729 
C    -3.9485877    1.2484014   -3.4265593 
C    -1.0641598    5.0686847    3.1479937 
C     3.3367227    0.0202878   -0.2857607 
C     2.9280232   -0.1353622   -3.5473220 
C     2.7720468   -2.0527532    1.4956566 
C     1.7684125   -2.2363271   -1.2879558 
C     4.9178544   -1.1765621   -4.5546081 
C     2.9413269   -1.3856056    2.7296343 
C     0.4906785   -2.4521122   -1.8392230 
C     3.2558390   -3.3655597    1.3523720 
C     2.8896686   -2.8536627   -1.8841924 
C     3.6023933   -2.0133938    3.7922026 
C     0.3303432   -3.2611857   -2.9702783 
C     3.9274987   -3.9875698    2.4173405 
C     2.7232614   -3.6698696   -3.0086207 
C     4.1038957   -3.3168542    3.6344314 
C     1.4467997   -3.8712731   -3.5553059 
H     0.5218868    3.0524739   -1.9514105 
H    -2.8142999    1.9130981   -0.4016855 
H     0.1620058    4.0217607    0.2189389 
H     2.6863045    3.2656496   -1.2104509 
H     2.2398293    2.3757093    0.2559372 
H     4.1318510    1.5222457   -1.5778820 
H     0.4330313    0.0953166   -2.2886156 
H     0.6865204    1.3168654   -3.5450254 
H    -1.9184514    3.7015688   -1.9739525 
H    -1.4329225    2.4259673   -3.1088431 
H    -1.6575994   -0.0659514   -2.4503451 
H    -2.3108576   -0.4932148   -0.8590394 
H    -2.3141251    4.1889553    0.0031860 
H    -2.5291575    3.2727282    1.5058780 
H    -0.3930764    2.3719837    2.7498615 
H     1.2086188    2.6443318    2.0515321 
H    -4.3102444    2.9831245   -2.1632701 
H    -3.6413256    3.3856792   -3.7577404 
H    -4.5529525    0.4159447   -1.5150372 
H    -4.0203151   -0.8073503   -2.6868915 
H    -2.7638540    5.7018384    1.9314912 
H    -1.1789651    6.0258393    1.2030285 
H     0.9882590    5.1117688    2.4330564 
H     0.7831565    4.2203346    3.9534520 
H    -3.2803894    0.9730424   -4.2660801 
H    -4.9780529    1.2391318   -3.8263556 
H    -0.9677669    6.0298849    3.6833650 
H    -1.6980496    4.4156401    3.7786250 
H     3.6856073    0.4628443    0.6640802 
H     4.1357142   -0.6600948   -0.6302006 
H     4.8793599    0.2147995   -2.9507356 
H     5.6930841   -1.8408802   -4.1356315 
H     5.3783529   -0.5262591   -5.3225125 
H     4.1356811   -1.7810158   -5.0367917 
H     2.5457233   -0.3695589    2.8610207 
H    -0.3762971   -1.9692067   -1.3765049 
H     3.0907872   -3.9177849    0.4235333 
H     3.8965665   -2.6886754   -1.4885539 
H     3.7283158   -1.4863273    4.7436499 
H    -0.6666059   -3.4082330   -3.3977301 
H     4.2982589   -5.0104136    2.2942873 
H     3.5979610   -4.1393030   -3.4697520 
H     4.6244084   -3.8078457    4.4630550 
H     1.3267265   -4.4968030   -4.4454650 
