109
Energy =
C    -1.9639264   -0.2602219    2.3303684 
C    -1.6602364   -1.5957892    1.9726224 
C    -0.4077755   -2.1722236    2.3084359 
H    -2.3544715   -2.1657929    1.3423251 
Pd   -0.1312248   -0.3716885    0.9467949 
P     1.9862836   -1.0937161    0.1839718 
P    -0.4149582    1.6966298   -0.1478146 
H    -1.3574217    0.1771771    3.1376426 
H     0.1240317   -1.7478964    3.1732091 
C    -5.7528101    1.7308723    1.8690822 
C    -4.7296655    2.2981070    2.6445741 
C    -3.5044474    1.6353893    2.7798049 
C    -3.2638049    0.4020545    2.1292464 
C    -4.3096535   -0.1621565    1.3616151 
C    -5.5399009    0.4929812    1.2398479 
H    -6.7154833    2.2415534    1.7667121 
H    -4.8910272    3.2533313    3.1546399 
H    -2.7185801    2.0694303    3.4072790 
H    -4.1688406   -1.1245775    0.8599854 
H    -6.3408602    0.0349345    0.6506653 
C     0.6058061   -6.2619344    1.4491411 
C    -0.1069533   -5.5099391    0.4999525 
C    -0.4387827   -4.1779497    0.7652777 
C    -0.0496801   -3.5649887    1.9775300 
C     0.6763022   -4.3278279    2.9169188 
C     0.9906070   -5.6674806    2.6595538 
H     0.8618713   -7.3061991    1.2424388 
H    -0.4021912   -5.9637049   -0.4517744 
H    -0.9874598   -3.5993115    0.0158988 
H     1.0001122   -3.8618430    3.8534132 
H     1.5507662   -6.2444860    3.4022553 
O     4.4929229   -0.1231106   -3.0688617 
N     2.5644647    0.8539071   -2.3343663 
N     2.6480728   -0.1539939   -4.4462866 
C     0.9569423    2.2713633   -1.2791489 
C    -1.8846931    1.7869478   -1.3463355 
C    -0.6365426    3.1092863    1.0678673 
C     2.3334131    2.4207131   -0.5843649 
C     3.2097431    1.2579212   -1.0846703 
C     1.1920238    1.3159745   -2.4826447 
C    -2.2906441    0.3705475   -1.8151320 
C    -3.1198690    2.5591390   -0.8333277 
C     0.1893336    2.9374372    2.3646772 
C    -0.4276803    4.5235345    0.4817403 
C    -3.3933413    0.4247685   -2.8867386 
C    -4.2214014    2.6094690   -1.9096690 
C    -0.1885919    4.0157981    3.3972335 
C    -0.8205775    5.5973697    1.5141605 
C    -4.6195023    1.2063350   -2.3924153 
C    -0.0264892    5.4319790    2.8201884 
C     3.4049188    0.0902513   -0.0993488 
C     3.3126297    0.1691993   -3.2872472 
C     2.8319201   -2.1777480    1.4143579 
C     1.8537210   -2.0629844   -1.3681607 
C     3.3142905   -0.8370783   -5.5440309 
C     3.0602010   -1.6319198    2.6967519 
C     0.5749847   -2.2688613   -1.9233414 
C     3.2800595   -3.4796616    1.1305739 
C     2.9817948   -2.6140096   -2.0134570 
C     3.7550490   -2.3651140    3.6662851 
C     0.4174869   -3.0153946   -3.0989888 
C     3.9790741   -4.2089413    2.1048030 
C     2.8192147   -3.3696762   -3.1813606 
C     4.2251492   -3.6545413    3.3674258 
C     1.5412215   -3.5755149   -3.7239624 
H     0.6157230    3.2496961   -1.6562052 
H    -1.4876189    2.3379696   -2.2228342 
H    -1.7023518    3.0042475    1.3488189 
H     2.7884202    3.3797531   -0.8821912 
H     2.2595694    2.4266061    0.5146849 
H     4.2273212    1.6127658   -1.3226432 
H     0.4839097    0.4609313   -2.4797393 
H     1.0587161    1.8551163   -3.4410750 
H    -1.4121259   -0.1685217   -2.2102372 
H    -2.6431024   -0.2031479   -0.9361154 
H    -3.5150819    2.0655657    0.0695886 
H    -2.8481664    3.5884786   -0.5460768 
H     0.0370126    1.9252883    2.7822334 
H     1.2689252    3.0208793    2.1374652 
H     0.6386227    4.6554072    0.2159518 
H    -1.0083846    4.6582997   -0.4486994 
H    -2.9872511    0.9110142   -3.7959856 
H    -3.6771096   -0.6026995   -3.1791060 
H    -3.8622663    3.2070895   -2.7710381 
H    -5.0999715    3.1400334   -1.5006874 
H     0.4275423    3.8942569    4.3060548 
H    -1.2420651    3.8676295    3.7069137 
H    -1.9051666    5.5152441    1.7250220 
H    -0.6560828    6.6020878    1.0857931 
H    -5.0867607    0.6550611   -1.5550196 
H    -5.3782093    1.2766319   -3.1920095 
H    -0.3461291    6.1852511    3.5617409 
H     1.0464671    5.6221403    2.6195765 
H     3.7033444    0.4694773    0.8940066 
H     4.2330882   -0.5399120   -0.4682144 
H     1.6569766    0.0493952   -4.5366308 
H     4.3364836   -1.0706187   -5.2113783 
H     3.3658163   -0.1992980   -6.4455088 
H     2.7923962   -1.7767345   -5.7983958 
H     2.6934149   -0.6257748    2.9385174 
H    -0.2977460   -1.8381447   -1.4183895 
H     3.0688188   -3.9404365    0.1618038 
H     3.9899907   -2.4381672   -1.6294518 
H     3.9333432   -1.9288998    4.6547249 
H    -0.5825336   -3.1663856   -3.5194179 
H     4.3194767   -5.2232877    1.8734881 
H     3.7011349   -3.7864076   -3.6777234 
H     4.7731208   -4.2271324    4.1227056 
H     1.4235645   -4.1668735   -4.6381350 
