96
Energy =
C     0.2686467    2.6892345    1.9371734 
C     1.3311045    2.8598116    1.0040346 
C     1.0725693    3.1751690   -0.3516702 
H     2.3529018    2.6119596    1.3202777 
Pd    0.0673613    1.2075335    0.2791189 
P    -1.2268841   -0.3368341    1.4733298 
P     0.2021434    0.0753404   -1.7715922 
H    -0.6617249    3.2482071    1.7525441 
H     0.0975188    3.6336659   -0.5780935 
C     0.9809313    1.6517149    6.0514700 
C     0.0314201    2.6279208    5.7164020 
C    -0.2125941    2.9426237    4.3735267 
C     0.5062940    2.3011500    3.3436720 
C     1.4553408    1.3133689    3.6929474 
C     1.6876032    0.9890786    5.0335150 
H     1.1657195    1.4010597    7.1011512 
H    -0.5310065    3.1403714    6.5034991 
H    -0.9665197    3.6944150    4.1173271 
H     1.9940378    0.7780142    2.9027923 
H     2.4184473    0.2139362    5.2867064 
C     3.9856062    3.8174123   -3.4497844 
C     4.3637324    3.1447448   -2.2751557 
C     3.4313560    2.9255256   -1.2575060 
C     2.0929335    3.3636881   -1.3953465 
C     1.7311386    4.0442226   -2.5798956 
C     2.6673950    4.2722422   -3.5943409 
H     4.7194726    3.9903900   -4.2436251 
H     5.3941512    2.7960481   -2.1510121 
H     3.7538319    2.4151263   -0.3441983 
H     0.7018350    4.3956084   -2.7031252 
H     2.3632572    4.8025193   -4.5020440 
O    -1.6060849   -3.5257382   -2.1000551 
O    -3.4714868   -2.7041828   -1.0408251 
C    -1.2118362   -2.4000037   -1.3165278 
C    -2.3294914   -2.3661552   -0.2543357 
C    -3.0426830   -3.7151641   -1.9673500 
C    -1.1244641   -1.1490518   -2.2159266 
C    -2.6471056   -1.0742858    0.4930219 
C    -3.7372240   -3.4619569   -3.3002454 
C    -3.2805324   -5.1167178   -1.4056448 
C     1.7537302   -0.9015668   -1.8843893 
C     0.1581000    1.1504331   -3.2590896 
C    -2.1181184    0.3682325    2.9160081 
C    -0.2925491   -1.7868141    2.0908149 
C     1.8844020   -2.0259568   -2.7272722 
C    -0.9362345    2.0306304   -3.3974021 
C    -3.1082662    1.3415167    2.6577443 
C    -0.9235449   -2.8098314    2.8337271 
C     2.8517296   -0.5044334   -1.0947051 
C     1.1404399    1.0960984   -4.2645651 
C    -1.8344291    0.0040264    4.2450173 
C     1.0708898   -1.9109680    1.7623103 
C     3.0948050   -2.7319644   -2.7735548 
C    -1.0596111    2.8260875   -4.5435611 
C    -3.8265106    1.9146001    3.7144357 
C    -0.1919642   -3.9330788    3.2397031 
C     4.0619462   -1.2074670   -1.1479512 
C     1.0155467    1.9018446   -5.4061292 
C    -2.5604527    0.5799200    5.2982546 
C     1.7982672   -3.0396318    2.1653375 
C     4.1841276   -2.3245159   -1.9881946 
C    -0.0836384    2.7599923   -5.5514703 
C    -3.5589823    1.5275708    5.0376087 
C     1.1677593   -4.0498473    2.9053506 
H    -0.2302997   -2.6370367   -0.8692983 
H    -2.1134319   -3.1679740    0.4797507 
H    -0.9148700   -1.4828770   -3.2462938 
H    -2.0872947   -0.6105410   -2.2576097 
H    -2.9991752   -0.3039190   -0.2140319 
H    -3.4745353   -1.2739569    1.1943792 
H    -4.8285060   -3.5661571   -3.1852304 
H    -3.3862134   -4.1879447   -4.0509526 
H    -3.5117078   -2.4423131   -3.6508252 
H    -2.8480036   -5.8703501   -2.0835209 
H    -4.3609837   -5.3060949   -1.2980566 
H    -2.7959981   -5.2195428   -0.4207996 
H     1.0468652   -2.3669437   -3.3435644 
H    -1.6936195    2.0941829   -2.6057080 
H    -3.3236174    1.6511520    1.6277240 
H    -1.9841365   -2.7289010    3.0968687 
H     2.7455736    0.3610148   -0.4323631 
H     2.0054403    0.4345946   -4.1551171 
H    -1.0385450   -0.7126412    4.4661557 
H     1.5564992   -1.1259838    1.1734801 
H     3.1848017   -3.6064924   -3.4259897 
H    -1.9155790    3.5007104   -4.6494529 
H    -4.5991684    2.6615369    3.5045379 
H    -0.6852686   -4.7226156    3.8158569 
H     4.9078581   -0.8846356   -0.5320691 
H     1.7862408    1.8598972   -6.1825344 
H    -2.3303327    0.2916289    6.3287582 
H     2.8554577   -3.1280179    1.8948430 
H     5.1265405   -2.8803800   -2.0292025 
H    -0.1785059    3.3833550   -6.4465609 
H    -4.1232732    1.9729307    5.8633038 
H     1.7332347   -4.9325743    3.2212859 
