96
Energy =
C     0.0503049    2.6907586    2.0324054 
C     1.1674964    2.8688758    1.1810431 
C     0.9994640    3.1660875   -0.2019553 
H     2.1764174    2.6463681    1.5526684 
Pd    0.0330535    1.2118075    0.2752281 
P    -0.9845168   -0.6033540    1.3584819 
P     0.0750601    0.3685278   -1.9103124 
H    -0.9007752    3.1370634    1.7028237 
H     0.0916431    3.7163900   -0.4940254 
C     0.1271433    1.8332728    6.2458663 
C    -1.0230704    2.3549948    5.6373659 
C    -1.0320065    2.6177237    4.2631062 
C     0.1101247    2.3719567    3.4679018 
C     1.2679728    1.8596145    4.0995554 
C     1.2735484    1.5886162    5.4705121 
H     0.1361413    1.6230744    7.3202925 
H    -1.9198004    2.5540586    6.2322177 
H    -1.9358279    3.0188052    3.7936287 
H     2.1778691    1.6767764    3.5190285 
H     2.1783813    1.1902029    5.9409434 
C     4.3405816    3.6125875   -2.8759636 
C     4.3240815    2.5541518   -1.9517128 
C     3.2383046    2.3976817   -1.0841753 
C     2.1438838    3.2913262   -1.1293347 
C     2.1626787    4.3363919   -2.0760839 
C     3.2575261    4.5016285   -2.9340479 
H     5.1921915    3.7374464   -3.5527033 
H     5.1585527    1.8462422   -1.9117071 
H     3.2212798    1.5578623   -0.3800570 
H     1.3120155    5.0232953   -2.1380093 
H     3.2586264    5.3221488   -3.6587508 
O    -2.8272453   -2.4962571   -2.4840244 
O    -1.9586135   -3.8502862   -0.8440264 
C    -1.5219005   -2.0190084   -2.1594320 
C    -1.3497211   -2.5649033   -0.7273359 
C    -2.9255205   -3.8188147   -1.9313842 
C    -1.4985486   -0.5162401   -2.4224100 
C    -2.0636653   -1.7526412    0.3734856 
C    -4.3385042   -4.0032185   -1.3906548 
C    -2.5144952   -4.8775300   -2.9544296 
C     1.4087299   -0.8458016   -2.2330662 
C     0.2031170    1.6518282   -3.2178815 
C    -2.1412983   -0.1568854    2.7122007 
C     0.2757764   -1.7156487    2.0999288 
C     1.5715070   -1.4420577   -3.5038019 
C     1.3196357    1.7748379   -4.0650275 
C    -3.2028174    0.7195708    2.4022143 
C     0.0230142   -3.0779441    2.3684659 
C     2.2467509   -1.2388550   -1.1722073 
C    -0.8671818    2.5649485   -3.3408370 
C    -2.0288542   -0.6837625    4.0115890 
C     1.5418943   -1.1785794    2.4090189 
C     2.5624732   -2.4121106   -3.7002276 
C     1.3450250    2.7755298   -5.0479896 
C    -4.1581139    1.0399693    3.3749803 
C     1.0232365   -3.8790911    2.9371335 
C     3.2336122   -2.2145094   -1.3713777 
C    -0.8333291    3.5634856   -4.3219984 
C    -2.9836828   -0.3512690    4.9839648 
C     2.5371491   -1.9795236    2.9832719 
C     3.3929457   -2.7999570   -2.6353034 
C     0.2707686    3.6646744   -5.1840071 
C    -4.0505982    0.5014679    4.6676085 
C     2.2782473   -3.3330496    3.2473253 
H    -0.7599478   -2.5119223   -2.7957506 
H    -0.2863572   -2.7252274   -0.4762297 
H    -1.6431833   -0.3510174   -3.5031178 
H    -2.3400300   -0.0270324   -1.9029528 
H    -2.9049252   -1.1664032   -0.0354051 
H    -2.5058893   -2.4644655    1.0910526 
H    -4.4300372   -4.9889151   -0.9071563 
H    -5.0707748   -3.9384235   -2.2119810 
H    -4.5608975   -3.2167079   -0.6521444 
H    -3.2284761   -4.8938865   -3.7939568 
H    -2.4949243   -5.8711351   -2.4780990 
H    -1.5056990   -4.6608481   -3.3425737 
H     0.9264234   -1.1485194   -4.3394723 
H     2.1782068    1.1070234   -3.9518750 
H    -3.2819932    1.1525460    1.3968962 
H    -0.9454833   -3.5279131    2.1289290 
H     2.1111331   -0.7890395   -0.1832975 
H    -1.7332459    2.4946341   -2.6713558 
H    -1.1954159   -1.3449613    4.2683863 
H     1.7409302   -0.1245791    2.1888468 
H     2.6849899   -2.8704131   -4.6869359 
H     2.2195082    2.8644923   -5.7002045 
H    -4.9854417    1.7127136    3.1259559 
H     0.8198851   -4.9362430    3.1361168 
H     3.8720728   -2.5180606   -0.5354062 
H    -1.6719175    4.2611427   -4.4167777 
H    -2.8879319   -0.7594610    5.9952781 
H     3.5146944   -1.5476592    3.2219668 
H     4.1626915   -3.5623464   -2.7936400 
H     0.2952367    4.4428244   -5.9537285 
H    -4.7961497    0.7531752    5.4289085 
H     3.0548100   -3.9641232    3.6917283 
