96
Energy =
C     0.8200995    2.1451949    2.2245409 
C     1.9382482    2.1141564    1.3514515 
C     1.8414444    2.6209860    0.0276753 
H     2.8430869    1.5745512    1.6554939 
Pd    0.3538564    0.9454983    0.3487803 
P    -1.1651734   -0.5087489    1.3712390 
P     0.0301083    0.4519689   -1.9086524 
H     0.0513598    2.9011668    2.0056034 
H     1.0592691    3.3718969   -0.1633150 
C     0.7128363    0.7914107    6.3024102 
C     1.7786608    0.4050618    5.4722932 
C     1.8175413    0.8134620    4.1368028 
C     0.7950407    1.6327850    3.6036425 
C    -0.2806119    1.9982194    4.4458420 
C    -0.3214774    1.5823873    5.7818714 
H     0.6883141    0.4712195    7.3490913 
H     2.5810785   -0.2247791    5.8686204 
H     2.6507861    0.4904872    3.5053940 
H    -1.0860482    2.6244584    4.0477063 
H    -1.1584463    1.8846308    6.4196945 
C     4.9607915    2.6424359   -2.9355912 
C     5.0661815    1.7859516   -1.8263243 
C     4.0636110    1.7658100   -0.8532623 
C     2.9287599    2.6029596   -0.9661693 
C     2.8441233    3.4694352   -2.0795001 
C     3.8485186    3.4877517   -3.0549807 
H     5.7470482    2.6539878   -3.6972699 
H     5.9351032    1.1277501   -1.7238297 
H     4.1610977    1.0839303   -0.0017883 
H     1.9811021    4.1363128   -2.1734242 
H     3.7621665    4.1674350   -3.9092281 
O    -2.4806075   -2.7359952   -2.4594228 
O    -1.4670111   -3.9584004   -0.8000750 
C    -1.2737941   -2.0694337   -2.0925335 
C    -1.0657769   -2.5970838   -0.6558255 
C    -2.3870487   -4.0652390   -1.9219692 
C    -1.4660218   -0.5769569   -2.3375269 
C    -1.9444211   -1.9097329    0.4073310 
C    -3.7704596   -4.4790024   -1.4345429 
C    -1.7790899   -5.0312516   -2.9388912 
C     1.3935172   -0.4343324   -2.7466955 
C    -0.3068247    2.0057754   -2.8256496 
C    -2.6486272    0.3081400    2.0764938 
C    -0.2981379   -1.4152945    2.7148166 
C     1.3450736   -0.7503969   -4.1230826 
C    -1.3704760    2.8071420   -2.3526017 
C    -3.6652502   -0.4334565    2.7185561 
C     0.9288278   -2.0296856    2.3777607 
C     2.4765991   -0.8867010   -1.9699105 
C     0.4582706    2.4474242   -3.9213362 
C    -2.8157751    1.6973197    1.9078408 
C    -0.7957990   -1.5431773    4.0244884 
C     2.3805013   -1.4896645   -4.7080758 
C    -1.6754310    4.0197207   -2.9822481 
C    -4.8057421    0.2145636    3.2109302 
C     1.6194223   -2.7988724    3.3224936 
C     3.5091968   -1.6297891   -2.5588570 
C     0.1467734    3.6642179   -4.5481305 
C    -3.9609422    2.3419411    2.3964392 
C    -0.0935942   -2.3053642    4.9690613 
C     3.4638992   -1.9271620   -3.9277587 
C    -0.9170910    4.4495155   -4.0841636 
C    -4.9530588    1.6020954    3.0558763 
C     1.1042315   -2.9441270    4.6194731 
H    -0.4279066   -2.4324822   -2.7113240 
H    -0.0002908   -2.5937235   -0.3657967 
H    -1.6919650   -0.4240403   -3.4069939 
H    -2.3236099   -0.1851190   -1.7639210 
H    -2.8764329   -1.5336733   -0.0495999 
H    -2.2249255   -2.6772322    1.1482115 
H    -3.7209850   -5.4745254   -0.9652457 
H    -4.4754297   -4.5168863   -2.2810330 
H    -4.1387963   -3.7496734   -0.6959015 
H    -2.4543872   -5.1509931   -3.8017355 
H    -1.6155654   -6.0147356   -2.4693492 
H    -0.8063897   -4.6513105   -3.2921705 
H     0.4980311   -0.4267562   -4.7379461 
H    -1.9599212    2.4820362   -1.4858133 
H    -3.5719161   -1.5182922    2.8350858 
H     1.3493452   -1.8974557    1.3733653 
H     2.5007330   -0.6522106   -0.8996665 
H     1.3089433    1.8591759   -4.2756676 
H    -2.0448941    2.2714256    1.3815113 
H    -1.7165898   -1.0336971    4.3206369 
H     2.3400005   -1.7302277   -5.7753770 
H    -2.5050250    4.6315130   -2.6131043 
H    -5.5851258   -0.3676039    3.7132937 
H     2.5631242   -3.2808533    3.0468110 
H     4.3498954   -1.9739044   -1.9478743 
H     0.7478763    4.0002940   -5.3994621 
H    -4.0791185    3.4217634    2.2589435 
H    -0.4847600   -2.3905065    5.9879171 
H     4.2701552   -2.5061550   -4.3897492 
H    -1.1549768    5.3980962   -4.5762226 
H    -5.8468475    2.1038489    3.4405852 
H     1.6439448   -3.5426052    5.3605109 
