96
Energy =
C     3.0048024    1.3958386    0.0667056 
C     2.3946967    1.9291920    1.2362733 
C     2.1263757    1.1017298    2.3581752 
H     1.9942912    2.9505743    1.2051604 
Pd    1.0876688    0.3234598    0.5050917 
P    -0.8010566   -0.5929386    1.5136077 
P     0.6608715   -0.5094808   -1.6330606 
H     3.6756745    0.5324326    0.1971268 
H     2.7463260    0.1976281    2.4605240 
C     3.7288763    3.6990111   -3.4956609 
C     2.5330168    3.8803305   -2.7803541 
C     2.2860498    3.1329089   -1.6245920 
C     3.2266585    2.1837613   -1.1631358 
C     4.4147082    1.9986883   -1.9009171 
C     4.6672737    2.7566305   -3.0512923 
H     3.9229075    4.2860402   -4.3992613 
H     1.7891471    4.6045960   -3.1285078 
H     1.3435218    3.2684078   -1.0830333 
H     5.1458578    1.2551198   -1.5668668 
H     5.5972056    2.6023158   -3.6078929 
C     0.3963057    2.3592261    6.0857786 
C     1.0367409    1.1164451    5.9753530 
C     1.5674471    0.7088051    4.7455061 
C     1.4737297    1.5373247    3.6033184 
C     0.7934751    2.7718744    3.7226262 
C     0.2692443    3.1793884    4.9520231 
H    -0.0098826    2.6861293    7.0484750 
H     1.1327750    0.4665805    6.8513080 
H     2.0776961   -0.2578573    4.6664114 
H     0.6744765    3.4218760    2.8503000 
H    -0.2474404    4.1412940    5.0272551 
O    -2.0420603   -2.3732142   -2.5143296 
O    -3.3780099   -2.9106547   -0.7279474 
C    -1.2132215   -2.8549725   -1.4630120 
C    -2.0824821   -2.5806548   -0.2178893 
C    -3.3989819   -2.6958295   -2.1620826 
C     0.2132525   -2.3385107   -1.6509773 
C    -2.1485457   -1.1475728    0.3438773 
C    -4.2791631   -1.5026493   -2.5220836 
C    -3.8361116   -4.0025633   -2.8218508 
C     2.1428992   -0.5482670   -2.7218465 
C    -0.6054330    0.4302626   -2.5616067 
C    -1.7051599    0.6315353    2.5401091 
C    -0.4908899   -2.0437911    2.5879039 
C     3.2215498   -1.3790010   -2.3465661 
C    -1.0676222    0.0213427   -3.8300202 
C    -2.2771105    1.7441663    1.8838612 
C    -1.5482687   -2.7060878    3.2508009 
C     2.2446331    0.2310425   -3.8890487 
C    -1.1054754    1.6173558   -1.9907074 
C    -1.8313595    0.5121787    3.9368301 
C     0.8241963   -2.5293178    2.7268152 
C     4.3647459   -1.4592280   -3.1513165 
C    -2.0207811    0.7915919   -4.5062674 
C    -2.9865691    2.7059203    2.6132308 
C    -1.2840893   -3.8285140    4.0458095 
C     3.3944929    0.1487747   -4.6882956 
C    -2.0674368    2.3814591   -2.6668403 
C    -2.5445060    1.4789466    4.6600017 
C     1.0846364   -3.6541358    3.5234193 
C     4.4492868   -0.7008921   -4.3299171 
C    -2.5254545    1.9671588   -3.9258807 
C    -3.1260061    2.5719736    4.0036695 
C     0.0311998   -4.3020171    4.1844053 
H    -1.1280093   -3.9624661   -1.5281668 
H    -1.8556129   -3.2974201    0.5890172 
H     0.8580905   -2.7959140   -0.8795812 
H     0.5614864   -2.7213803   -2.6256239 
H    -2.1905448   -0.4149160   -0.4802537 
H    -3.1020905   -1.0746047    0.8941536 
H    -5.3143727   -1.6887917   -2.1945968 
H    -4.2713162   -1.3413084   -3.6122922 
H    -3.9013413   -0.5910553   -2.0327686 
H    -3.8706039   -3.8845249   -3.9171699 
H    -4.8361017   -4.2897132   -2.4585201 
H    -3.1299163   -4.8097448   -2.5674878 
H     3.1709128   -1.9689879   -1.4233621 
H    -0.6974627   -0.9028701   -4.2814918 
H    -2.1805946    1.8533082    0.7978790 
H    -2.5770407   -2.3428123    3.1503688 
H     1.4358204    0.9100018   -4.1731242 
H    -0.7313494    1.9367547   -1.0101126 
H    -1.3700438   -0.3262901    4.4653856 
H     1.6427452   -2.0212149    2.2033715 
H     5.1908724   -2.1154823   -2.8581770 
H    -2.3785753    0.4688055   -5.4893363 
H    -3.4359544    3.5591173    2.0943997 
H    -2.1072701   -4.3364396    4.5586599 
H     3.4648017    0.7626116   -5.5918205 
H    -2.4534741    3.3001649   -2.2132342 
H    -2.6351881    1.3771253    5.7459704 
H     2.1098394   -4.0242246    3.6269021 
H     5.3422830   -0.7648668   -4.9600333 
H    -3.2752916    2.5611973   -4.4585701 
H    -3.6830132    3.3224991    4.5738245 
H     0.2327206   -5.1797251    4.8070976 
