96
Energy =
C     1.9079141    1.1805039    2.3151474 
C     2.7790738    1.0751958    1.1976510 
C     2.6052526    1.8658607    0.0360590 
H     3.5220649    0.2690031    1.1878252 
Pd    0.7422973    0.6025698    0.4766182 
P    -1.1331788   -0.3995123    1.4757622 
P    -0.2573013    0.5670879   -1.6533497 
H     1.3764720    2.1351412    2.4489325 
H     2.0379955    2.8015693    0.1525869 
C     2.5112263   -0.9767089    5.9826475 
C     2.9601679   -1.5310809    4.7722633 
C     2.7325938   -0.8631641    3.5653893 
C     2.0632078    0.3834821    3.5444059 
C     1.5859859    0.9098759    4.7653713 
C     1.8132604    0.2396521    5.9726518 
H     2.6948589   -1.4985079    6.9273995 
H     3.4889531   -2.4899371    4.7710486 
H     3.0762870   -1.3160091    2.6286947 
H     1.0479745    1.8639738    4.7653245 
H     1.4433240    0.6688362    6.9090178 
C     5.1104886    1.8000768   -3.4627838 
C     4.0152795    2.6730134   -3.3809271 
C     3.2074329    2.6780608   -2.2399121 
C     3.4652808    1.8045205   -1.1580094 
C     4.5680955    0.9240934   -1.2611993 
C     5.3841979    0.9287692   -2.3964647 
H     5.7490683    1.7993744   -4.3519114 
H     3.7900741    3.3523845   -4.2088360 
H     2.3575642    3.3666625   -2.1852126 
H     4.8070335    0.2395569   -0.4412112 
H     6.2419369    0.2502167   -2.4493245 
O    -1.7923413   -3.1987160   -2.0187549 
O    -0.4787808   -4.0290787   -0.3294035 
C    -0.8124496   -2.2090341   -1.7054116 
C    -0.4389081   -2.6070789   -0.2607105 
C    -1.3259876   -4.4288803   -1.4432515 
C    -1.4359122   -0.8412469   -1.9499769 
C    -1.4318193   -2.1224919    0.8154128 
C    -2.5333759   -5.2041514   -0.9310737 
C    -0.4678637   -5.2141721   -2.4356537 
C     0.8634483    0.4338102   -3.0975028 
C    -1.2784197    2.0607691   -1.9606604 
C    -2.6196635    0.6139573    1.0952484 
C    -1.2203661   -0.6318330    3.2959152 
C     1.9793258   -0.4225299   -2.9993821 
C    -0.7286318    3.3150421   -1.6194996 
C    -3.8993367    0.0600995    0.8896104 
C    -1.9556236    0.2547318    4.1087519 
C     0.6018849    1.1072305   -4.3070489 
C    -2.5759564    2.0071608   -2.5068129 
C    -2.4627161    2.0160000    1.0587246 
C    -0.5309099   -1.7085599    3.8937856 
C     2.8064761   -0.6271538   -4.1101772 
C    -1.4545411    4.4928740   -1.8301576 
C    -4.9943722    0.8959521    0.6292095 
C    -2.0308154    0.0414122    5.4926682 
C     1.4412065    0.9067852   -5.4117550 
C    -3.3047417    3.1887220   -2.7074029 
C    -3.5626525    2.8493803    0.8194539 
C    -0.6181655   -1.9194072    5.2747130 
C     2.5378278    0.0370386   -5.3166914 
C    -2.7475732    4.4310529   -2.3740227 
C    -4.8284514    2.2890804    0.5954963 
C    -1.3728737   -1.0499739    6.0763748 
H     0.0828825   -2.3336835   -2.3489586 
H     0.5920590   -2.3016924    0.0021965 
H    -1.7688441   -0.7939064   -3.0009588 
H    -2.3197198   -0.6955678   -1.3053465 
H    -2.4622571   -2.2033884    0.4299430 
H    -1.3560665   -2.8145867    1.6684898 
H    -2.2021970   -6.1319804   -0.4380828 
H    -3.2015760   -5.4627219   -1.7686056 
H    -3.0896163   -4.5908996   -0.2045780 
H    -1.0807214   -5.5457248   -3.2896177 
H    -0.0341276   -6.0968537   -1.9385675 
H     0.3581618   -4.5868458   -2.8091804 
H     2.2067830   -0.9144861   -2.0461502 
H     0.2711918    3.3642779   -1.1770320 
H    -4.0535567   -1.0227711    0.9385479 
H    -2.4924833    1.0974448    3.6618747 
H    -0.2541750    1.7856762   -4.3856045 
H    -3.0358061    1.0519898   -2.7730985 
H    -1.4685495    2.4534411    1.2081339 
H     0.0751935   -2.3904026    3.2878617 
H     3.6731010   -1.2900242   -4.0273717 
H    -1.0137449    5.4592553   -1.5645560 
H    -5.9829638    0.4559233    0.4625929 
H    -2.6189367    0.7259417    6.1127273 
H     1.2360960    1.4319390   -6.3503912 
H    -4.3146378    3.1339218   -3.1264261 
H    -3.4246252    3.9342616    0.7872113 
H    -0.0849004   -2.7617082    5.7257203 
H     3.1913463   -0.1159551   -6.1816247 
H    -3.3202419    5.3502957   -2.5344098 
H    -5.6872148    2.9375633    0.3939407 
H    -1.4416551   -1.2200843    7.1556507 
