96
Energy =
C     0.9985360    2.1642028    2.0756862 
C     2.0673945    2.1166059    1.1455689 
C     1.8701464    2.5156121   -0.2065298 
H     3.0129492    1.6422703    1.4338600 
Pd    0.5113213    0.7953072    0.3217460 
P     0.2315536    0.0536137   -1.8791586 
P    -0.7912244   -0.7079340    1.5437759 
H     0.1702525    2.8486016    1.8366593 
H     1.0714621    3.2486137   -0.3900228 
C     1.1747137    1.1765287    6.2544868 
C     2.2379438    0.8116710    5.4114361 
C     2.1863455    1.0975842    4.0447723 
C     1.0726468    1.7719249    3.4917711 
C     0.0013783    2.1153807    4.3488481 
C     0.0513651    1.8209932    5.7164279 
H     1.2219532    0.9541255    7.3254661 
H     3.1110135    0.2959043    5.8230750 
H     3.0216530    0.7959408    3.4057452 
H    -0.8734504    2.6290344    3.9356875 
H    -0.7841921    2.1047824    6.3645130 
C     4.9184187    2.5538467   -3.2370291 
C     3.7603785    3.3325354   -3.3762478 
C     2.7611343    3.2857048   -2.3959042 
C     2.9056599    2.4660188   -1.2532510 
C     4.0615537    1.6573706   -1.1461091 
C     5.0591576    1.7087288   -2.1231597 
H     5.7047814    2.5952170   -3.9976564 
H     3.6375856    3.9858684   -4.2462637 
H     1.8618484    3.9024054   -2.5035618 
H     4.1799162    0.9780836   -0.2956680 
H     5.9490019    1.0795729   -2.0219148 
O    -2.8195377   -3.3506672   -0.8455594 
O    -3.2931989   -1.7713638   -2.4427651 
C    -2.5136400   -2.0695285   -0.2972299 
C    -2.2931074   -1.2356917   -1.5800148 
C    -3.6220542   -3.1201798   -2.0142092 
C    -1.3693675   -2.2608384    0.6913662 
C    -0.8951807   -1.3903437   -2.2150191 
C    -3.2078389   -4.1291113   -3.0789881 
C    -5.1123801   -3.1570005   -1.6759427 
C    -2.3351049   -0.0233646    2.2550108 
C     0.2071968   -1.4315535    2.9055969 
C     1.8155016   -0.5122388   -2.6087745 
C    -0.4914116    1.3422681   -2.9696628 
C    -3.2252543   -0.8228355    3.0061457 
C    -0.1969754   -1.4551383    4.2523866 
C     2.4672456   -1.5784528   -1.9485444 
C    -0.9777984    2.5358688   -2.4002168 
C    -2.6741879    1.3172835    1.9855898 
C     1.4486249   -1.9991468    2.5419628 
C     2.4144096    0.0659067   -3.7428106 
C    -0.6441670    1.1319727   -4.3578391 
C    -4.4172170   -0.2755947    3.4983038 
C     0.6166846   -2.0705644    5.2148763 
C     3.6802302   -2.0781647   -2.4359365 
C    -1.5790971    3.5158892   -3.2024883 
C    -3.8692141    1.8612370    2.4773097 
C     2.2530032   -2.6174629    3.5068117 
C     3.6308174   -0.4386388   -4.2255099 
C    -1.2372429    2.1162562   -5.1586946 
C    -4.7382740    1.0666515    3.2388392 
C     1.8333161   -2.6603808    4.8456195 
C     4.2618448   -1.5111994   -3.5814610 
C    -1.7007759    3.3104794   -4.5841646 
H    -3.3928636   -1.6526554    0.2365987 
H    -2.5332976   -0.1674939   -1.4221489 
H    -1.6957267   -2.9715217    1.4702126 
H    -0.4926036   -2.7133512    0.1972272 
H    -0.4004812   -2.3256852   -1.9027088 
H    -1.0222410   -1.4437628   -3.3093426 
H    -3.7643278   -3.9415635   -4.0111206 
H    -3.4211486   -5.1543596   -2.7348875 
H    -2.1281160   -4.0372218   -3.2774383 
H    -5.4057533   -4.1698324   -1.3550831 
H    -5.7047843   -2.8730977   -2.5607960 
H    -5.3365140   -2.4430014   -0.8663806 
H    -2.9927261   -1.8741337    3.2076624 
H    -1.1317897   -0.9789761    4.5601684 
H     2.0216498   -2.0204655   -1.0485596 
H    -0.8960177    2.6866978   -1.3175991 
H    -1.9993987    1.9295562    1.3763135 
H     1.7882223   -1.9503969    1.4996820 
H     1.9497474    0.9204247   -4.2411653 
H    -0.2996763    0.2003969   -4.8197975 
H    -5.1002627   -0.9005487    4.0827402 
H     0.2976551   -2.0779967    6.2619777 
H     4.1726998   -2.9100993   -1.9218759 
H    -1.9563691    4.4373223   -2.7471660 
H    -4.1235145    2.9039830    2.2613758 
H     3.2095582   -3.0629320    3.2144952 
H     4.0901988    0.0217300   -5.1058323 
H    -1.3440260    1.9469968   -6.2350428 
H    -5.6718863    1.4895055    3.6237712 
H     2.4614383   -3.1423648    5.6017638 
H     5.2104304   -1.9010101   -3.9645714 
H    -2.1671224    4.0753888   -5.2135088 
