96
Energy =
C     1.2388057    1.9525681    2.1533813 
C     2.3531215    1.6170418    1.3519904 
C     2.3997731    2.0015667   -0.0235683 
H     3.1303759    0.9587800    1.7579663 
Pd    0.6325699    0.6733706    0.3398090 
P    -1.0338737   -0.6346745    1.3339596 
P    -0.1363881    0.5404282   -1.8543135 
H     0.5974370    2.7667620    1.7812568 
H     1.8530150    2.9148216   -0.3002141 
C     0.7427240    1.2961792    6.3620242 
C     1.7286332    0.5772482    5.6642523 
C     1.8842758    0.7464335    4.2867529 
C     1.0600083    1.6512748    3.5770804 
C     0.0497285    2.3427107    4.2870062 
C    -0.1037211    2.1723734    5.6672938 
H     0.6312680    1.1649458    7.4432100 
H     2.3771669   -0.1224335    6.2003671 
H     2.6541789    0.1742938    3.7602288 
H    -0.6067667    3.0340409    3.7463276 
H    -0.8800007    2.7286382    6.2025446 
C     5.6010077    0.9737034   -2.7179730 
C     5.3908555    0.2061778   -1.5603541 
C     4.3467677    0.5205347   -0.6847810 
C     3.4960300    1.6237190   -0.9356329 
C     3.7239390    2.3855700   -2.1041239 
C     4.7595852    2.0628901   -2.9882122 
H     6.4153322    0.7224545   -3.4050557 
H     6.0420091   -0.6470946   -1.3432678 
H     4.1847021   -0.1065781    0.1987233 
H     3.0908603    3.2556337   -2.3097237 
H     4.9146251    2.6679363   -3.8871475 
O    -2.0264619   -3.0201088   -2.4291493 
O    -0.6879819   -4.0786795   -0.8918723 
C    -0.9612833   -2.1337339   -2.0910410 
C    -0.5581333   -2.6726629   -0.6999238 
C    -1.6220317   -4.3239834   -1.9814501 
C    -1.4731837   -0.7032145   -2.1979995 
C    -1.4900746   -2.2270301    0.4454346 
C    -2.8553201   -5.0533066   -1.4632536 
C    -0.8775301   -5.0810181   -3.0814805 
C     1.0629230    0.2465400   -3.2030757 
C    -0.9346941    2.1571290   -2.1882048 
C    -2.6206814    0.2616266    1.5306399 
C    -0.6035124   -1.2746653    2.9996642 
C     2.1448866   -0.6181715   -2.9407393 
C    -2.3207634    2.3481034   -2.0111283 
C    -3.8049757   -0.4106751    1.9057575 
C    -1.2794005   -0.8770351    4.1678985 
C     0.8958802    0.7883134   -4.4940832 
C    -0.1247408    3.2648784   -2.5235426 
C    -2.6574519    1.6518836    1.3038302 
C     0.4441029   -2.2185285    3.0869588 
C     3.0465041   -0.9451880   -3.9610488 
C    -2.8822939    3.6234463   -2.1696684 
C    -5.0030230    0.3017006    2.0434707 
C    -0.9346363   -1.4479544    5.4016455 
C     1.8097178    0.4672050   -5.5069628 
C    -0.6917795    4.5345711   -2.6847729 
C    -3.8590940    2.3616395    1.4429276 
C     0.7779748   -2.7883259    4.3213143 
C     2.8819195   -0.3991465   -5.2426295 
C    -2.0723652    4.7179417   -2.5042791 
C    -5.0317522    1.6871664    1.8116219 
C     0.0830872   -2.4084461    5.4804168 
H    -0.1053424   -2.2751892   -2.7827383 
H     0.4991267   -2.4556145   -0.4582759 
H    -1.8581025   -0.5282858   -3.2177014 
H    -2.3010844   -0.5375322   -1.4869209 
H    -2.5224819   -2.1348455    0.0654643 
H    -1.4881941   -3.0283023    1.2014728 
H    -2.5684943   -6.0391515   -1.0639918 
H    -3.5825925   -5.1953605   -2.2792775 
H    -3.3276138   -4.4640664   -0.6614628 
H    -1.5573925   -5.2972858   -3.9215350 
H    -0.4842945   -6.0297926   -2.6819896 
H    -0.0282642   -4.4832972   -3.4513379 
H     2.2837575   -1.0232761   -1.9323777 
H    -2.9727633    1.5126003   -1.7420791 
H    -3.7909860   -1.4888564    2.0996149 
H    -2.0786060   -0.1319017    4.1169186 
H     0.0568539    1.4590874   -4.7078178 
H     0.9495083    3.1238645   -2.6778238 
H    -1.7433173    2.1743043    0.9999557 
H     0.9907852   -2.5223160    2.1858872 
H     3.8871376   -1.6125759   -3.7491965 
H    -3.9604408    3.7570843   -2.0329964 
H    -5.9177716   -0.2253274    2.3335998 
H    -1.4668998   -1.1357380    6.3057140 
H     1.6803013    0.8915866   -6.5079495 
H    -0.0548623    5.3828144   -2.9561878 
H    -3.8770727    3.4400101    1.2543912 
H     1.5797845   -3.5318133    4.3778000 
H     3.5928465   -0.6464639   -6.0377500 
H    -2.5152328    5.7111229   -2.6305180 
H    -5.9713655    2.2390626    1.9184670 
H     0.3411969   -2.8561323    6.4455602 
