96
Energy =
C     0.4377797    3.0090930    1.4249463 
C     1.7472481    2.6144012    1.0434223 
C     2.1138101    2.5328533   -0.3287111 
H     2.4388958    2.2218573    1.7997626 
Pd    0.3812228    1.1775555    0.1001049 
P     0.6362505   -0.2913192   -1.6962846 
P    -1.5045313    0.1497970    0.9997518 
H    -0.1197893    3.6243461    0.7018769 
H     1.5901578    3.2001510   -1.0309077 
C    -0.9996675    3.4618621    5.4496291 
C     0.1667333    2.7157050    5.2108575 
C     0.6298861    2.5264303    3.9062602 
C    -0.0567336    3.0960016    2.8084157 
C    -1.2459848    3.8180952    3.0612193 
C    -1.7115375    4.0021503    4.3688356 
H    -1.3547345    3.6131171    6.4741586 
H     0.7154146    2.2741771    6.0486413 
H     1.5343114    1.9325173    3.7422063 
H    -1.7986706    4.2525084    2.2204395 
H    -2.6263690    4.5775615    4.5444265 
C     5.9723660    1.1916223   -1.6816387 
C     5.3535865    0.5493155   -0.5957761 
C     4.0971945    0.9737086   -0.1521755 
C     3.4300662    2.0451288   -0.7889245 
C     4.0544083    2.6689302   -1.8894156 
C     5.3182946    2.2517842   -2.3253480 
H     6.9572869    0.8608418   -2.0269820 
H     5.8519073   -0.2882196   -0.0964695 
H     3.6150792    0.4560551    0.6843580 
H     3.5434291    3.4889966   -2.4046034 
H     5.7891427    2.7516187   -3.1779211 
O    -3.1260374   -3.1399781   -0.8940318 
O    -1.3421663   -2.9856199   -2.3288661 
C    -2.6659855   -1.7852474   -0.8718957 
C    -1.9606295   -1.7070461   -2.2419055 
C    -2.2463374   -3.9320367   -1.7321431 
C    -1.8297726   -1.5927049    0.4078620 
C    -0.9613329   -0.6198509   -2.6373021 
C    -1.4266892   -4.9079913   -0.8932753 
C    -3.1056878   -4.6100098   -2.7978155 
C    -3.0844408    1.0365419    0.7301380 
C    -1.3590783   -0.1149393    2.8106998 
C     1.4095022   -1.8880102   -1.2468372 
C     1.6610986    0.3854755   -3.0655585 
C    -4.3089996    0.5139048    1.2027743 
C    -0.3444100   -0.9853006    3.2674429 
C     1.5544791   -2.9426304   -2.1722842 
C     1.1879391    1.5277978   -3.7480332 
C    -3.0815974    2.2462883    0.0083993 
C    -2.1990023    0.5193242    3.7451193 
C     1.8994408   -2.0438885    0.0649946 
C     2.8968385   -0.1773857   -3.4346833 
C    -5.5050269    1.2016555    0.9615847 
C    -0.1935754   -1.2365919    4.6365562 
C     2.1756565   -4.1339215   -1.7797672 
C     1.9214208    2.0701167   -4.8105821 
C    -4.2815720    2.9319135   -0.2315340 
C    -2.0419957    0.2617661    5.1145338 
C     2.5132747   -3.2420853    0.4571836 
C     3.6283626    0.3739082   -4.4970332 
C    -5.4924204    2.4109001    0.2467768 
C    -1.0467632   -0.6168196    5.5631390 
C     2.6507500   -4.2880214   -0.4667583 
C     3.1405277    1.4879242   -5.1927010 
H    -3.5578341   -1.1367410   -0.8477431 
H    -2.7776574   -1.6322819   -2.9935292 
H    -2.3763987   -2.1096702    1.2149157 
H    -0.8510268   -2.0922491    0.3046801 
H    -0.6567372   -0.8337812   -3.6761664 
H    -1.4860335    0.3519994   -2.6527670 
H    -0.7504998   -5.4893626   -1.5410613 
H    -2.0985573   -5.6012861   -0.3627154 
H    -0.8177322   -4.3581429   -0.1585917 
H    -3.8636598   -5.2495787   -2.3172003 
H    -2.4770705   -5.2296356   -3.4577790 
H    -3.6265678   -3.8505658   -3.4035093 
H    -4.3284515   -0.4275076    1.7631484 
H     0.3213013   -1.4797725    2.5512863 
H     1.1700902   -2.8413711   -3.1906186 
H     0.2421421    1.9975525   -3.4520140 
H    -2.1321587    2.6458349   -0.3670684 
H    -2.9703964    1.2186726    3.4119334 
H     1.7950991   -1.2144493    0.7755391 
H     3.2971706   -1.0379096   -2.8913856 
H    -6.4505981    0.7925137    1.3318177 
H     0.5884793   -1.9215578    4.9804923 
H     2.2828504   -4.9510743   -2.5005229 
H     1.5403844    2.9487487   -5.3415345 
H    -4.2703586    3.8722466   -0.7922513 
H    -2.6993567    0.7616999    5.8327801 
H     2.8874004   -3.3553748    1.4799062 
H     4.5903165   -0.0694531   -4.7730476 
H    -6.4298575    2.9450575    0.0607734 
H    -0.9307849   -0.8150334    6.6336042 
H     3.1307301   -5.2250008   -0.1658407 
H     3.7135500    1.9113932   -6.0238818 
