96
Energy =
C     3.0221418    1.0075917   -0.2395056 
C     2.6197956    1.5439460    1.0151821 
C     2.2801644    0.7158453    2.1127471 
H     2.4302841    2.6225939    1.0800472 
Pd    0.9689083    0.2743076    0.2954510 
P    -0.9858495   -0.3799236    1.4130300 
P     0.1893944   -0.1481006   -1.8739309 
H     3.5171350    0.0243690   -0.2400104 
H     2.6915469   -0.3047090    2.1199776 
C     4.0000347    3.5407191   -3.5773190 
C     2.9419812    3.8929366   -2.7229049 
C     2.6004011    3.0642674   -1.6496333 
C     3.3122330    1.8667072   -1.4053927 
C     4.3545811    1.5118111   -2.2878357 
C     4.6997913    2.3453199   -3.3588773 
H     4.2692256    4.1910847   -4.4158909 
H     2.3787776    4.8156016   -2.8977095 
H     1.7604371    3.3395099   -1.0022676 
H     4.9054177    0.5798418   -2.1235208 
H     5.5159270    2.0560514   -4.0284993 
C     0.9695923    2.0689070    5.9846363 
C     1.0849554    2.9893640    4.9298198 
C     1.4920450    2.5635863    3.6614507 
C     1.8182761    1.2071518    3.4230249 
C     1.7112928    0.2950676    4.4994515 
C     1.2817434    0.7180910    5.7625577 
H     0.6450860    2.4041495    6.9750479 
H     0.8472918    4.0452212    5.0946876 
H     1.5542483    3.2973450    2.8520901 
H     1.9633328   -0.7575959    4.3393060 
H     1.2001637   -0.0077652    6.5779764 
O    -0.8163509   -4.1303486   -1.5101616 
O    -2.8245242   -3.3234400   -0.7397119 
C    -0.6035357   -2.8184319   -0.9956003 
C    -1.7810550   -2.6822639   -0.0071981 
C    -2.2252456   -4.4705154   -1.3644305 
C    -0.6342159   -1.8105695   -2.1608181 
C    -2.2504485   -1.2888411    0.3891654 
C    -2.8663117   -4.6579092   -2.7337856 
C    -2.3230357   -5.7047704   -0.4675170 
C     1.4178467   -0.1161118   -3.2383298 
C    -1.0721209    1.1046783   -2.3297542 
C    -1.9365518    1.0344428    2.0815672 
C    -0.6983699   -1.5436363    2.8033585 
C     2.3547287   -1.1698610   -3.3119809 
C    -1.1951322    2.2714316   -1.5493474 
C    -1.6379089    1.5576004    3.3577349 
C     0.4278333   -2.3898647    2.7410809 
C     1.4528667    0.9129767   -4.1969726 
C    -1.9009025    0.9381663   -3.4611556 
C    -2.9207375    1.6651436    1.2886561 
C    -1.6058390   -1.6755432    3.8736467 
C     3.2851876   -1.2130913   -4.3575490 
C    -2.1364154    3.2549144   -1.8865348 
C    -2.3205711    2.6860300    3.8313540 
C     0.6500198   -3.3499541    3.7372109 
C     2.3915796    0.8656908   -5.2381806 
C    -2.8422655    1.9208707   -3.7925827 
C    -3.5946074    2.7953292    1.7687827 
C    -1.3711141   -2.6257772    4.8771582 
C     3.2992698   -0.1983949   -5.3276578 
C    -2.9614578    3.0791925   -3.0062711 
C    -3.2965362    3.3090540    3.0403818 
C    -0.2459363   -3.4623040    4.8114706 
H     0.3782913   -2.8046090   -0.4863615 
H    -1.5380299   -3.2637323    0.9053412 
H    -0.1200419   -2.2800838   -3.0142072 
H    -1.6816868   -1.6382870   -2.4629410 
H    -2.4811775   -0.6864930   -0.5070798 
H    -3.1750438   -1.3745629    0.9859986 
H    -3.9432660   -4.8646662   -2.6227792 
H    -2.3919481   -5.5029306   -3.2577360 
H    -2.7373364   -3.7445842   -3.3356839 
H    -1.7632044   -6.5398663   -0.9187400 
H    -3.3769767   -6.0021756   -0.3431501 
H    -1.8892775   -5.4942398    0.5238481 
H     2.3529474   -1.9670917   -2.5583423 
H    -0.5606114    2.3967074   -0.6635189 
H    -0.8865193    1.0768051    3.9899488 
H     1.1339055   -2.2909841    1.9073367 
H     0.7486830    1.7479171   -4.1369222 
H    -1.8050865    0.0478521   -4.0921825 
H    -3.1666879    1.2851678    0.2932624 
H    -2.4907882   -1.0330177    3.9291531 
H     3.9988414   -2.0414496   -4.4158431 
H    -2.2293774    4.1518318   -1.2657361 
H    -2.0820998    3.0755653    4.8261922 
H     1.5252680   -4.0050827    3.6784021 
H     2.4115126    1.6697331   -5.9806134 
H    -3.4831828    1.7844520   -4.6696640 
H    -4.3589681    3.2718496    1.1461346 
H    -2.0740493   -2.7162868    5.7117220 
H     4.0245395   -0.2338155   -6.1469516 
H    -3.6993198    3.8441273   -3.2696169 
H    -3.8283318    4.1896831    3.4151123 
H    -0.0694757   -4.2049186    5.5964034 
