96
Energy =
C     2.9858158    1.1198262    0.0253667 
C     2.5369836    1.4412563    1.3296633 
C     2.1969595    0.4389450    2.2801048 
H     2.3040327    2.4854192    1.5726141 
Pd    0.9238405    0.2301554    0.4414848 
P    -0.9160395   -0.8388612    1.4232738 
P     0.0627470    0.2884698   -1.7379627 
H     3.4351030    0.1263433   -0.1221700 
H     2.7032654   -0.5350819    2.1988326 
C     4.0127043    3.9458092   -3.0568495 
C     3.3914789    4.3966822   -1.8804552 
C     3.0351051    3.4900352   -0.8771192 
C     3.3145278    2.1094600   -1.0159663 
C     3.9539671    1.6730571   -2.2003680 
C     4.2895676    2.5782886   -3.2136961 
H     4.2848939    4.6571827   -3.8432869 
H     3.1745827    5.4615808   -1.7483189 
H     2.5335276    3.8645963    0.0203461 
H     4.1844046    0.6108974   -2.3266874 
H     4.7773937    2.2155566   -4.1240679 
C     0.7949042    1.4365227    6.2232429 
C     0.3971577    2.2173402    5.1252868 
C     0.8266211    1.8869400    3.8362992 
C     1.6668966    0.7703655    3.6180211 
C     2.0353738   -0.0211684    4.7265093 
C     1.6093986    0.3138512    6.0176141 
H     0.4612953    1.6972383    7.2328876 
H    -0.2539514    3.0848578    5.2755261 
H     0.4936110    2.4920967    2.9857026 
H     2.6717925   -0.8989636    4.5734513 
H     1.9117428   -0.3085778    6.8657432 
O    -2.3416165   -2.9632232   -2.3060579 
O    -1.0769547   -4.2521602   -0.8858770 
C    -1.1458210   -2.2448376   -2.0051379 
C    -0.7515827   -2.8836332   -0.6567317 
C    -2.0923529   -4.3269838   -1.9277031 
C    -1.4505182   -0.7535287   -2.0502224 
C    -1.5615231   -2.3701155    0.5495450 
C    -3.3826966   -4.9099037   -1.3651935 
C    -1.5146478   -5.1293272   -3.0939819 
C     1.2290049   -0.3219009   -3.0174752 
C    -0.4757990    1.9604118   -2.2532443 
C    -2.3363712    0.3221313    1.4868800 
C    -0.7251615   -1.4579248    3.1414170 
C     2.1995441   -1.2709135   -2.6355007 
C     0.4456704    2.8644261   -2.8233541 
C    -3.6454057   -0.1288807    1.7653569 
C     0.0925783   -2.5890417    3.3540981 
C     1.1274022    0.0591449   -4.3706639 
C    -1.7999511    2.3858804   -2.0067019 
C    -2.1080565    1.6980367    1.2861154 
C    -1.3599778   -0.8437790    4.2365388 
C     3.0625019   -1.8269524   -3.5893074 
C     0.0427612    4.1669185   -3.1474098 
C    -4.7045460    0.7854881    1.8283065 
C     0.2353602   -3.1226710    4.6407877 
C     2.0035605   -0.4867560   -5.3191221 
C    -2.1923715    3.6909560   -2.3303975 
C    -3.1704913    2.6110676    1.3538530 
C    -1.2071949   -1.3806231    5.5232372 
C     2.9703113   -1.4277994   -4.9316200 
C    -1.2728618    4.5848570   -2.9007011 
C    -4.4687746    2.1552375    1.6225120 
C    -0.4217452   -2.5232464    5.7268276 
H    -0.3566144   -2.4834750   -2.7469587 
H     0.3348635   -2.8171967   -0.4605924 
H    -1.8428425   -0.4947008   -3.0489934 
H    -2.2223201   -0.4912705   -1.3053837 
H    -2.6025052   -2.1837352    0.2336380 
H    -1.5863018   -3.1794401    1.2963085 
H    -3.2093571   -5.9417346   -1.0204715 
H    -4.1644207   -4.9187921   -2.1421990 
H    -3.7296110   -4.3010782   -0.5154878 
H    -2.2605563   -5.2196439   -3.9004151 
H    -1.2312714   -6.1372463   -2.7501530 
H    -0.6135390   -4.6340126   -3.4912098 
H     2.2783925   -1.5706146   -1.5833556 
H     1.4720134    2.5498760   -3.0308532 
H    -3.8387862   -1.1919192    1.9456109 
H     0.6115208   -3.0645512    2.5126876 
H     0.3711127    0.7864988   -4.6837545 
H    -2.5320673    1.7082032   -1.5591083 
H    -1.0938846    2.0482624    1.0587335 
H    -1.9763002    0.0478005    4.0888569 
H     3.8106404   -2.5655959   -3.2838060 
H     0.7679826    4.8541818   -3.5946530 
H    -5.7172862    0.4288495    2.0422797 
H     0.8592731   -4.0091600    4.7949779 
H     1.9268290   -0.1789636   -6.3670426 
H    -3.2233760    4.0065104   -2.1394528 
H    -2.9817021    3.6762837    1.1860357 
H    -1.7052875   -0.8973504    6.3696598 
H     3.6499861   -1.8529596   -5.6772638 
H    -1.5835582    5.6029829   -3.1568114 
H    -5.3003040    2.8658309    1.6727723 
H    -0.3126994   -2.9423140    6.7323112 
