96
Energy =
C     2.9771834    1.1435896   -0.0166517 
C     2.5399633    1.4715824    1.2903478 
C     2.2230035    0.4711799    2.2505245 
H     2.2990564    2.5150263    1.5287530 
Pd    0.9297657    0.2399705    0.4276072 
P    -0.8895862   -0.8359810    1.4410916 
P     0.0430588    0.2881913   -1.7414134 
H     3.4358347    0.1535746   -0.1589742 
H     2.7390182   -0.4975863    2.1669162 
C     3.9568320    3.9484352   -3.1328390 
C     3.3352227    4.4044553   -1.9587165 
C     2.9923926    3.5042491   -0.9448844 
C     3.2865048    2.1256354   -1.0708520 
C     3.9243281    1.6837490   -2.2540892 
C     4.2466520    2.5822346   -3.2776391 
H     4.2189236    4.6547935   -3.9271945 
H     3.1070264    5.4681718   -1.8366088 
H     2.4902907    3.8822999   -0.0491395 
H     4.1653822    0.6227709   -2.3706245 
H     4.7347954    2.2156714   -4.1863244 
C     0.8451086    1.4569356    6.2051900 
C     0.4254975    2.2296898    5.1096529 
C     0.8492384    1.9044476    3.8174480 
C     1.7042213    0.8003969    3.5933238 
C     2.0961804    0.0173792    4.6998224 
C     1.6766173    0.3478045    5.9941947 
H     0.5157162    1.7135583    7.2172675 
H    -0.2381424    3.0868841    5.2642905 
H     0.4997315    2.5031943    2.9690720 
H     2.7448431   -0.8506188    4.5423799 
H     1.9967747   -0.2680605    6.8405830 
O    -2.3844537   -2.9524514   -2.2685893 
O    -1.1037493   -4.2465354   -0.8676531 
C    -1.1813642   -2.2390440   -1.9859348 
C    -0.7688973   -2.8794260   -0.6436156 
C    -2.1351001   -4.3171510   -1.8939589 
C    -1.4804895   -0.7464280   -2.0273904 
C    -1.5578352   -2.3622848    0.5750907 
C    -3.4192113   -4.8946354   -1.3119141 
C    -1.5784004   -5.1218876   -3.0687728 
C     1.1871820   -0.3374056   -3.0329841 
C    -0.4940132    1.9598067   -2.2592775 
C    -2.3099782    0.3214228    1.5471668 
C    -0.6514036   -1.4686136    3.1483797 
C     1.0485890    0.0127535   -4.3914142 
C    -1.8041330    2.4011253   -1.9684928 
C    -3.6084065   -0.1331610    1.8667905 
C     0.1954463   -2.5839402    3.3280312 
C     2.1742773   -1.2704344   -2.6547512 
C     0.4127872    2.8467733   -2.8771347 
C    -2.0929264    1.6974250    1.3349911 
C    -1.2781631   -0.8850082    4.2644038 
C     1.9046153   -0.5478659   -5.3494561 
C    -2.1978640    3.7044046   -2.2970361 
C    -4.6680541    0.7779707    1.9608570 
C     0.3764682   -3.1322351    4.6036210 
C     3.0180482   -1.8404905   -3.6175117 
C     0.0079989    4.1474766   -3.2068334 
C    -3.1559011    2.6070829    1.4327243 
C    -1.0874711   -1.4366617    5.5398628 
C     2.8886204   -1.4725005   -4.9655363 
C    -1.2935830    4.5808602   -2.9169931 
C    -4.4435094    2.1478474    1.7438558 
C    -0.2720793   -2.5634324    5.7111815 
H    -0.4043672   -2.4809653   -2.7395482 
H     0.3208778   -2.8174897   -0.4650884 
H    -1.8879766   -0.4871118   -3.0199403 
H    -2.2390387   -0.4796867   -1.2706369 
H    -2.6021709   -2.1687121    0.2749340 
H    -1.5758051   -3.1721018    1.3215479 
H    -3.2447722   -5.9269036   -0.9690763 
H    -4.2124548   -4.9009244   -2.0771746 
H    -3.7509037   -4.2837543   -0.4576121 
H    -2.3365757   -5.2086356   -3.8641057 
H    -1.2945496   -6.1311482   -2.7292912 
H    -0.6810197   -4.6306152   -3.4792305 
H     0.2787654    0.7273106   -4.7012126 
H    -2.5240434    1.7363870   -1.4830678 
H    -3.7925457   -1.1965290    2.0547882 
H     0.7073659   -3.0352114    2.4690695 
H     2.2800367   -1.5474522   -1.5987793 
H     1.4289480    2.5210874   -3.1160110 
H    -1.0875774    2.0501861    1.0747236 
H    -1.9163323   -0.0050066    4.1423743 
H     1.7987633   -0.2647927   -6.4017961 
H    -3.2179608    4.0323064   -2.0713922 
H    -5.6723874    0.4186399    2.2074487 
H     1.0233711   -4.0062135    4.7325302 
H     3.7795017   -2.5665908   -3.3148312 
H     0.7212044    4.8214955   -3.6919386 
H    -2.9761354    3.6724592    1.2560043 
H    -1.5791984   -0.9769797    6.4029971 
H     3.5524883   -1.9094093   -5.7185968 
H    -1.6054461    5.5974995   -3.1775443 
H    -5.2754284    2.8558665    1.8181485 
H    -0.1331135   -2.9939848    6.7080883 
