96
Energy =
C     2.7875414    0.2380159   -0.2492339 
C     2.3954831    0.8550829    0.9617370 
C     1.8579240    0.1255023    2.0576115 
H     2.3868367    1.9506075    1.0057931 
Pd    0.5820971   -0.1469078    0.2129761 
P    -0.2925441    0.0301940   -1.9613884 
P    -1.4240762   -0.6972730    1.2865833 
H     3.0334502   -0.8337991   -0.2203290 
H     2.1661260   -0.9229228    2.1724093 
C     4.6345456    2.3336306   -3.5135365 
C     3.8320938    3.0416478   -2.6035981 
C     3.1880251    2.3688636   -1.5615715 
C     3.3456439    0.9720758   -1.3966022 
C     4.1253045    0.2689447   -2.3420674 
C     4.7676031    0.9434503   -3.3862278 
H     5.1425144    2.8631291   -4.3260159 
H     3.7077159    4.1244049   -2.7089288 
H     2.5569039    2.9372288   -0.8705263 
H     4.2391329   -0.8158847   -2.2426232 
H     5.3734075    0.3811980   -4.1035948 
C     0.4839528    1.9980352    5.6904628 
C     0.6386501    2.7655716    4.5246613 
C     1.0594903    2.1642415    3.3342880 
C     1.3702558    0.7838556    3.2867418 
C     1.2207803    0.0283454    4.4723424 
C     0.7713835    0.6244368    5.6565505 
H     0.1444544    2.4681140    6.6191145 
H     0.4125711    3.8366807    4.5385072 
H     1.1335428    2.7778497    2.4306212 
H     1.4616171   -1.0382993    4.4637153 
H     0.6573413    0.0150814    6.5588614 
O    -0.9699002   -3.3225806    0.1747783 
O    -0.2721489   -2.9874193   -1.9450072 
C    -2.1297632   -2.8166220   -0.4905627 
C    -1.6291780   -2.5389524   -1.9572703 
C    -0.0903103   -3.8597201   -0.8185678 
C    -2.7115671   -1.6568984    0.3246961 
C    -1.6830955   -1.1111824   -2.5091635 
C     1.3425358   -3.7109997   -0.3333409 
C    -0.4756154   -5.2990964   -1.1758369 
C    -2.3297503    0.8287751    1.7636755 
C    -1.2943985   -1.7057125    2.8221760 
C     0.8190067    0.0139050   -3.4316768 
C    -1.0841677    1.6922905   -2.0472842 
C    -3.1616183    1.4921141    0.8354389 
C    -2.3052750   -1.6754216    3.8048478 
C     1.3180104   -1.2109049   -3.9266816 
C    -1.9977294    2.0309535   -3.0691113 
C    -2.1029809    1.4235672    3.0236380 
C    -0.2100416   -2.5885231    2.9778133 
C     1.1683292    1.2163294   -4.0797078 
C    -0.7517950    2.6582010   -1.0766850 
C    -3.7728679    2.7068558    1.1690970 
C    -2.2103634   -2.4959249    4.9378117 
C     2.1214274   -1.2279913   -5.0745853 
C    -2.5749911    3.3073477   -3.1032930 
C    -2.7155022    2.6407896    3.3505763 
C    -0.1232904   -3.4154264    4.1046710 
C     1.9765181    1.1875605   -5.2244522 
C    -1.3220672    3.9377205   -1.1191404 
C    -3.5537650    3.2840514    2.4288766 
C    -1.1194683   -3.3646599    5.0915048 
C     2.4474430   -0.0316173   -5.7302993 
C    -2.2375099    4.2622041   -2.1298707 
H    -2.9024770   -3.6076352   -0.5496221 
H    -2.2273280   -3.1756934   -2.6384290 
H    -3.2777666   -0.9693550   -0.3231745 
H    -3.4201194   -2.0381073    1.0789331 
H    -1.6374818   -1.1480995   -3.6103457 
H    -2.6409386   -0.6323007   -2.2444406 
H     2.0446384   -4.0238593   -1.1220099 
H     1.5107164   -4.3297067    0.5618862 
H     1.5172413   -2.6480797   -0.0897344 
H    -0.3828336   -5.9439487   -0.2871583 
H     0.1858847   -5.6798540   -1.9705232 
H    -1.5161322   -5.3528326   -1.5369114 
H    -3.3285067    1.0802248   -0.1647102 
H    -3.1658967   -1.0070708    3.6945989 
H     1.0561657   -2.1462084   -3.4245427 
H    -2.2508956    1.3071678   -3.8510863 
H    -1.4548169    0.9344674    3.7564815 
H     0.5598687   -2.6315469    2.2040432 
H     0.8054641    2.1756773   -3.7005853 
H    -0.0607755    2.3880879   -0.2683613 
H    -4.4156710    3.2048362    0.4363501 
H    -2.9952546   -2.4579407    5.7002642 
H     2.4904063   -2.1844241   -5.4600972 
H    -3.2848613    3.5605395   -3.8976275 
H    -2.5306712    3.0839280    4.3344240 
H     0.7247195   -4.0997521    4.2136349 
H     2.2395299    2.1278745   -5.7192064 
H    -1.0635048    4.6737767   -0.3513555 
H    -4.0349314    4.2321974    2.6903095 
H    -1.0498162   -4.0063394    5.9759749 
H     3.0724100   -0.0488296   -6.6291758 
H    -2.6902439    5.2586931   -2.1616002 
