96
Energy =
C     1.6079927    1.5090858    2.2143318 
C     2.4371196    1.6966323    1.0660116 
C     1.9802747    2.4555869   -0.0350011 
H     3.3855079    1.1519263    0.9882978 
Pd    0.6029122    0.6655537    0.3958786 
P    -1.2831486   -0.2117361    1.4412468 
P     0.0507280    0.0778568   -1.8005427 
H     0.8806160    2.3038740    2.4355700 
H     1.1394958    3.1399047    0.1587087 
C     2.7045401   -0.8833564    5.6257683 
C     3.3316520   -1.1050478    4.3885226 
C     2.9752864   -0.3449881    3.2702308 
C     1.9938538    0.6705768    3.3653110 
C     1.3759502    0.8813255    4.6188194 
C     1.7215589    0.1111100    5.7348412 
H     2.9809532   -1.4834371    6.4985921 
H     4.0990775   -1.8806187    4.2946482 
H     3.4585342   -0.5518150    2.3091291 
H     0.6284102    1.6754197    4.7217013 
H     1.2271851    0.2927540    6.6944320 
C     4.1678162    3.5352039   -3.5622453 
C     4.6397365    2.4879516   -2.7523009 
C     3.9250830    2.0943374   -1.6189389 
C     2.7233393    2.7511260   -1.2642009 
C     2.2435203    3.7815766   -2.1071008 
C     2.9614876    4.1745182   -3.2419369 
H     4.7369465    3.8441386   -4.4449857 
H     5.5704549    1.9736531   -3.0108478 
H     4.3060414    1.2736478   -1.0036540 
H     1.3055176    4.2881341   -1.8527613 
H     2.5830203    4.9850817   -3.8730627 
O    -0.5372113   -3.9695220   -1.3650785 
O    -2.6517976   -3.4243489   -0.6528929 
C    -0.5095891   -2.6314550   -0.8761459 
C    -1.7229236   -2.6288542    0.0811426 
C    -1.8908758   -4.4908901   -1.2428649 
C    -0.6372953   -1.6517025   -2.0608002 
C    -2.3854321   -1.2981919    0.4133153 
C    -2.4691729   -4.7821590   -2.6221348 
C    -1.8458916   -5.7127385   -0.3250353 
C     1.4774599    0.0633847   -2.9553802 
C    -1.1973271    1.1934934   -2.5467172 
C    -2.3309871    1.2406433    1.8354049 
C    -1.0841433   -1.1677846    2.9870381 
C     1.5906156    0.9497011   -4.0420550 
C    -1.5416285    2.3841938   -1.8765538 
C    -3.3310943    1.6893706    0.9477371 
C     0.0576324   -1.9851992    3.1103671 
C     2.4855018   -0.9014020   -2.7340381 
C    -1.8200624    0.8860574   -3.7766579 
C    -2.0535432    1.9944867    2.9973394 
C    -2.0614206   -1.1708874    4.0035641 
C     2.6814528    0.8442404   -4.9171329 
C    -2.4971910    3.2540525   -2.4214966 
C    -4.0398547    2.8680030    1.2220124 
C     0.2180736   -2.8032976    4.2356600 
C     3.5677803   -1.0044193   -3.6159147 
C    -2.7739269    1.7574370   -4.3176590 
C    -2.7675479    3.1680801    3.2678593 
C    -1.8881951   -1.9824058    5.1329344 
C     3.6632822   -0.1351215   -4.7139808 
C    -3.1139204    2.9409050   -3.6411585 
C    -3.7605471    3.6100116    2.3786332 
C    -0.7519828   -2.7985461    5.2489099 
H     0.4458267   -2.4824957   -0.3392307 
H    -1.4292524   -3.1427372    1.0196987 
H    -0.0898622   -2.0898974   -2.9105260 
H    -1.6970539   -1.5688530   -2.3582372 
H    -2.6500449   -0.7592234   -0.5128540 
H    -3.3155893   -1.4834965    0.9780580 
H    -3.5105904   -5.1313394   -2.5305678 
H    -1.8728729   -5.5619579   -3.1220629 
H    -2.4511069   -3.8672431   -3.2351277 
H    -1.1700037   -6.4734320   -0.7481105 
H    -2.8538292   -6.1454395   -0.2173615 
H    -1.4677640   -5.4300747    0.6711050 
H     0.8279594    1.7152768   -4.2121736 
H    -1.0705283    2.6184866   -0.9153105 
H    -3.5620511    1.1331768    0.0349699 
H     0.8239461   -1.9686114    2.3276110 
H     2.4176758   -1.5851830   -1.8789864 
H    -1.5544126   -0.0288549   -4.3176248 
H    -1.2891288    1.6470523    3.6991414 
H    -2.9533011   -0.5413218    3.9149056 
H     2.7617642    1.5360328   -5.7616429 
H    -2.7633535    4.1714669   -1.8864092 
H    -4.8162551    3.2029421    0.5263763 
H     1.1093515   -3.4310756    4.3276418 
H     4.3363417   -1.7657473   -3.4469003 
H    -3.2536444    1.5131863   -5.2710255 
H    -2.5510543    3.7373324    4.1777646 
H    -2.6463451   -1.9807339    5.9229100 
H     4.5077546   -0.2169618   -5.4059426 
H    -3.8618471    3.6175898   -4.0672918 
H    -4.3186435    4.5275415    2.5910637 
H    -0.6217860   -3.4305161    6.1334572 
