96
Energy =
C     3.0481535    0.9272448   -0.1830482 
C     2.6502251    1.4330335    1.0854708 
C     2.2757321    0.5791367    2.1516430 
H     2.4930840    2.5141758    1.1857888 
Pd    0.9684049    0.2382788    0.3099818 
P    -1.0088196   -0.4042532    1.3933665 
P     0.1936238   -0.0850083   -1.8774677 
H     3.5111434   -0.0710473   -0.2124688 
H     2.6575022   -0.4526181    2.1283101 
C     4.1494228    3.5396115   -3.4193501 
C     4.8030193    2.3123325   -3.2380193 
C     4.4165784    1.4542214   -2.2011012 
C     3.3786423    1.8152098   -1.3159101 
C     2.7125229    3.0455188   -1.5237109 
C     3.0954094    3.8991104   -2.5629703 
H     4.4512860    4.2096838   -4.2308496 
H     5.6154232    2.0177970   -3.9098733 
H     4.9319668    0.4977277   -2.0650941 
H     1.8759178    3.3277177   -0.8749585 
H     2.5678920    4.8474253   -2.7095779 
C     0.9729486    1.8436619    6.0559013 
C     1.1157534    2.7928045    5.0302673 
C     1.5202897    2.3963687    3.7516551 
C     1.8164017    1.0405380    3.4736162 
C     1.6811211    0.0987294    4.5208680 
C     1.2544856    0.4932279    5.7941743 
H     0.6501418    2.1560763    7.0542999 
H     0.9008621    3.8482964    5.2258364 
H     1.6033377    3.1525195    2.9650685 
H     1.9090650   -0.9542680    4.3297479 
H     1.1509491   -0.2549652    6.5865860 
O    -0.9177205   -4.0492503   -1.6669594 
O    -2.9078655   -3.2238103   -0.8700235 
C    -0.6742217   -2.7634936   -1.1025270 
C    -1.8514686   -2.6350113   -0.1124788 
C    -2.3345728   -4.3607059   -1.5362938 
C    -0.6754146   -1.7115785   -2.2284774 
C    -2.2892642   -1.2459574    0.3327479 
C    -2.9764997   -4.4811203   -2.9127660 
C    -2.4641092   -5.6251059   -0.6865455 
C     1.4315712   -0.0385461   -3.2328279 
C    -1.0288062    1.2184754   -2.2961437 
C    -1.9279473    1.0100229    2.1048646 
C    -0.7565427   -1.6217305    2.7441309 
C     2.3328942   -1.1193144   -3.3470258 
C    -1.1228416    2.3614288   -1.4774637 
C    -1.6284006    1.4785043    3.4018640 
C     0.3484423   -2.4932897    2.6561199 
C     1.5081578    1.0294619   -4.1454724 
C    -1.8554662    1.1138414   -3.4364449 
C    -2.8860940    1.6960312    1.3260038 
C    -1.6706158   -1.7672515    3.8070233 
C     3.2688432   -1.1486235   -4.3881912 
C    -2.0341733    3.3819838   -1.7855849 
C    -2.2852118    2.6074250    3.9098235 
C     0.5437861   -3.4913095    3.6200316 
C     2.4521765    0.9955992   -5.1823171 
C    -2.7669430    2.1333627   -3.7387124 
C    -3.5339115    2.8263169    1.8404890 
C    -1.4623973   -2.7558663    4.7788358 
C     3.3241547   -0.0938134   -5.3129103 
C    -2.8578650    3.2673708   -2.9141704 
C    -3.2355361    3.2852409    3.1328696 
C    -0.3578351   -3.6170922    4.6880604 
H     0.3057935   -2.7936492   -0.5904300 
H    -1.6254551   -3.2546722    0.7790586 
H    -0.1734327   -2.1621406   -3.0991778 
H    -1.7171246   -1.4983951   -2.5241801 
H    -2.5018275   -0.6059997   -0.5415879 
H    -3.2182532   -1.3315871    0.9226975 
H    -4.0582219   -4.6668604   -2.8114486 
H    -2.5205692   -5.3164238   -3.4677776 
H    -2.8249049   -3.5487989   -3.4792372 
H    -1.9237089   -6.4559805   -1.1682120 
H    -3.5251862   -5.9013572   -0.5747046 
H    -2.0274715   -5.4625578    0.3125711 
H     2.2987644   -1.9482916   -2.6293114 
H    -0.4893935    2.4392180   -0.5853712 
H    -0.8960666    0.9556303    4.0229312 
H     1.0590795   -2.3845100    1.8275763 
H     0.8317604    1.8842045   -4.0532648 
H    -1.7812123    0.2429984   -4.0968329 
H    -3.1318040    1.3592256    0.3151253 
H    -2.5399442   -1.1056482    3.8818790 
H     3.9545975   -1.9974308   -4.4784819 
H    -2.1048415    4.2601200   -1.1356626 
H    -2.0462164    2.9541021    4.9202579 
H     1.4027404   -4.1656339    3.5412410 
H     2.5047276    1.8300829   -5.8886835 
H    -3.4066883    2.0446849   -4.6227522 
H    -4.2784046    3.3458811    1.2282963 
H    -2.1699746   -2.8566515    5.6082784 
H     4.0540294   -0.1179896   -6.1285159 
H    -3.5725500    4.0612544   -3.1547641 
H    -3.7471441    4.1660095    3.5343938 
H    -0.2018843   -4.3893164    5.4483799 
