96
Energy =
C     1.4575192    2.2739578    1.8133034 
C     2.5101982    1.6479614    1.1094141 
C     2.6320715    1.8086650   -0.3066145 
H     3.1670214    0.9374925    1.6282958 
Pd    0.6867221    0.8488313    0.1769792 
P    -1.1791318   -0.0659011    1.2737739 
P     0.0622245    0.2024663   -1.9869895 
H     0.9788881    3.1332093    1.3178492 
H     2.2681158    2.7540013   -0.7366206 
C     0.6608330    2.1358960    6.0326573 
C     1.3653407    1.0796385    5.4277171 
C     1.6456851    1.1125848    4.0591449 
C     1.2037526    2.1915413    3.2584111 
C     0.4908630    3.2437358    3.8792912 
C     0.2354097    3.2235700    5.2556182 
H     0.4497763    2.1103725    7.1066443 
H     1.6982392    0.2267711    6.0278485 
H     2.1963283    0.2842177    3.6061902 
H     0.1367460    4.0838470    3.2720687 
H    -0.3067608    4.0534954    5.7202155 
C     5.7865961   -0.1052101   -2.5174408 
C     5.1344096   -0.8044480   -1.4879416 
C     4.0904469   -0.1990956   -0.7810184 
C     3.6792966    1.1196931   -1.0864624 
C     4.3232048    1.7984217   -2.1426721 
C     5.3726090    1.1939725   -2.8454622 
H     6.6072466   -0.5770565   -3.0675064 
H     5.4407469   -1.8258689   -1.2389322 
H     3.5720091   -0.7580792    0.0074402 
H     4.0038947    2.8124628   -2.4051190 
H     5.8657824    1.7392099   -3.6564835 
O    -0.3395589   -3.8633110   -1.4748793 
O    -2.4781929   -3.3170866   -0.8371366 
C    -0.3406758   -2.5118310   -1.0202273 
C    -1.5719848   -2.5057451   -0.0896634 
C    -1.6929019   -4.3937664   -1.3748199 
C    -0.4590969   -1.5753808   -2.2374855 
C    -2.2573463   -1.1843505    0.2388075 
C    -2.2308096   -4.7325287   -2.7595273 
C    -1.6622998   -5.5883119   -0.4208139 
C     1.2439096    0.4952969   -3.3606948 
C    -1.4080400    1.2046934   -2.4591230 
C    -2.3784001    1.1006812    2.0150198 
C    -0.6448247   -1.1900387    2.6256542 
C     2.2077770   -0.4801396   -3.6910986 
C    -2.1595245    0.8919584   -3.6129090 
C    -3.4483226    1.6013564    1.2410347 
C    -1.5312255   -1.6158979    3.6363962 
C     1.2242210    1.7164004   -4.0657316 
C    -1.7679995    2.3250907   -1.6842999 
C    -2.2024884    1.5646382    3.3356611 
C     0.6626301   -1.7147444    2.5850919 
C     3.1045273   -0.2538057   -4.7427383 
C    -3.2625319    1.6785014   -3.9675240 
C    -4.3269111    2.5477782    1.7838794 
C    -1.1026091   -2.5383849    4.6002933 
C     2.1285446    1.9371981   -5.1142261 
C    -2.8712398    3.1136613   -2.0447532 
C    -3.0888434    2.5090081    3.8716448 
C     1.0842862   -2.6462059    3.5435043 
C     3.0616837    0.9497464   -5.4616969 
C    -3.6209559    2.7882718   -3.1835971 
C    -4.1494601    3.0041604    3.0994398 
C     0.2028203   -3.0538853    4.5558879 
H     0.6031041   -2.3315305   -0.4734368 
H    -1.2905026   -3.0149969    0.8540629 
H     0.1670998   -1.9962375   -3.0395787 
H    -1.5011328   -1.5843095   -2.6005470 
H    -2.5465746   -0.6492895   -0.6828168 
H    -3.1784905   -1.3943270    0.8096336 
H    -3.2730041   -5.0834719   -2.6852948 
H    -1.6180313   -5.5257843   -3.2165213 
H    -2.1991363   -3.8392671   -3.4030427 
H    -0.9673605   -6.3535734   -0.8027307 
H    -2.6686952   -6.0283197   -0.3292572 
H    -1.3146854   -5.2740302    0.5769731 
H     2.2687824   -1.4200692   -3.1325435 
H    -1.8776995    0.0417073   -4.2436454 
H    -3.6029308    1.2583006    0.2137376 
H    -2.5536469   -1.2249867    3.6742435 
H     0.4861775    2.4856014   -3.8140725 
H    -1.1842246    2.5727659   -0.7883936 
H    -1.3841540    1.1805457    3.9515475 
H     1.3491300   -1.3832796    1.7951630 
H     3.8447931   -1.0198015   -4.9932380 
H    -3.8422243    1.4282631   -4.8619053 
H    -5.1569093    2.9244277    1.1769891 
H    -1.7929674   -2.8601170    5.3868093 
H     2.0936363    2.8810275   -5.6682670 
H    -3.1451735    3.9766957   -1.4294009 
H    -2.9440958    2.8559868    4.8998251 
H     2.1013063   -3.0497361    3.5026125 
H     3.7609083    1.1210650   -6.2864860 
H    -4.4838103    3.4003909   -3.4657341 
H    -4.8408233    3.7400347    3.5227680 
H     0.5310945   -3.7770675    5.3095788 
