96
Energy =
C     3.0086124    0.8673577   -0.3030901 
C     2.9516757    0.7910530    1.1179810 
C     2.6381691   -0.4185308    1.7802197 
H     2.9918988    1.7156831    1.7064116 
Pd    0.9686258    0.1760772    0.3446859 
P    -0.9658085   -0.5808676    1.4301383 
P    -0.1480866    0.3102519   -1.7262115 
H     3.3002068   -0.0397756   -0.8496461 
H     2.7508211   -1.3514253    1.2049125 
C     3.4479385    4.5042283   -2.5713953 
C     3.6461224    3.2529051   -3.1737830 
C     3.5215331    2.0793728   -2.4208035 
C     3.1800020    2.1288383   -1.0495366 
C     2.9880483    3.3998130   -0.4538687 
C     3.1270536    4.5718545   -1.2047959 
H     3.5486691    5.4222743   -3.1592434 
H     3.9019098    3.1876486   -4.2362881 
H     3.6818222    1.1081618   -2.8997139 
H     2.7101560    3.4772771    0.6024669 
H     2.9783191    5.5442531   -0.7237165 
C     2.3945765   -1.0611743    6.0200368 
C     2.9016606    0.1541279    5.5329384 
C     2.9746062    0.3862686    4.1558172 
C     2.5526327   -0.6018737    3.2361323 
C     2.0551589   -1.8252807    3.7430737 
C     1.9697875   -2.0506071    5.1196460 
H     2.3355532   -1.2384357    7.0986552 
H     3.2476988    0.9228037    6.2316076 
H     3.3906785    1.3323521    3.7950136 
H     1.7230813   -2.5996819    3.0418615 
H     1.5704785   -2.9985517    5.4930752 
O    -2.1532516   -3.2586973   -1.9512502 
O    -0.8191537   -4.2597733   -0.3735609 
C    -1.0341680   -2.4029418   -1.7163766 
C    -0.6125087   -2.8524836   -0.3009890 
C    -1.7946464   -4.5429546   -1.4184023 
C    -1.4850369   -0.9670753   -1.9490867 
C    -1.4552017   -2.2827159    0.8617727 
C    -3.0424324   -5.1756943   -0.8149883 
C    -1.1174527   -5.4142070   -2.4765533 
C     0.9771933   -0.0185660   -3.1427919 
C    -0.9850952    1.8894153   -2.1162368 
C    -2.3563491    0.5710757    1.0542310 
C    -1.0146175   -0.6194547    3.2655234 
C     1.9055288   -1.0766326   -3.0324312 
C    -2.3285924    1.9744406   -2.5317580 
C    -3.6964461    0.1532968    0.9310078 
C    -0.4461875    0.4813416    3.9392781 
C     0.9441370    0.7526815   -4.3202143 
C    -0.2301297    3.0712130   -1.9578848 
C    -2.0492393    1.9443904    0.9558923 
C    -1.6469390   -1.6348197    4.0087059 
C     2.7785128   -1.3666598   -4.0887161 
C    -2.9047379    3.2281144   -2.7825140 
C    -4.7070062    1.0957279    0.6928671 
C    -0.5186416    0.5696629    5.3333496 
C     1.8294684    0.4666941   -5.3705196 
C    -0.8096315    4.3183819   -2.2165362 
C    -3.0637350    2.8844286    0.7358567 
C    -1.7105535   -1.5451025    5.4066586 
C     2.7443989   -0.5903088   -5.2588863 
C    -2.1502007    4.3998120   -2.6267162 
C    -4.3929994    2.4603424    0.5970726 
C    -1.1493515   -0.4448663    6.0698551 
H    -0.2106048   -2.6528997   -2.4161196 
H     0.4627777   -2.6703860   -0.1113519 
H    -1.8578643   -0.8865353   -2.9846554 
H    -2.3155835   -0.7106922   -1.2692572 
H    -2.5242902   -2.3179719    0.5936460 
H    -1.3059779   -2.9693336    1.7102655 
H    -2.7877028   -6.1436770   -0.3549706 
H    -3.8000644   -5.3404637   -1.5983615 
H    -3.4640609   -4.5118809   -0.0436980 
H    -1.8319442   -5.6638543   -3.2777508 
H    -0.7518834   -6.3461278   -2.0158928 
H    -0.2561054   -4.8852407   -2.9163688 
H     1.9566474   -1.6661533   -2.1087058 
H    -2.9433574    1.0784129   -2.6493226 
H    -3.9643144   -0.9044120    1.0261518 
H     0.0604601    1.2666416    3.3662509 
H     0.2376805    1.5835454   -4.4129144 
H     0.8131282    3.0144279   -1.6342890 
H    -1.0068044    2.2753796    1.0344806 
H    -2.1052205   -2.4948664    3.5105285 
H     3.4925904   -2.1913488   -3.9953187 
H    -3.9514222    3.2857832   -3.0981101 
H    -5.7448772    0.7619283    0.5916639 
H    -0.0684035    1.4243768    5.8471830 
H     1.8032981    1.0764657   -6.2795255 
H    -0.2093469    5.2260798   -2.0955814 
H    -2.8097811    3.9452779    0.6491269 
H    -2.2067884   -2.3371950    5.9768946 
H     3.4338041   -0.8087912   -6.0807721 
H    -2.6061039    5.3753563   -2.8251102 
H    -5.1859302    3.1922907    0.4122259 
H    -1.2004902   -0.3785995    7.1614198 
