119
Energy =
C     0.1550884    3.2035510   -0.4236604 
C    -1.1196034    3.0839819    0.2197444 
C    -1.2073422    2.6477657    1.5573074 
H    -2.0369551    3.1936725   -0.3728508 
Pd   -0.1682561    1.0861847    0.2197020 
P    -1.2396710   -0.9123252    0.8307302 
P     1.7830109    0.1562328   -0.6864565 
H     0.9936045    3.5407356    0.1995928 
H    -0.2800628    2.6693634    2.1515157 
C     0.6840021    3.8518390   -4.6538913 
C    -0.4726957    3.2077842   -4.1825676 
C    -0.6610490    3.0084547   -2.8113361 
C     0.3014403    3.4518988   -1.8728457 
C     1.4485043    4.1190971   -2.3627906 
C     1.6406986    4.3122423   -3.7369520 
H     0.8329223    3.9996990   -5.7282767 
H    -1.2266751    2.8488591   -4.8907163 
H    -1.5547921    2.4782230   -2.4637971 
H     2.1902035    4.5027994   -1.6536901 
H     2.5364422    4.8327893   -4.0916096 
C    -4.7485424    2.0369672    3.9141559 
C    -3.4940338    1.6054524    4.3760886 
C    -2.3488010    1.8356662    3.6075003 
C    -2.4338763    2.4808612    2.3495674 
C    -3.6989494    2.9325816    1.9102163 
C    -4.8425921    2.7127138    2.6869801 
H    -5.6462065    1.8638352    4.5162188 
H    -3.4091318    1.0958666    5.3414588 
H    -1.3712701    1.5012404    3.9717148 
H    -3.7892875    3.4703327    0.9614395 
H    -5.8141449    3.0740676    2.3347494 
C    -0.9519711   -1.5080152    2.5894564 
C    -3.0859257   -0.5481532    0.7971965 
C     1.7383296   -0.1834462   -2.5321065 
C     3.1057880    1.4850529   -0.5300526 
C    -1.0912656   -3.0320909    2.7848456 
C     0.3698735   -0.9819362    3.1915648 
C    -3.5371058    0.1072399   -0.5342825 
C    -4.0385654   -1.6578980    1.3026917 
C     2.7220169   -1.2735713   -3.0063339 
C     0.3173378   -0.4505855   -3.0735568 
C     3.2645053    2.0576249    0.8999123 
C     4.4730939    1.2652131   -1.2173915 
C    -0.9727774   -3.4008135    4.2755452 
C     0.4698009   -1.3519321    4.6813635 
C    -5.0178626    0.5275437   -0.4955987 
C    -5.4968325   -1.1606133    1.3188525 
C     2.7310839   -1.3567182   -4.5447021 
C     0.3368380   -0.5119623   -4.6099101 
C     4.0708042    3.3682265    0.8725197 
C     5.2770254    2.5816778   -1.2171016 
C     0.3357221   -2.8705868    4.8852777 
C    -5.9268197   -0.6309701   -0.0575539 
C     1.3182668   -1.5870018   -5.1074950 
C     5.4367672    3.1608684    0.1975020 
C    -0.9089216   -2.3056281   -0.3461030 
C     2.3595833   -1.3494624    0.2210549 
C     0.3881718   -2.8624597   -0.5374169 
C     1.6063047   -2.5565103    0.2794161 
C    -1.9603196   -2.7926386   -1.1547519 
C     3.5598818   -1.2814202    0.9625021 
C     0.5639276   -3.8713006   -1.5109027 
C     2.0870311   -3.6236535    1.0700993 
C    -1.7605618   -3.7711025   -2.1360111 
C     4.0046085   -2.3390042    1.7650504 
C    -0.4862305   -4.3161016   -2.3204987 
C     3.2597587   -3.5210091    1.8258899 
H    -1.7820947   -1.0074670    3.1295457 
H    -3.1217031    0.2542859    1.5592513 
H     2.0612351    0.7981201   -2.9383370 
H     2.5957588    2.2667739   -1.1254995 
H    -0.2902470   -3.5372312    2.2176262 
H    -2.0463869   -3.3963536    2.3697930 
H     0.4389180    0.1129665    3.0496332 
H     1.2254056   -1.4207735    2.6501397 
H    -3.3836720   -0.5768275   -1.3869060 
H    -2.8917164    0.9833398   -0.7337291 
H    -3.7445412   -1.9626184    2.3217732 
H    -3.9717491   -2.5632576    0.6734252 
H     2.4004250   -2.2435684   -2.5866792 
H     3.7399695   -1.0890515   -2.6225731 
H    -0.3731648    0.3337450   -2.7183703 
H    -0.0549826   -1.4101628   -2.6791315 
H     3.7866609    1.3389257    1.5551057 
H     2.2693914    2.2120002    1.3573087 
H     4.3305071    0.9271209   -2.2572544 
H     5.0528135    0.4767111   -0.7034768 
H    -1.0379455   -4.4976344    4.3914499 
H    -1.8348259   -2.9732373    4.8251151 
H    -0.3330837   -0.8333497    5.2436059 
H     1.4295230   -0.9891362    5.0914710 
H    -5.3159344    0.9068511   -1.4897340 
H    -5.1404933    1.3628679    0.2170510 
H    -5.5931296   -0.3504737    2.0679331 
H    -6.1587496   -1.9818849    1.6469883 
H     3.4132654   -2.1638295   -4.8672730 
H     3.1411888   -0.4126058   -4.9546957 
H     0.6323829    0.4778063   -5.0103341 
H    -0.6825100   -0.7159595   -4.9853549 
H     4.1989348    3.7481377    1.9018352 
H     3.5010145    4.1415911    0.3196473 
H     4.7534652    3.3184816   -1.8581375 
H     6.2654570    2.4088032   -1.6788392 
H     0.3861127   -3.1198539    5.9601274 
H     1.1942598   -3.3753714    4.3995972 
H    -6.9798152   -0.2987186   -0.0295249 
H    -5.8740912   -1.4503260   -0.8024897 
H     1.3455586   -1.6030371   -6.2116983 
H     0.9564092   -2.5828240   -4.7827890 
H     5.9946714    4.1132804    0.1601736 
H     6.0419857    2.4647899    0.8116921 
H    -2.9688834   -2.4049055   -1.0233842 
H     4.1731859   -0.3830566    0.9150684 
H     1.5618719   -4.3055330   -1.6313921 
H     1.5125111   -4.5557239    1.0866026 
H    -2.6064482   -4.1074094   -2.7438024 
H     4.9370928   -2.2355646    2.3288009 
H    -0.3086982   -5.0858886   -3.0780540 
H     3.5915504   -4.3622588    2.4424866 
