119
Energy =
C     0.0084896    3.3608825   -0.3959274 
C    -1.3095102    2.9341572   -0.6371266 
C    -2.1358836    2.4166410    0.4068921 
H    -1.6853638    2.9120191   -1.6684862 
Pd   -0.3706083    1.0968852    0.1300541 
P    -1.2166512   -0.8644576    1.0950596 
P     1.6069359    0.0219845   -0.7188468 
H     0.2799017    3.5950878    0.6444758 
H    -1.9618999    2.7993140    1.4231450 
C     2.6039788    5.1343432   -3.3282293 
C     1.6138145    4.2236235   -3.7376884 
C     0.7583614    3.6417279   -2.7977494 
C     0.8828227    3.9486486   -1.4220376 
C     1.8761004    4.8732770   -1.0260095 
C     2.7252067    5.4643869   -1.9702289 
H     3.2737626    5.5863982   -4.0666595 
H     1.5129131    3.9639627   -4.7967128 
H     0.0041760    2.9223090   -3.1313024 
H     1.9798022    5.1268437    0.0348562 
H     3.4880464    6.1785170   -1.6439326 
C    -6.1726959    1.1719529   -0.4458096 
C    -5.1370953    0.8578478   -1.3424072 
C    -3.8241491    1.2566304   -1.0692337 
C    -3.5157998    1.9725008    0.1120553 
C    -4.5664169    2.2874378    0.9995720 
C    -5.8828228    1.8947147    0.7207868 
H    -7.1999582    0.8600023   -0.6594962 
H    -5.3545475    0.2949036   -2.2564539 
H    -3.0181796    0.9814732   -1.7592657 
H    -4.3474491    2.8511415    1.9129549 
H    -6.6855856    2.1535161    1.4189872 
C    -0.0196315   -1.4913815    2.3955678 
C    -2.9468053   -0.8934417    1.8337692 
C     1.4145748   -0.0474624   -2.5876153 
C     3.2643469    0.8948336   -0.4591578 
C     0.4490177   -0.3496985    3.3318753 
C    -0.4053033   -2.7599435    3.1812728 
C    -3.5741844   -2.2980990    2.0148146 
C    -3.0038888   -0.0966341    3.1578815 
C     2.2937330   -1.1182819   -3.2623826 
C    -0.0439887   -0.0914890   -3.0879610 
C     3.7060654    1.8828021   -1.5583451 
C     3.2725591    1.5554498    0.9382696 
C     1.6376805   -0.8333286    4.1821481 
C     0.7840492   -3.2215483    4.0463931 
C    -5.0254228   -2.1682088    2.5135897 
C    -4.4444038   -0.0112089    3.6980102 
C     2.2210944   -0.9937191   -4.7958471 
C    -0.0876558    0.0447333   -4.6199780 
C     5.0782793    2.4932535   -1.2096775 
C     4.6469367    2.1630100    1.2658533 
C     1.2783774   -2.1008592    4.9760299 
C    -5.0850512   -1.3997678    3.8427838 
C     0.7675765   -1.0405920   -5.2959482 
C     5.0879854    3.1538786    0.1777358 
C    -1.3223475   -1.9945450   -0.3676293 
C     2.0098423   -1.7125199   -0.1270840 
C    -0.2365068   -2.7335029   -0.9114173 
C     1.1145171   -2.8136608   -0.2796144 
C    -2.5502610   -1.9921341   -1.0712088 
C     3.2135834   -1.9518778    0.5764762 
C    -0.4485855   -3.5079433   -2.0741629 
C     1.4891389   -4.0874700    0.1978520 
C    -2.7289953   -2.7333910   -2.2444427 
C     3.5573309   -3.2172245    1.0696476 
C    -1.6776717   -3.5149028   -2.7416510 
C     2.6991480   -4.3015089    0.8658859 
H     0.8604961   -1.7514137    1.7924192 
H    -3.5571008   -0.3395871    1.0957717 
H     1.8044049    0.9505532   -2.8666309 
H     4.0187345    0.0897779   -0.4754638 
H    -0.3701536   -0.0263375    3.9977840 
H     0.7367689    0.5321322    2.7273676 
H    -0.7070722   -3.5638269    2.4861732 
H    -1.2686777   -2.5527132    3.8394108 
H    -2.9949359   -2.8763482    2.7532375 
H    -3.5441720   -2.8705308    1.0734055 
H    -2.5847283    0.9163046    3.0139708 
H    -2.3746443   -0.5991926    3.9146977 
H     1.9412416   -2.1197563   -2.9540689 
H     3.3405279   -1.0342891   -2.9165332 
H    -0.6267140    0.7141535   -2.6017446 
H    -0.5224289   -1.0385191   -2.7977217 
H     2.9668195    2.6879398   -1.6741992 
H     3.7824889    1.3668998   -2.5305537 
H     2.9819145    0.8214373    1.7129918 
H     2.4977315    2.3463118    0.9544215 
H     1.9617957   -0.0264181    4.8637580 
H     2.4933121   -1.0510795    3.5119480 
H     1.6087325   -3.5369325    3.3790131 
H     0.4896841   -4.1097600    4.6338171 
H    -5.4657290   -3.1752444    2.6257196 
H    -5.6281826   -1.6373615    1.7501280 
H    -5.0543470    0.5930426    3.0033799 
H    -4.4390907    0.5202010    4.6667943 
H     2.8188022   -1.7971481   -5.2624295 
H     2.6838472   -0.0351188   -5.1035065 
H     0.2912140    1.0443692   -4.9144445 
H    -1.1348997   -0.0139670   -4.9678856 
H     5.3501349    3.2280158   -1.9885950 
H     5.8492318    1.6977683   -1.2399091 
H     5.3936746    1.3479263    1.3471312 
H     4.6110686    2.6562943    2.2538974 
H     2.1501293   -2.4463471    5.5599271 
H     0.4847019   -1.8563021    5.7095662 
H    -6.1301679   -1.3017181    4.1866570 
H    -4.5485776   -1.9777713    4.6213691 
H     0.7370151   -0.9255726   -6.3940412 
H     0.3344736   -2.0346825   -5.0674567 
H     6.0936336    3.5505179    0.4043338 
H     4.3980224    4.0193012    0.1733220 
H    -3.3878901   -1.3958679   -0.7014318 
H     3.9153473   -1.1405521    0.7707793 
H     0.3875402   -4.0968698   -2.4656535 
H     0.7882930   -4.9173092    0.0600525 
H    -3.6949990   -2.7063487   -2.7588444 
H     4.4997349   -3.3447103    1.6115111 
H    -1.8074591   -4.1150340   -3.6476629 
H     2.9556246   -5.2986048    1.2370519 
