119
Energy =
C     0.0782655    3.3495643   -0.4410043 
C    -1.2543144    2.9548915   -0.6581732 
C    -2.0785857    2.4697312    0.4021831 
H    -1.6447250    2.9300932   -1.6840889 
Pd   -0.3443090    1.1051824    0.1169283 
P    -1.2227227   -0.8241385    1.1156963 
P     1.6014388   -0.0213944   -0.7332130 
H     0.3700296    3.5920631    0.5919661 
H    -1.8805832    2.8567594    1.4123302 
C     2.6634001    5.0300829   -3.4369546 
C     2.8069893    5.3823963   -2.0867312 
C     1.9610464    4.8216068   -1.1213680 
C     0.9490361    3.9054289   -1.4882289 
C     0.8025360    3.5756487   -2.8563453 
C     1.6543425    4.1276288   -3.8174473 
H     3.3306314    5.4583507   -4.1916937 
H     3.5847371    6.0903785   -1.7829787 
H     2.0814247    5.0932515   -0.0667766 
H     0.0331613    2.8621136   -3.1669520 
H     1.5357494    3.8507585   -4.8702645 
C    -6.1540414    1.3131966   -0.3876570 
C    -5.1368111    0.9617703   -1.2914594 
C    -3.8114392    1.3313599   -1.0381588 
C    -3.4720103    2.0545325    0.1301280 
C    -4.5040174    2.4056516    1.0257771 
C    -5.8329038    2.0425336    0.7665412 
H    -7.1911783    1.0247523   -0.5861291 
H    -5.3786807    0.3929677   -2.1956960 
H    -3.0204464    1.0281958   -1.7338157 
H    -4.2608246    2.9746685    1.9297105 
H    -6.6208446    2.3294330    1.4706145 
C    -0.0283137   -1.4583227    2.4150087 
C    -2.9472345   -0.8096962    1.8688121 
C     1.3917731   -0.1131522   -2.5990043 
C     3.2778231    0.8222264   -0.4997306 
C     0.4690476   -0.3154603    3.3349085 
C    -0.4321016   -2.7106789    3.2175735 
C    -3.6014545   -2.1994554    2.0691202 
C    -2.9770660    0.0008262    3.1854439 
C     2.2451499   -1.2094561   -3.2660518 
C    -0.0712279   -0.1372173   -3.0874134 
C     3.7293288    1.7849573   -1.6173660 
C     3.3110069    1.5027468    0.8877812 
C     1.6544978   -0.8126685    4.1819150 
C     0.7545294   -3.1851491    4.0794267 
C    -5.0453064   -2.0357701    2.5791857 
C    -4.4110337    0.1213121    3.7360571 
C     2.1632585   -1.1028658   -4.8004420 
C    -0.1239958   -0.0186004   -4.6206280 
C     5.1156099    2.3744598   -1.2889600 
C     4.6989369    2.0900984    1.1944654 
C     1.2761668   -2.0636762    4.9930068 
C    -5.0788349   -1.2521404    3.9003529 
C     0.7052884   -1.1284719   -5.2891370 
C     5.1482733    3.0563383    0.0877392 
C    -1.3630094   -1.9711686   -0.3308947 
C     1.9746270   -1.7550231   -0.1200629 
C    -0.2978077   -2.7417004   -0.8716002 
C     1.0566969   -2.8403886   -0.2501023 
C    -2.5956972   -1.9512971   -1.0259550 
C     3.1794762   -2.0082920    0.5766925 
C    -0.5360456   -3.5289660   -2.0206635 
C     1.4104269   -4.1145771    0.2419846 
C    -2.7997290   -2.7058040   -2.1865370 
C     3.5028317   -3.2733714    1.0841567 
C    -1.7699608   -3.5184553   -2.6790770 
C     2.6220198   -4.3433226    0.9022534 
H     0.8423499   -1.7417372    1.8087265 
H    -3.5524391   -0.2507980    1.1304211 
H     1.7977302    0.8734489   -2.8949810 
H     4.0162050    0.0023368   -0.5102980 
H    -0.3385792    0.0311480    4.0031504 
H     0.7694062    0.5537140    2.7183363 
H    -0.7540736   -3.5162655    2.5335690 
H    -1.2866095   -2.4800176    3.8794792 
H    -3.0273106   -2.7821937    2.8080538 
H    -3.5916674   -2.7816600    1.1333237 
H    -2.5384329    1.0035009    3.0284182 
H    -2.3522824   -0.5073766    3.9421460 
H     1.8755948   -2.1998675   -2.9422696 
H     3.2959618   -1.1414659   -2.9290185 
H    -0.6361184    0.6841753   -2.6063754 
H    -0.5637157   -1.0722713   -2.7825333 
H     3.0047978    2.6024204   -1.7395539 
H     3.7878983    1.2529440   -2.5821131 
H     3.0140292    0.7854055    1.6756247 
H     2.5510372    2.3078786    0.8992342 
H     1.9995259   -0.0045487    4.8517402 
H     2.5005999   -1.0550353    3.5080710 
H     1.5684676   -3.5232527    3.4100333 
H     0.4477133   -4.0611512    4.6787029 
H    -5.5041725   -3.0327238    2.7059615 
H    -5.6442453   -1.5014059    1.8151460 
H    -5.0140054    0.7308725    3.0399936 
H    -4.3869790    0.6623427    4.6992299 
H     2.7420983   -1.9233028   -5.2611819 
H     2.6416593   -0.1571353   -5.1236250 
H     0.2716366    0.9698440   -4.9303371 
H    -1.1747796   -0.0616404   -4.9600776 
H     5.3949640    3.0917128   -2.0813973 
H     5.8712401    1.5641807   -1.3124204 
H     5.4316830    1.2630517    1.2817359 
H     4.6804199    2.5986948    2.1751986 
H     2.1449624   -2.4190969    5.5753685 
H     0.4920916   -1.7954541    5.7285518 
H    -6.1190495   -1.1290314    4.2509505 
H    -4.5483241   -1.8327965    4.6810784 
H     0.6685104   -1.0266712   -6.3883486 
H     0.2552486   -2.1112216   -5.0448393 
H     6.1625367    3.4385773    0.3001984 
H     4.4734670    3.9335676    0.0751971 
H    -3.4169628   -1.3309489   -0.6589271 
H     3.8983371   -1.2081585    0.7541607 
H     0.2838099   -4.1421996   -2.4092515 
H     0.6921372   -4.9322119    0.1222716 
H    -3.7684677   -2.6644047   -2.6947863 
H     4.4472719   -3.4120267    1.6196880 
H    -1.9197839   -4.1288260   -3.5750970 
H     2.8623072   -5.3401962    1.2846735 
