119
Energy =
C     0.1963715    3.3545187    0.1065098 
C    -1.0979482    3.0798489    0.6479773 
C    -1.2509105    2.4901272    1.9170715 
H    -1.9834867    3.2234387    0.0162928 
Pd   -0.0495793    1.1455066    0.4413864 
P    -1.1155453   -0.9506330    0.8351228 
P     1.7852342    0.1591748   -0.6293726 
H     0.9845463    3.6097528    0.8279829 
H    -0.3713942    2.4831424    2.5792660 
C     0.7793988    4.9296128   -3.8677667 
C    -0.3581241    4.1574375   -3.5794532 
C    -0.5554723    3.6456104   -2.2933093 
C     0.3788174    3.8914421   -1.2587894 
C     1.5047463    4.6910556   -1.5602995 
C     1.7059674    5.1997786   -2.8495807 
H     0.9354187    5.3263726   -4.8760367 
H    -1.0925796    3.9483486   -4.3644580 
H    -1.4396133    3.0296220   -2.0948273 
H     2.2216982    4.9317503   -0.7685190 
H     2.5851824    5.8190298   -3.0562151 
C    -4.9492987    1.5968666    3.9247644 
C    -3.7178888    1.2324799    4.4919255 
C    -2.5232472    1.5474282    3.8354489 
C    -2.5304158    2.2131711    2.5869432 
C    -3.7789838    2.5974130    2.0420376 
C    -4.9724857    2.2923486    2.7044139 
H    -5.8855356    1.3567742    4.4386043 
H    -3.6882463    0.7098588    5.4536565 
H    -1.5656338    1.2732158    4.2892034 
H    -3.8187524    3.1508410    1.0990735 
H    -5.9276400    2.6026611    2.2686234 
C    -1.1017248   -1.5318148    2.6236920 
C    -2.9257480   -0.5745251    0.5047763 
C     1.2262913   -0.5836498   -2.2586166 
C     3.3175337    1.1638925   -1.0760908 
C    -1.2611895   -3.0569174    2.7945521 
C     0.1136956   -1.0019301    3.4135680 
C    -3.1497023    0.0101860   -0.9128974 
C    -3.9897454   -1.6190226    0.9183725 
C     0.5622372    0.5130364   -3.1197246 
C     2.2396580   -1.4036553   -3.0788404 
C     3.6505652    2.3417733   -0.1356613 
C     4.6033009    0.3428424   -1.3505479 
C    -1.3605533   -3.4289743    4.2854453 
C     0.0054439   -1.3820255    4.9004321 
C    -4.5879706    0.5315959   -1.0811133 
C    -5.4079924   -1.0496145    0.7175882 
C    -0.1190276   -0.1133871   -4.3493484 
C     1.5356276   -2.0383061   -4.2938944 
C     4.7160695    3.2495900   -0.7768706 
C     5.6773893    1.2422721   -1.9935158 
C    -0.1519522   -2.9017483    5.0762229 
C    -5.6220789   -0.5465440   -0.7188338 
C     0.8607557   -0.9688538   -5.1693749 
C     5.9933818    2.4632579   -1.1146822 
C    -0.6420718   -2.4152363   -0.2087194 
C     2.3475568   -1.1498032    0.5527017 
C     0.6764680   -2.9587109   -0.2102461 
C     1.7827841   -2.4506582    0.6546956 
C    -1.5974236   -3.0034359   -1.0653573 
C     3.3351922   -0.7764023    1.4928764 
C     0.9665511   -4.0664694   -1.0324321 
C     2.3035494   -3.3498128    1.6124234 
C    -1.2865999   -4.0896120   -1.8942640 
C     3.8129858   -1.6676649    2.4603313 
C     0.0028293   -4.6307139   -1.8763628 
C     3.3113409   -2.9745355    2.5068722 
H    -2.0057611   -1.0348964    3.0303997 
H    -3.0521095    0.2727032    1.2061767 
H     0.4171122   -1.2650340   -1.9520471 
H     2.9782972    1.6103368   -2.0334251 
H    -0.3835392   -3.5600955    2.3500465 
H    -2.1435519   -3.4231815    2.2418486 
H     0.1949281    0.0935478    3.2900897 
H     1.0408327   -1.4289375    2.9975536 
H    -2.9482128   -0.7485489   -1.6906906 
H    -2.4171179    0.8230209   -1.0851568 
H    -3.8507898   -1.8929629    1.9784200 
H    -3.8892612   -2.5526719    0.3376029 
H     1.3104120    1.2601711   -3.4480710 
H    -0.1784957    1.0588530   -2.5111945 
H     2.7093977   -2.1825907   -2.4519760 
H     3.0458533   -0.7419706   -3.4451003 
H     4.0402443    1.9641204    0.8284095 
H     2.7397335    2.9095018    0.0975536 
H     4.4027583   -0.5270433   -1.9925257 
H     4.9902674   -0.0588823   -0.3970488 
H    -1.4432050   -4.5258986    4.3881085 
H    -2.2917667   -3.0004973    4.7063473 
H    -0.8703212   -0.8715202    5.3496979 
H     0.8970945   -1.0186396    5.4424633 
H    -4.7350102    0.8824456   -2.1185161 
H    -4.7363587    1.4078373   -0.4221088 
H    -5.5613953   -0.2120849    1.4245786 
H    -6.1523567   -1.8246172    0.9736726 
H    -0.5571601    0.6852703   -4.9750532 
H    -0.9596991   -0.7477246   -4.0038919 
H     0.7757210   -2.7580606   -3.9327424 
H     2.2678886   -2.6164156   -4.8856926 
H     4.9458474    4.0914099   -0.0985817 
H     4.2985526    3.6905353   -1.7029202 
H     5.3192527    1.5820042   -2.9855402 
H     6.5918924    0.6491672   -2.1735833 
H    -0.2523764   -3.1561366    6.1463328 
H     0.7670220   -3.4038396    4.7138241 
H    -6.6455450   -0.1479771   -0.8359437 
H    -5.5317868   -1.3957243   -1.4256268 
H     0.3365641   -1.4431694   -6.0181991 
H     1.6390173   -0.3120921   -5.6059678 
H     6.7256127    3.1194999   -1.6177483 
H     6.4692604    2.1205224   -0.1746617 
H    -2.6138984   -2.6142571   -1.0942822 
H     3.7416746    0.2366736    1.4728331 
H     1.9827093   -4.4740730   -1.0155235 
H     1.8808221   -4.3588265    1.6611297 
H    -2.0594008   -4.5101431   -2.5454507 
H     4.5806164   -1.3391480    3.1679664 
H     0.2616263   -5.4811170   -2.5148870 
H     3.6860816   -3.6912607    3.2442696 
