119
Energy =
C     0.0196194    3.4054534   -0.2781506 
C    -1.2751015    2.9564155   -0.5741561 
C    -2.1204678    2.3659028    0.4202842 
H    -1.6338609    2.9940907   -1.6108715 
Pd   -0.3807217    1.0495305    0.1195535 
P    -1.2362935   -0.8736947    1.1352283 
P     1.5315157   -0.1218006   -0.7504029 
H     0.2834839    3.5143919    0.7846678 
H    -1.9898040    2.7130977    1.4554365 
C     2.6185150    5.5727280   -2.9271419 
C     2.8102478    5.6133572   -1.5384956 
C     1.9622380    4.8894134   -0.6918919 
C     0.8961671    4.1197655   -1.2136902 
C     0.6992613    4.1116078   -2.6162443 
C     1.5558229    4.8221102   -3.4607598 
H     3.2856168    6.1307175   -3.5919443 
H     3.6254994    6.2079026   -1.1139473 
H     2.1206634    4.9188086    0.3919723 
H    -0.1207718    3.5341618   -3.0523996 
H     1.3945692    4.7955162   -4.5433887 
C    -6.1124761    1.1191469   -0.6276074 
C    -5.0379798    0.8280207   -1.4852724 
C    -3.7401999    1.2291210   -1.1490553 
C    -3.4864881    1.9247410    0.0570343 
C    -4.5762335    2.2190044    0.9034480 
C    -5.8769257    1.8225334    0.5628733 
H    -7.1276524    0.8047729   -0.8900633 
H    -5.2131002    0.2813258   -2.4180760 
H    -2.9030277    0.9724461   -1.8093090 
H    -4.4000249    2.7691925    1.8340882 
H    -6.7101727    2.0641097    1.2309277 
C    -0.0431284   -1.4047702    2.4801935 
C    -2.9784404   -0.9035220    1.8471297 
C     1.0954999   -0.5791080   -2.5154143 
C     3.1883490    0.7611018   -0.7263264 
C     0.3879142   -0.2093226    3.3664436 
C    -0.4111008   -2.6458231    3.3167385 
C    -3.5838457   -2.3148506    2.0498763 
C    -3.0714134   -0.0778972    3.1510700 
C     0.5288154    0.6035885   -3.3283814 
C     2.1929522   -1.3525450   -3.2739808 
C     3.4690432    1.7651632   -1.8625550 
C     3.3813503    1.4440273    0.6494383 
C     1.5718970   -0.6273578    4.2573395 
C     0.7745270   -3.0381086    4.2202430 
C    -5.0436890   -2.2014999    2.5273104 
C    -4.5225401   -0.0051318    3.6642789 
C     0.0110072    0.1087819   -4.6910735 
C     1.6619342   -1.8187138   -4.6434374 
C     4.9040150    2.3149634   -1.7272059 
C     4.8170871    1.9769693    0.7948313 
C     1.2269216   -1.8641230    5.1041259 
C    -5.1381251   -1.4018634    3.8357572 
C     1.1059751   -0.6440357   -5.4658491 
C     5.1682412    2.9425096   -0.3483774 
C    -1.3051449   -2.0843168   -0.2606247 
C     1.9979874   -1.7835543   -0.0154750 
C    -0.2243276   -2.8911937   -0.7044713 
C     1.1229078   -2.9112519   -0.0596986 
C    -2.4968893   -2.0773122   -1.0248428 
C     3.2368538   -1.9465698    0.6449402 
C    -0.4101082   -3.7313339   -1.8258065 
C     1.5345172   -4.1351339    0.5058299 
C    -2.6453650   -2.8789571   -2.1613479 
C     3.6202279   -3.1638803    1.2238603 
C    -1.6035887   -3.7311424   -2.5538960 
C     2.7699985   -4.2713605    1.1484805 
H     0.8512929   -1.6700613    1.9001036 
H    -3.5843236   -0.3782346    1.0848551 
H     0.2495940   -1.2726687   -2.3612333 
H     3.9358173   -0.0466630   -0.8383213 
H    -0.4479829    0.1322274    4.0019680 
H     0.6717848    0.6453345    2.7217152 
H    -0.6807369   -3.4872372    2.6535224 
H    -1.2913988   -2.4319139    3.9499993 
H    -3.0022541   -2.8685154    2.8057689 
H    -3.5335706   -2.9040386    1.1197324 
H    -2.6672316    0.9384964    2.9923819 
H    -2.4470966   -0.5521475    3.9298435 
H     1.3001139    1.3771982   -3.4850117 
H    -0.2887788    1.0779870   -2.7532694 
H     2.5265576   -2.2202541   -2.6765356 
H     3.0785989   -0.7068613   -3.4229437 
H     2.7452051    2.5935864   -1.8263159 
H     3.3602653    1.2802810   -2.8461172 
H     3.1391176    0.7520328    1.4773594 
H     2.6565287    2.2772599    0.7232871 
H     1.8670850    0.2172266    4.9056617 
H     2.4432000   -0.8564083    3.6113920 
H     1.6171632   -3.3633330    3.5803555 
H     0.4919672   -3.9055944    4.8432982 
H    -5.4655888   -3.2141649    2.6578847 
H    -5.6458657   -1.7016782    1.7427514 
H    -5.1320342    0.5683372    2.9432858 
H    -4.5439244    0.5521538    4.6181728 
H    -0.3632000    0.9650196   -5.2813991 
H    -0.8514852   -0.5669327   -4.5244885 
H     0.8572675   -2.5624877   -4.4795465 
H     2.4655018   -2.3352064   -5.1982916 
H     5.0825703    3.0586057   -2.5246690 
H     5.6221416    1.4881919   -1.8972992 
H     5.5212072    1.1207508    0.7897530 
H     4.9357266    2.4755870    1.7736943 
H     2.0958363   -2.1616566    5.7178631 
H     0.4152363   -1.6040602    5.8122627 
H    -6.1900075   -1.3162261    4.1618038 
H    -4.6018543   -1.9488626    4.6365322 
H     0.7103163   -1.0071224   -6.4311268 
H     1.9299964    0.0570844   -5.7057047 
H     6.2236984    3.2592133   -0.2713573 
H     4.5543398    3.8556794   -0.2459255 
H    -3.3271635   -1.4291946   -0.7314518 
H     3.9368700   -1.1141121    0.7246155 
H     0.4256907   -4.3628123   -2.1449908 
H     0.8487248   -4.9870994    0.4525087 
H    -3.5810989   -2.8452677   -2.7286567 
H     4.5889286   -3.2380049    1.7280560 
H    -1.7130846   -4.3798334   -3.4286949 
H     3.0581031   -5.2299161    1.5911539 
