119
Energy =
C     0.5168644    3.3085346    0.5602433 
C    -0.8443626    3.1525462    0.9582588 
C    -1.1991417    2.4053260    2.1006737 
H    -1.6306962    3.5223076    0.2884773 
Pd   -0.0409464    1.1522429    0.5279508 
P    -1.1320169   -0.9448973    0.8860369 
P     1.7203136    0.2110516   -0.6898236 
H     1.2802509    3.2855077    1.3522838 
H    -0.4129191    2.2360743    2.8507237 
C     1.5626279    5.6252559   -2.9158437 
C     0.4137162    4.8150754   -2.9348560 
C     0.0722222    4.0523320   -1.8140450 
C     0.8751556    4.0790969   -0.6491449 
C     2.0286605    4.8921926   -0.6458857 
C     2.3650513    5.6632984   -1.7668589 
H     1.8294565    6.2220449   -3.7938927 
H    -0.2127452    4.7738817   -3.8320309 
H    -0.8063240    3.3983336   -1.8512357 
H     2.6605246    4.9263834    0.2488696 
H     3.2609452    6.2921747   -1.7443446 
C    -5.1782243    1.7036125    3.5854815 
C    -4.0543061    1.2788197    4.3106761 
C    -2.7674614    1.5283784    3.8200586 
C    -2.5720197    2.1912880    2.5854815 
C    -3.7160513    2.6253258    1.8736665 
C    -5.0012658    2.3867613    2.3705822 
H    -6.1860061    1.5144840    3.9685563 
H    -4.1802783    0.7606421    5.2669171 
H    -1.8947437    1.2100839    4.3997613 
H    -3.6037597    3.1531125    0.9216292 
H    -5.8725239    2.7338114    1.8057029 
C    -1.1410867   -1.4936874    2.6897237 
C    -2.9450692   -0.6224088    0.5260377 
C     1.1225513   -0.6536266   -2.2364679 
C     3.2913250    1.1739577   -1.1198837 
C    -1.2634854   -3.0213183    2.8738854 
C     0.0376425   -0.9252290    3.5065724 
C    -3.1619527   -0.0821596   -0.9088800 
C    -3.9890895   -1.6800083    0.9576634 
C     0.2695049    0.2937271   -3.1162810 
C     2.1639857   -1.4339978   -3.0627022 
C     4.5736346    0.3109620   -1.2509846 
C     3.1303485    2.0508747   -2.3839266 
C    -1.3930322   -3.3825584    4.3648383 
C    -0.0913425   -1.3010524    4.9932755 
C    -4.6129430    0.3868424   -1.1188349 
C    -5.4182679   -1.1557289    0.7173764 
C    -0.4238368   -0.5184436   -4.2249874 
C     1.4605966   -2.2210497   -4.1854511 
C     5.8109781    1.2073210   -1.4473269 
C     4.3692526    2.9446145   -2.5799706 
C    -0.2151549   -2.8223265    5.1783250 
C    -5.6216253   -0.7086657   -0.7387472 
C     0.5968929   -1.3032146   -5.0666618 
C     5.6591336    2.1175479   -2.6753986 
C    -0.6018880   -2.4374070   -0.0896241 
C     2.2973496   -0.9920690    0.6018180 
C     0.7364920   -2.9314994   -0.0525482 
C     1.8127035   -2.3157005    0.7802000 
C    -1.5300223   -3.1049269   -0.9161816 
C     3.2239275   -0.4860822    1.5451052 
C     1.0707450   -4.0771981   -0.8015135 
C     2.3731590   -3.1176623    1.8006046 
C    -1.1753755   -4.2298778   -1.6733186 
C     3.7356492   -1.2808653    2.5766019 
C     0.1305924   -4.7265963   -1.6109417 
C     3.3335310   -2.6190466    2.6865760 
H    -2.0690857   -1.0183308    3.0662104 
H    -3.0980309    0.2408801    1.2023138 
H     0.4139197   -1.3911876   -1.8318608 
H     3.4125197    1.8637086   -0.2600234 
H    -0.3604056   -3.5053182    2.4596780 
H    -2.1191954   -3.4180432    2.3008498 
H     0.0872655    0.1708583    3.3855330 
H     0.9868766   -1.3224660    3.1129068 
H    -2.9166056   -0.8532191   -1.6621279 
H    -2.4578605    0.7545040   -1.0838465 
H    -3.8599081   -1.9163631    2.0278911 
H    -3.8573208   -2.6289700    0.4091131 
H     0.8953636    1.0799937   -3.5722935 
H    -0.4792912    0.8080566   -2.4864873 
H     2.7334663   -2.1204033   -2.4107486 
H     2.8908834   -0.7342389   -3.5139289 
H     4.4714068   -0.3589666   -2.1221030 
H     4.7184320   -0.3380660   -0.3730050 
H     2.2215331    2.6681814   -2.3262048 
H     3.0246808    1.3954380   -3.2676513 
H    -1.4546379   -4.4801331    4.4748443 
H    -2.3431473   -2.9707453    4.7592832 
H    -0.9880689   -0.8098211    5.4219967 
H     0.7797689   -0.9111813    5.5501694 
H    -4.7510512    0.6993510   -2.1695703 
H    -4.7983310    1.2789285   -0.4913037 
H    -5.6043192   -0.2988566    1.3925188 
H    -6.1455241   -1.9415874    0.9891898 
H    -1.0176833    0.1575500   -4.8663052 
H    -1.1372744   -1.2271166   -3.7584431 
H     0.8205621   -2.9993170   -3.7273355 
H     2.2156147   -2.7469144   -4.7970986 
H     6.7102315    0.5720881   -1.5397320 
H     5.9549757    1.8296023   -0.5414978 
H     4.4431913    3.6456434   -1.7270871 
H     4.2283849    3.5660965   -3.4821759 
H    -0.3329888   -3.0707685    6.2480412 
H     0.7230798   -3.3055039    4.8401672 
H    -6.6539142   -0.3445086   -0.8867450 
H    -5.4945090   -1.5786127   -1.4140500 
H     0.0786416   -1.8963753   -5.8411703 
H     1.2513819   -0.5876965   -5.6029128 
H     6.5364249    2.7814639   -2.7744194 
H     5.6292986    1.4929663   -3.5900778 
H    -2.5569430   -2.7472908   -0.9795134 
H     3.5616904    0.5522992    1.4701123 
H     2.1009954   -4.4455273   -0.7577116 
H     2.0157730   -4.1472804    1.9075032 
H    -1.9266701   -4.7147134   -2.3046480 
H     4.4555593   -0.8557540    3.2830119 
H     0.4217252   -5.6066590   -2.1928818 
H     3.7432996   -3.2621972    3.4715859 
