119
Energy =
C     0.1411810    3.3716899   -0.4121054 
C    -1.2093529    3.0461690   -0.7453889 
C    -2.1323358    2.6518342    0.2429805 
H    -1.4982769    3.0018149   -1.8037070 
Pd   -0.2850635    1.2393541    0.1098861 
P    -1.3683499   -0.8686473    0.2004565 
P     1.8695640    0.3326669    0.1927144 
H     0.3164690    3.8268128    0.5733554 
H    -1.8899820    2.9110385    1.2851470 
C     2.9790711    4.3977155   -3.4903079 
C     2.0726906    3.3432791   -3.6925164 
C     1.1509524    3.0057043   -2.6955916 
C     1.1164011    3.7137074   -1.4705415 
C     2.0275558    4.7752770   -1.2842980 
C     2.9476768    5.1153634   -2.2853415 
H     3.7015345    4.6608241   -4.2695381 
H     2.0899363    2.7758789   -4.6293150 
H     0.4727741    2.1583044   -2.8487365 
H     2.0081473    5.3423511   -0.3471951 
H     3.6431437    5.9454792   -2.1233563 
C    -6.2807900    1.6767259   -0.3476102 
C    -5.8168871    2.1218213    0.8990999 
C    -4.4635948    2.4366846    1.0720705 
C    -3.5460064    2.3220582    0.0019137 
C    -4.0347247    1.8959817   -1.2557505 
C    -5.3837669    1.5705111   -1.4249023 
H    -7.3364321    1.4210789   -0.4836123 
H    -6.5099559    2.2212816    1.7406646 
H    -4.1051211    2.7827022    2.0477002 
H    -3.3519372    1.8041156   -2.1051760 
H    -5.7403503    1.2334038   -2.4038423 
C    -2.8353290   -0.7975042    1.3712777 
C    -2.1900375   -1.1617473   -1.4773611 
C     3.3200154    1.5113331   -0.0519693 
C     2.3874671   -0.4894909    1.8148116 
C    -3.9078908   -1.9096053    1.2797558 
C    -2.4231005   -0.4564402    2.8237651 
C    -1.5219104   -0.3846247   -2.6329049 
C    -2.3769803   -2.6487576   -1.8449991 
C     3.3805259    2.5705355    1.0740723 
C     4.6789701    0.7856794   -0.1907441 
C     1.2740195   -0.5144110    2.8792799 
C     3.1351292   -1.8338087    1.7272675 
C    -5.1093041   -1.5755283    2.1858187 
C    -3.6531694   -0.1781289    3.7075594 
C    -2.3310023   -0.5343513   -3.9330521 
C    -3.1869892   -2.7873723   -3.1475046 
C     4.5407615    3.5585067    0.8440722 
C     5.8134058    1.7952642   -0.4454842 
C     1.8434525   -0.9242446    4.2495329 
C     3.7106627   -2.2062790    3.1063224 
C    -4.6725188   -1.3257255    3.6373869 
C    -2.5274066   -2.0141868   -4.3012732 
C     5.8867099    2.8356646    0.6825415 
C     2.6011718   -2.2602351    4.1697399 
C    -0.4086954   -2.4191795    0.5409044 
C     1.8956985   -0.7718911   -1.2984485 
C     0.6931385   -2.8323708   -0.2603031 
C     1.2859207   -2.0574702   -1.3947522 
C    -0.8242817   -3.2697078    1.5905355 
C     2.4194770   -0.1916529   -2.4783501 
C     1.2643118   -4.1058128   -0.0245835 
C     1.2902000   -2.7145101   -2.6481567 
C    -0.2151705   -4.5046217    1.8370442 
C     2.3774669   -0.8460290   -3.7142432 
C     0.8257375   -4.9387161    1.0077998 
C     1.8181266   -2.1258054   -3.8008820 
H    -3.3156970    0.1146918    0.9686644 
H    -3.1906878   -0.7130647   -1.3138621 
H     3.1001450    2.0564708   -0.9879643 
H     3.1257223    0.2569998    2.1646054 
H    -3.4971845   -2.8921552    1.5713706 
H    -4.2547782   -2.0100057    0.2372645 
H    -1.7501106    0.4213758    2.8112669 
H    -1.8421859   -1.2828264    3.2726698 
H    -0.4971108   -0.7589596   -2.7941688 
H    -1.4210500    0.6804969   -2.3562056 
H    -2.8641908   -3.2002486   -1.0232355 
H    -1.3842858   -3.1121713   -1.9838019 
H     3.5321841    2.0766390    2.0533401 
H     2.4200603    3.1098657    1.1405275 
H     4.6428874    0.0333027   -0.9975340 
H     4.8986780    0.2392874    0.7459535 
H     0.4955700   -1.2339879    2.5790686 
H     0.7904300    0.4780539    2.9425457 
H     3.9336949   -1.7906705    0.9665530 
H     2.4373416   -2.6226412    1.4143101 
H    -5.8436439   -2.3991779    2.1349396 
H    -5.6143564   -0.6712437    1.7946828 
H    -4.1407074    0.7549502    3.3682408 
H    -3.3258528   -0.0068674    4.7487465 
H    -1.8212952    0.0059742   -4.7512358 
H    -3.3233213   -0.0564659   -3.8054795 
H    -4.2125272   -2.4010316   -2.9830083 
H    -3.2900977   -3.8565414   -3.4058338 
H     4.5802145    4.2758706    1.6835231 
H     4.3365307    4.1446349   -0.0699088 
H     5.6355033    2.3068555   -1.4119148 
H     6.7721499    1.2549286   -0.5415182 
H     1.0224828   -0.9859285    4.9869414 
H     2.5318490   -0.1338379    4.6091036 
H     4.4749457   -1.4611786    3.4046047 
H     4.2283070   -3.1799115    3.0369720 
H    -5.5496718   -1.0959405    4.2680746 
H    -4.2196933   -2.2490343    4.0511940 
H    -3.1327672   -2.1042427   -5.2207021 
H    -1.5399030   -2.4648440   -4.5239662 
H     6.6893224    3.5674700    0.4818200 
H     6.1519139    2.3269238    1.6306968 
H     3.0256402   -2.5180507    5.1563417 
H     1.8891847   -3.0676821    3.9063806 
H    -1.6494172   -2.9676689    2.2348420 
H     2.8663724    0.8035734   -2.4426974 
H     2.1043574   -4.4198084   -0.6526265 
H     0.8379384   -3.7095436   -2.7121863 
H    -0.5680712   -5.1274169    2.6650513 
H     2.7927474   -0.3543840   -4.5998621 
H     1.3041616   -5.9094856    1.1707298 
H     1.7855201   -2.6611048   -4.7549451 
