119
Energy =
C    -0.1183166    3.2220759    0.6033460 
C    -1.0772570    3.0186267   -0.4048579 
C    -2.2218472    2.1906904   -0.1568051 
H    -0.9019636    3.4190379   -1.4113821 
Pd   -0.3861079    0.9453403    0.0013954 
P    -1.4925088   -1.0841645    0.4416337 
P     1.7500628   -0.0030378   -0.2240475 
H    -0.3930438    2.8914777    1.6168830 
H    -2.6111612    2.2004710    0.8699230 
C     3.2469114    5.8902358    0.6289078 
C     2.9621797    5.0790305    1.7390235 
C     1.8628245    4.2154379    1.7097699 
C     1.0334813    4.1284340    0.5648520 
C     1.3243840    4.9639868   -0.5395337 
C     2.4167363    5.8367355   -0.5032294 
H     4.1017295    6.5736718    0.6506860 
H     3.5946941    5.1268170    2.6312488 
H     1.6388559    3.5888446    2.5795455 
H     0.6831947    4.9479144   -1.4264442 
H     2.6196677    6.4862478   -1.3607143 
C    -5.1549428    1.1710372   -3.1483589 
C    -3.8374484    1.4715785   -3.5335266 
C    -2.8796172    1.8085854   -2.5719916 
C    -3.2161918    1.8619012   -1.1983039 
C    -4.5522373    1.5772364   -0.8300921 
C    -5.5090275    1.2293106   -1.7921339 
H    -5.9010522    0.9012127   -3.9025734 
H    -3.5537450    1.4313370   -4.5902293 
H    -1.8506273    2.0139619   -2.8879636 
H    -4.8466773    1.6506083    0.2230531 
H    -6.5374341    1.0154379   -1.4827612 
C    -2.9230634   -0.6344995    1.5781134 
C    -2.3634067   -1.8681491   -1.0276568 
C     2.9691339    1.0203612   -1.2281446 
C     2.5577547   -0.5443419    1.3692942 
C    -3.9721540   -1.7153889    1.9271582 
C    -2.5115704    0.1937700    2.8187985 
C    -1.7203798   -1.5163868   -2.3857270 
C    -2.5883145   -3.3894847   -0.9013878 
C     2.2171466    1.8103928   -2.3278900 
C     3.8868985    1.9859655   -0.4487784 
C     3.9230005   -1.2423933    1.2065277 
C     2.5675252    0.5736266    2.4351801 
C    -5.1934858   -1.0606922    2.6051634 
C    -3.7481828    0.8367088    3.4714233 
C    -2.6042555   -2.0191031   -3.5390762 
C    -3.4568314   -3.9022048   -2.0660226 
C     3.2136442    2.4404674   -3.3165655 
C     4.9009007    2.6281692   -1.4173568 
C     4.4145539   -1.7691699    2.5683646 
C     3.0692388    0.0127495    3.7785245 
C    -4.7961855   -0.2284383    3.8345737 
C    -2.8480471   -3.5337587   -3.4295142 
C     4.2160796    3.3510670   -2.5886310 
C     4.4471525   -0.6547444    3.6279055 
C    -0.4649100   -2.3693292    1.2900540 
C     1.6132173   -1.5517455   -1.2563567 
C     0.6476740   -2.9997413    0.6629344 
C     1.0715106   -2.7702460   -0.7530976 
C    -0.7452226   -2.7048354    2.6328252 
C     2.0130983   -1.5241097   -2.6124622 
C     1.3990694   -3.9499228    1.3876998 
C     0.9955391   -3.8957159   -1.6033737 
C     0.0302118   -3.6263885    3.3478709 
C     1.8923307   -2.6388680   -3.4516091 
C     1.1086554   -4.2597814    2.7207642 
C     1.3858220   -3.8398173   -2.9448169 
H    -3.4364854    0.0651811    0.8916602 
H    -3.3458120   -1.3528480   -0.9912972 
H     3.6292727    0.2695341   -1.7049258 
H     1.8458041   -1.3021818    1.7394688 
H    -3.5432440   -2.4822629    2.5972567 
H    -4.3013146   -2.2398447    1.0147145 
H    -1.7705552    0.9623964    2.5285507 
H    -2.0067856   -0.4432564    3.5668016 
H    -0.7281031   -1.9885268   -2.4602317 
H    -1.5661059   -0.4262221   -2.4551602 
H    -3.0482799   -3.6477925    0.0676446 
H    -1.6064604   -3.8948022   -0.9249308 
H     1.6287824    2.6037238   -1.8307165 
H     1.4868048    1.1745621   -2.8604013 
H     4.4341342    1.4553627    0.3468516 
H     3.2826768    2.7702628    0.0372687 
H     4.6677044   -0.5362135    0.7945125 
H     3.8348710   -2.0720489    0.4812852 
H     1.5444193    0.9811575    2.5420940 
H     3.2140628    1.4116960    2.1215787 
H    -5.9211269   -1.8430456    2.8853613 
H    -5.7020840   -0.4065897    1.8691298 
H    -4.1956534    1.5685832    2.7687394 
H    -3.4444574    1.4062326    4.3679525 
H    -2.1266643   -1.7726943   -4.5048698 
H    -3.5725267   -1.4821819   -3.5165582 
H    -4.4694603   -3.4600448   -1.9835628 
H    -3.5815769   -4.9966758   -1.9795124 
H     2.6664455    3.0099019   -4.0896377 
H     3.7567577    1.6320422   -3.8459060 
H     5.5690004    1.8365010   -1.8107736 
H     5.5418774    3.3331965   -0.8578419 
H     5.4142209   -2.2249724    2.4528663 
H     3.7323741   -2.5739011    2.9063680 
H     2.3398093   -0.7334125    4.1518219 
H     3.1103390    0.8224192    4.5294374 
H    -5.6883701    0.2471431    4.2788700 
H    -4.3766586   -0.8989767    4.6106585 
H    -3.5062755   -3.8788652   -4.2467835 
H    -1.8831011   -4.0648606   -3.5513221 
H     4.9735708    3.7306514   -3.2973760 
H     3.6765763    4.2317193   -2.1955285 
H     4.7818632   -1.0615546    4.5987755 
H     5.1927015    0.1101286    3.3322828 
H    -1.5923168   -2.2451897    3.1402766 
H     2.4357456   -0.6167015   -3.0447271 
H     2.2467286   -4.4304849    0.8884879 
H     0.6047536   -4.8314543   -1.1901897 
H    -0.2215892   -3.8521556    4.3889089 
H     2.2082899   -2.5630951   -4.4968421 
H     1.7209068   -4.9884324    3.2614154 
H     1.2968517   -4.7252088   -3.5819723 
