119
Energy =
C     0.6763699    3.3134722    0.5251755 
C    -0.6901180    3.2732198    0.1855684 
C    -1.6393243    2.6200901    1.0377501 
H    -1.0260006    3.6496629   -0.7894398 
Pd   -0.1842899    1.1421093    0.3152737 
P    -1.1210947   -0.7815622    1.2665559 
P     1.5261380    0.0091501   -0.8911566 
H     0.9358867    3.0780459    1.5685795 
H    -1.4442299    2.6553991    2.1200898 
C     3.8730984    5.2781804   -1.5733980 
C     2.6055590    5.1885033   -2.1745363 
C     1.5504871    4.5582431   -1.5090301 
C     1.7417794    3.9875008   -0.2275402 
C     3.0180600    4.1061840    0.3722736 
C     4.0721661    4.7436828   -0.2916110 
H     4.6955183    5.7761608   -2.0968805 
H     2.4385804    5.6212082   -3.1663224 
H     0.5696900    4.5135295   -1.9913439 
H     3.1771939    3.6879657    1.3723870 
H     5.0505580    4.8266225    0.1925281 
C    -5.7888316    2.3433601   -0.0871065 
C    -4.7856638    2.0566899   -1.0296636 
C    -3.4374137    2.1455119   -0.6695966 
C    -3.0630178    2.5162464    0.6434578 
C    -4.0792013    2.8045377    1.5778955 
C    -5.4306319    2.7228010    1.2141305 
H    -6.8443184    2.2710857   -0.3684469 
H    -5.0590363    1.7550603   -2.0462937 
H    -2.6585965    1.8897196   -1.3983967 
H    -3.8053547    3.1008755    2.5967210 
H    -6.2063033    2.9502138    1.9525468 
C    -2.5093687   -0.6403278    2.5411686 
C    -1.4207363   -2.2973847    0.2142662 
C     1.0446491    0.1819960   -2.6955401 
C     3.2538131    0.7308170   -0.7853702 
C    -3.9270961   -0.6472099    1.9229097 
C    -2.4522027   -1.6666202    3.7015662 
C    -1.5398363   -3.6370240    0.9698513 
C    -2.5923484   -2.1245841   -0.7834047 
C    -0.3254096   -0.4708454   -2.9617656 
C     1.0140842    1.6735705   -3.0871277 
C     3.8396969    0.5180041    0.6252741 
C     4.2220814    0.2191355   -1.8713526 
C    -4.9754041   -0.2928152    2.9944401 
C    -3.4978791   -1.3154319    4.7770422 
C    -1.5457149   -4.8046083   -0.0350570 
C    -2.5852618   -3.2895485   -1.7912807 
C    -0.7751670   -0.2814917   -4.4195452 
C     0.5626112    1.8642767   -4.5453434 
C     5.2345848    1.1523952    0.7668398 
C     5.6072008    0.8787209   -1.7210244 
C    -4.9157981   -1.2591660    4.1869629 
C    -2.6687771   -4.6479422   -1.0741272 
C    -0.8021065    1.2063988   -4.8043089 
C     6.1936491    0.6426920   -0.3203614 
C     0.4043428   -0.9886060    2.3033468 
C     1.7959750   -1.8150221   -0.6485479 
C     1.5676697   -1.7122858    1.9251117 
C     1.7555991   -2.4446076    0.6318880 
C     0.4391414   -0.2420931    3.5082364 
C     2.0755474   -2.6145559   -1.7793326 
C     2.6567361   -1.7597916    2.8258281 
C     1.9993982   -3.8321245    0.7158332 
C     1.5472903   -0.2626121    4.3597367 
C     2.2980313   -3.9934819   -1.6763219 
C     2.6571329   -1.0521137    4.0305890 
C     2.2586920   -4.6078655   -0.4196591 
H    -2.3497505    0.3734023    2.9600812 
H    -0.5012733   -2.3378562   -0.3943296 
H     1.8146696   -0.3197975   -3.3109000 
H     3.0885999    1.8148970   -0.9346097 
H    -4.1472573   -1.6616988    1.5442673 
H    -3.9971009    0.0448371    1.0680874 
H    -1.4480330   -1.7173071    4.1523350 
H    -2.6691778   -2.6731254    3.3037399 
H    -2.4833648   -3.6511134    1.5457259 
H    -0.7155071   -3.7512005    1.6959412 
H    -2.5253532   -1.1519927   -1.2996656 
H    -3.5549054   -2.1306038   -0.2466187 
H    -1.0641537   -0.0000828   -2.2835095 
H    -0.2986081   -1.5437132   -2.7053826 
H     1.9989273    2.1446970   -2.9306970 
H     0.3036832    2.1900338   -2.4127005 
H     3.9281290   -0.5685095    0.8078845 
H     3.1460106    0.9119223    1.3916890 
H     3.8226464    0.4253953   -2.8801550 
H     4.3270449   -0.8794624   -1.7807100 
H    -5.9800814   -0.2937658    2.5353641 
H    -4.7944310    0.7397352    3.3478577 
H    -3.2427017   -0.3333204    5.2231678 
H    -3.4450651   -2.0563249    5.5948777 
H    -1.6520328   -5.7608713    0.5081200 
H    -0.5659766   -4.8360523   -0.5494627 
H    -1.6553588   -3.2499230   -2.3922045 
H    -3.4254981   -3.1729116   -2.4992480 
H    -1.7705029   -0.7402755   -4.5605106 
H    -0.0795133   -0.8235356   -5.0900185 
H     1.3199374    1.4210178   -5.2212596 
H     0.5260027    2.9436804   -4.7797150 
H     5.6350241    0.9361567    1.7739053 
H     5.1481238    2.2515117    0.6860163 
H     5.5086660    1.9674671   -1.9006870 
H     6.2873691    0.4871550   -2.4985570 
H    -5.6438949   -0.9595784    4.9618104 
H    -5.2096792   -2.2735164    3.8519993 
H    -2.6266034   -5.4713991   -1.8091617 
H    -3.6498295   -4.7289807   -0.5657601 
H    -1.0936388    1.3269312   -5.8626553 
H    -1.5758557    1.7237314   -4.2012172 
H     7.1768821    1.1374693   -0.2274066 
H     6.3696918   -0.4419297   -0.1764785 
H    -0.4231044    0.3691281    3.7912866 
H     2.1264808   -2.1563369   -2.7701101 
H     3.5371846   -2.3464515    2.5429070 
H     1.9688180   -4.3065454    1.7021792 
H     1.5337158    0.3246708    5.2834288 
H     2.5058651   -4.5790691   -2.5774415 
H     3.5238827   -1.1032825    4.6969861 
H     2.4284191   -5.6846233   -0.3200762 
