119
Energy =
C     0.3912444    3.2750968    0.2213860 
C    -0.9429174    3.0607103    0.6801679 
C    -1.1835840    2.4361425    1.9204905 
H    -1.7822463    3.2881038    0.0102259 
Pd   -0.0170947    1.0715050    0.4328588 
P    -1.1706058   -0.9590802    0.8443522 
P     1.7882605    0.0524012   -0.6666427 
H     1.1517846    3.4377283    0.9977279 
H    -0.3314315    2.3635107    2.6133797 
C     1.2610838    5.0807581   -3.5941916 
C     0.2282609    4.1339569   -3.4853602 
C    -0.0643591    3.5508657   -2.2482484 
C     0.6732093    3.8939347   -1.0924936 
C     1.6968214    4.8600094   -1.2133543 
C     1.9872489    5.4480775   -2.4515987 
H     1.4937466    5.5325798   -4.5637683 
H    -0.3446201    3.8430381   -4.3721583 
H    -0.8521427    2.7928269   -2.1775403 
H     2.2661539    5.1557541   -0.3250736 
H     2.7844237    6.1951556   -2.5240623 
C    -4.9918030    1.7537853    3.7983577 
C    -3.8041658    1.3086497    4.4004345 
C    -2.5720411    1.5542963    3.7850203 
C    -2.4988708    2.2299381    2.5434665 
C    -3.7026509    2.6959590    1.9635881 
C    -4.9330899    2.4597334    2.5853008 
H    -5.9571087    1.5672573    4.2796166 
H    -3.8381853    0.7774370    5.3572412 
H    -1.6475849    1.2176238    4.2655653 
H    -3.6779258    3.2542476    1.0229813 
H    -5.8533361    2.8306657    2.1226187 
C    -1.0986124   -1.5357217    2.6348710 
C    -2.9853779   -0.5547676    0.5833744 
C     1.3318505   -0.7909878   -2.2731207 
C     3.3693198    1.0368471   -0.9836299 
C    -1.2848613   -3.0561339    2.8211764 
C     0.1526086   -1.0233087    3.3819174 
C    -3.2469222    0.0724728   -0.8103201 
C    -4.0330148   -1.6135401    1.0033506 
C     0.5408308    0.1223178   -3.2354277 
C     2.4862697   -1.5637987   -2.9455944 
C     3.4240832    1.7681811   -2.3460423 
C     3.6783751    2.0628341    0.1327404 
C    -1.3383397   -3.4185668    4.3167942 
C     0.0891951   -1.3979183    4.8730204 
C    -4.6999364    0.5625283   -0.9473110 
C    -5.4612282   -1.0591680    0.8365388 
C     0.0544222   -0.6908828   -4.4486427 
C     1.9665179   -2.3341804   -4.1743838 
C     4.8203389    2.3876927   -2.5576410 
C     5.0884067    2.6530007   -0.0470417 
C    -0.0911787   -2.9134607    5.0606008 
C    -5.7059829   -0.5428283   -0.5898559 
C     1.2198590   -1.4090544   -5.1495214 
C     5.2224497    3.3361201   -1.4175940 
C    -0.7651840   -2.4258377   -0.2115408 
C     2.3659995   -1.3151029    0.4683427 
C     0.5293181   -3.0201172   -0.2081237 
C     1.6845995   -2.5595017    0.6239623 
C    -1.7367655   -2.9622594   -1.0839458 
C     3.5049133   -1.0882492    1.2747713 
C     0.7731521   -4.1431834   -1.0274282 
C     2.1824285   -3.5047866    1.5489573 
C    -1.4675310   -4.0561515   -1.9168187 
C     3.9603059   -2.0232187    2.2126955 
C    -0.2071540   -4.6611302   -1.8811602 
C     3.2956984   -3.2454474    2.3538728 
H    -1.9788834   -1.0206008    3.0699981 
H    -3.0875995    0.2715326    1.3116487 
H     0.6050245   -1.5451785   -1.9353438 
H     4.1585950    0.2577587   -0.9902514 
H    -0.4362116   -3.5817252    2.3491065 
H    -2.1944091   -3.4055990    2.3032136 
H     0.2427634    0.0712752    3.2562284 
H     1.0603364   -1.4621240    2.9342486 
H    -3.0339865   -0.6507802   -1.6180355 
H    -2.5395186    0.9113026   -0.9608567 
H    -3.8704602   -1.8961439    2.0577353 
H    -3.9338488   -2.5404235    0.4118435 
H     1.1508167    0.9745279   -3.5804649 
H    -0.3203777    0.5504870   -2.6908560 
H     2.9385692   -2.2625234   -2.2175627 
H     3.2876639   -0.8725617   -3.2624953 
H     2.6526512    2.5570479   -2.3758039 
H     3.2141022    1.0781844   -3.1767846 
H     3.5583154    1.6365598    1.1433355 
H     2.9392010    2.8741742    0.0539907 
H    -1.4404018   -4.5130109    4.4280805 
H    -2.2445296   -2.9685676    4.7687989 
H    -0.7602949   -0.8689285    5.3507051 
H     1.0058001   -1.0496847    5.3822523 
H    -4.8686005    0.9291939   -1.9758402 
H    -4.8589013    1.4220617   -0.2701380 
H    -5.6119519   -0.2310736    1.5555176 
H    -6.1906563   -1.8467200    1.0972582 
H    -0.4734474   -0.0245307   -5.1546650 
H    -0.6833937   -1.4436890   -4.1054254 
H     1.2788477   -3.1314627   -3.8316906 
H     2.8106272   -2.8351586   -4.6813242 
H     4.8354114    2.9222278   -3.5244437 
H     5.5645225    1.5702987   -2.6360624 
H     5.8401505    1.8439304    0.0453597 
H     5.2966865    3.3723087    0.7655717 
H    -0.1573822   -3.1620307    6.1347177 
H     0.8037953   -3.4348243    4.6668331 
H    -6.7387866   -0.1637868   -0.6881935 
H    -5.6079614   -1.3808064   -1.3090885 
H     0.8475428   -1.9880638   -6.0134363 
H     1.9238939   -0.6549561   -5.5545258 
H     6.2546824    3.6991655   -1.5682213 
H     4.5646538    4.2254890   -1.4411771 
H    -2.7332720   -2.5251824   -1.1226206 
H     4.0673570   -0.1599684    1.1774884 
H     1.7714119   -4.5922541   -1.0091812 
H     1.6639834   -4.4654318    1.6351816 
H    -2.2505511   -4.4347764   -2.5813123 
H     4.8427155   -1.7933863    2.8182030 
H     0.0182282   -5.5229546   -2.5171105 
H     3.6417493   -3.9939770    3.0734650 
