119
Energy =
C     1.3690972   -3.0461861    0.3900091 
C     2.1177808   -2.4823345   -0.6896992 
C     3.0286638   -1.4303904   -0.4768243 
H     1.8940995   -2.7949249   -1.7173451 
Pd    0.8522302   -0.8733102    0.1423183 
P     0.6776614    1.2831991   -0.8601137 
P    -1.0171667   -0.5325723    1.5124509 
H     1.8601199   -3.0556817    1.3726564 
H     3.3341074   -1.2309004    0.5618852 
C    -1.6318204   -6.0931196   -0.1799152 
C    -1.3451654   -5.1888209   -1.2159794 
C    -0.3714322   -4.2008749   -1.0404205 
C     0.3434393   -4.0889961    0.1760936 
C     0.0605619   -5.0234903    1.1981791 
C    -0.9184559   -6.0099500    1.0252460 
H    -2.3976449   -6.8634027   -0.3163649 
H    -1.8893339   -5.2508663   -2.1643292 
H    -0.1773068   -3.4933146   -1.8541848 
H     0.6286843   -4.9866260    2.1333966 
H    -1.1169090   -6.7233176    1.8320692 
C     5.5246277    0.4697494   -3.4206178 
C     5.4998025    0.9303052   -2.0946339 
C     4.6973388    0.2889350   -1.1448637 
C     3.8838645   -0.8126519   -1.5012740 
C     3.9415401   -1.2815485   -2.8355189 
C     4.7525735   -0.6468966   -3.7820141 
H     6.1555094    0.9660309   -4.1648898 
H     6.1153403    1.7857509   -1.7976659 
H     4.6928215    0.6436053   -0.1092503 
H     3.3579671   -2.1574223   -3.1345612 
H     4.7866129   -1.0277445   -4.8078370 
C    -2.5599129   -0.4546498    0.4483447 
C    -1.4584193   -1.7447799    2.8882595 
C     1.9900804    2.5204775   -0.3275412 
C     1.0887353    0.9505209   -2.6622706 
C    -2.6731460   -1.7506293   -0.3839647 
C    -3.8997739   -0.1013041    1.1204994 
C    -0.2701878   -2.4732402    3.5521527 
C    -2.4085955   -1.1997093    3.9848643 
C     1.5778489    3.9967666   -0.5044293 
C     2.5194125    2.2511230    1.0969899 
C     0.1653923   -0.1289497   -3.2820060 
C     1.3480469    2.1544745   -3.5991143 
C    -3.7859867   -1.6119690   -1.4379931 
C    -4.9965049    0.0521590    0.0489737 
C    -0.7788992   -3.6378344    4.4215474 
C    -2.9237950   -2.3579234    4.8619375 
C     2.7508655    4.9328850   -0.1592668 
C     3.6878945    3.1942039    1.4322954 
C     0.6638211   -0.5580847   -4.6735399 
C     1.8320045    1.6669625   -4.9789972 
C    -5.1298647   -1.2236341   -0.7997421 
C    -1.7660277   -3.1475363    5.4936758 
C     3.2808589    4.6672285    1.2594300 
C     0.8570056    0.6538016   -5.5995216 
C    -0.6848805    1.0911620    2.3368692 
C    -0.9541117    2.1735414   -0.8061229 
C    -0.9483196    2.3643194    1.7613008 
C    -1.5684429    2.5702781    0.4183182 
C    -0.0172693    1.0483123    3.5823285 
C    -1.6442247    2.4451150   -2.0071662 
C    -0.6357435    3.5275447    2.5003145 
C    -2.8100245    3.2370618    0.3842848 
C     0.3201137    2.2114072    4.2836662 
C    -2.8892016    3.0879117   -2.0222931 
C    -0.0130475    3.4632171    3.7511169 
C    -3.4767291    3.4929214   -0.8196057 
H    -2.3236462    0.3492998   -0.2663840 
H    -2.0073489   -2.5080552    2.2992277 
H     2.8130556    2.2968083   -1.0364112 
H     2.0735369    0.4641683   -2.5228060 
H    -2.8844438   -2.6190635    0.2695682 
H    -1.7072721   -1.9567092   -0.8754425 
H    -3.8053552    0.8248704    1.7150807 
H    -4.1949597   -0.9109180    1.8127579 
H     0.2982645   -1.7740471    4.1939356 
H     0.4302466   -2.8318607    2.7859253 
H    -3.2540498   -0.6454752    3.5525348 
H    -1.8596519   -0.4811652    4.6196036 
H     0.7276702    4.2135145    0.1671952 
H     1.2196311    4.1832970   -1.5316145 
H     2.8251795    1.1930393    1.1912265 
H     1.7094806    2.4044312    1.8286809 
H    -0.8724800    0.2401350   -3.3690203 
H     0.1211927   -0.9986863   -2.5976127 
H     2.1122149    2.8153486   -3.1546954 
H     0.4402031    2.7689604   -3.7301016 
H    -3.8807038   -2.5581704   -2.0009684 
H    -3.4877085   -0.8329722   -2.1679009 
H    -4.7426033    0.9092887   -0.6042257 
H    -5.9581754    0.2946504    0.5358462 
H     0.0778712   -4.1556683    4.8897602 
H    -1.2813901   -4.3777920    3.7684064 
H    -3.5399106   -3.0371508    4.2401143 
H    -3.5899287   -1.9552750    5.6459792 
H     2.4276517    5.9842907   -0.2624352 
H     3.5673678    4.7793190   -0.8925957 
H     4.5448704    2.9732824    0.7642822 
H     4.0330648    3.0052255    2.4647995 
H    -0.0478017   -1.2788101   -5.1151930 
H     1.6301929   -1.0864593   -4.5667547 
H     2.8260099    1.1940651   -4.8638856 
H     1.9670477    2.5365402   -5.6467337 
H    -5.8989209   -1.0859931   -1.5807659 
H    -5.4795081   -2.0542761   -0.1552162 
H    -2.1557260   -4.0017495    6.0753122 
H    -1.2301128   -2.4947528    6.2108257 
H     4.1358624    5.3305744    1.4804156 
H     2.4891350    4.9113001    1.9953655 
H     1.2252378    0.3241159   -6.5873186 
H    -0.1222551    1.1426970   -5.7753517 
H     0.2497542    0.0831142    4.0170121 
H    -1.2084863    2.1548465   -2.9619354 
H    -0.8714344    4.5018435    2.0593418 
H    -3.2634641    3.5400310    1.3338302 
H     0.8346287    2.1337266    5.2465793 
H    -3.3891344    3.2739344   -2.9780974 
H     0.2256751    4.3831499    4.2938972 
H    -4.4467538    3.9997982   -0.8136340 
