119
Energy =
C     1.6130037   -2.7142541    0.8158345 
C     2.5631495   -2.1541169   -0.0993653 
C     3.2713998   -0.9804052    0.2248453 
H     2.6541677   -2.5924550   -1.1017341 
Pd    0.9422617   -0.7101185    0.2174314 
P     0.6538867    1.3658831   -0.9099423 
P    -1.1085873   -0.6556599    1.3475153 
H     1.8273309   -2.5993298    1.8889701 
H     3.2737432   -0.6783524    1.2833085 
C    -0.6927860   -6.1945358   -0.2480947 
C    -0.5492283   -5.1400089   -1.1668880 
C     0.1996353   -4.0091582   -0.8268583 
C     0.8153357   -3.9049787    0.4426654 
C     0.6672918   -4.9718841    1.3529329 
C    -0.0772276   -6.1087676    1.0086120 
H    -1.2818385   -7.0783367   -0.5133229 
H    -1.0313204   -5.1989184   -2.1484248 
H     0.2821668   -3.1747283   -1.5339490 
H     1.1452121   -4.9100171    2.3370737 
H    -0.1817695   -6.9274799    1.7279453 
C     6.3303946    0.9901782   -2.0647585 
C     6.0644374    1.3672890   -0.7399112 
C     5.0618250    0.7143861   -0.0141236 
C     4.3029833   -0.3303893   -0.5932666 
C     4.6045573   -0.7180293   -1.9211832 
C     5.6003469   -0.0598924   -2.6482357 
H     7.1123687    1.4999649   -2.6365907 
H     6.6418676    2.1703954   -0.2707220 
H     4.8542267    1.0135583    1.0192026 
H     4.0604958   -1.5420896   -2.3917255 
H     5.8164443   -0.3719089   -3.6752304 
C    -2.6705288   -0.1701282    0.4420138 
C    -1.5302210   -1.9860541    2.6216580 
C     2.1129974    2.5437037   -0.9010168 
C     0.4172372    0.9067206   -2.7130082 
C    -3.1667724   -1.2567274   -0.5434328 
C    -3.8323085    0.3430278    1.3175838 
C    -2.3090160   -1.4916050    3.8674769 
C    -2.2516655   -3.2175247    2.0255221 
C     2.0306731    3.6638863   -1.9579103 
C     2.3228830    3.1275159    0.5110533 
C     1.6749847    0.1836179   -3.2365359 
C    -0.8277488    0.0164614   -2.8905545 
C    -4.2710200   -0.6693325   -1.4425552 
C    -4.9449127    0.9206709    0.4224632 
C    -2.3951768   -2.6115764    4.9217949 
C    -2.3354406   -4.3419745    3.0749614 
C     3.2774908    4.5679314   -1.8917605 
C     3.5506254    4.0533991    0.5706637 
C     1.4983055   -0.2706318   -4.6957387 
C    -1.0038961   -0.4374780   -4.3487795 
C    -5.4354569   -0.1136217   -0.6048420 
C    -3.0562533   -3.8751436    4.3486915 
C     3.4661811    5.1640636   -0.4880226 
C     0.2534167   -1.1562593   -4.8635607 
C    -0.4795760    0.7534239    2.3790120 
C    -0.7956499    2.4590502   -0.5081158 
C    -0.5913253    2.1315900    2.0492052 
C    -1.2547189    2.6835092    0.8245766 
C     0.2906678    0.3940716    3.5137759 
C    -1.4609017    3.1183387   -1.5658890 
C    -0.0375023    3.0853694    2.9341955 
C    -2.3459272    3.5546678    1.0303163 
C     0.8721777    1.3533285    4.3476260 
C    -2.5527323    3.9662966   -1.3415539 
C     0.6833205    2.7141050    4.0722079 
C    -2.9997483    4.1859762   -0.0337993 
H    -2.3217190    0.6730349   -0.1783701 
H    -0.5285533   -2.3314438    2.9477250 
H     2.9727655    1.8888568   -1.1391474 
H     0.2875602    1.8376844   -3.2959574 
H    -3.5842725   -2.1123665    0.0116963 
H    -2.3305223   -1.6496626   -1.1462231 
H    -3.4755852    1.1025194    2.0354886 
H    -4.2431362   -0.4949986    1.9098923 
H    -3.3304976   -1.2044500    3.5631037 
H    -1.8479559   -0.5923743    4.3065988 
H    -1.7501537   -3.5754967    1.1118826 
H    -3.2801921   -2.9277663    1.7443774 
H     1.1249018    4.2741346   -1.7755882 
H     1.9372545    3.2381395   -2.9726931 
H     2.4064264    2.3122294    1.2542515 
H     1.4267722    3.7140696    0.7847026 
H     1.8516199   -0.7024310   -2.5961826 
H     2.5677623    0.8248243   -3.1440548 
H    -1.7321746    0.5435665   -2.5415979 
H    -0.7058378   -0.8717342   -2.2397777 
H    -4.6321726   -1.4452396   -2.1412820 
H    -3.8458772    0.1440889   -2.0630375 
H    -4.5505808    1.8101673   -0.1056088 
H    -5.7838613    1.2688242    1.0515487 
H    -2.9534713   -2.2444426    5.8016531 
H    -1.3732543   -2.8555001    5.2751058 
H    -1.3112703   -4.6727295    3.3313286 
H    -2.8438155   -5.2166974    2.6318285 
H     3.1908506    5.3698522   -2.6466908 
H     4.1702163    3.9697341   -2.1611982 
H     4.4667151    3.4591863    0.3986556 
H     3.6347671    4.4853048    1.5843836 
H     2.4063132   -0.8076240   -5.0254674 
H     1.4067532    0.6214339   -5.3458737 
H    -1.2098512    0.4461077   -4.9843473 
H    -1.8892500   -1.0943318   -4.4256249 
H    -6.2001153    0.3352468   -1.2636829 
H    -5.9296924   -0.9501329   -0.0725157 
H    -3.0647716   -4.6815435    5.1035739 
H    -4.1153903   -3.6538752    4.1102062 
H     4.3733776    5.7936062   -0.4568906 
H     2.6107397    5.8291661   -0.2561110 
H     0.1268320   -1.4470178   -5.9213820 
H     0.3951865   -2.0955082   -4.2911731 
H     0.4381615   -0.6628195    3.7551211 
H    -1.1219506    2.9749074   -2.5949609 
H    -0.1549485    4.1466186    2.6907595 
H    -2.6903197    3.7232809    2.0559780 
H     1.4570961    1.0351345    5.2164804 
H    -3.0446203    4.4544840   -2.1888036 
H     1.1077808    3.4811205    4.7275071 
H    -3.8522755    4.8443537    0.1606615 
