119
Energy =
C     0.9902686   -3.2353555    0.0606847 
C     1.0076413   -2.8381069   -1.2881205 
C     1.9556198   -1.8905931   -1.7820377 
H     0.2172028   -3.1943009   -1.9617557 
Pd    0.6610952   -0.9249827   -0.2551818 
P     0.9727611    1.3161522   -0.8653945 
P    -1.0949881   -0.4259223    1.3108206 
H     1.9039201   -3.0623255    0.6490947 
H     2.9364911   -1.8541698   -1.2862533 
C    -1.6295496   -6.2112585    1.7218459 
C    -2.0490745   -5.4597055    0.6099218 
C    -1.2071805   -4.4922169    0.0543372 
C     0.0710137   -4.2443502    0.6081841 
C     0.4836781   -5.0143127    1.7195166 
C    -0.3561933   -5.9919456    2.2678633 
H    -2.2922191   -6.9666196    2.1560979 
H    -3.0409924   -5.6280115    0.1776441 
H    -1.5554509   -3.9047221   -0.8007399 
H     1.4738963   -4.8396698    2.1546279 
H    -0.0186814   -6.5784176    3.1284099 
C     1.9331497   -0.7804593   -5.9460821 
C     0.7199220   -0.9276660   -5.2522789 
C     0.7212439   -1.2844744   -3.8994854 
C     1.9375532   -1.4947186   -3.2072362 
C     3.1478106   -1.3507221   -3.9180510 
C     3.1451623   -1.0013915   -5.2755315 
H     1.9320794   -0.5015310   -7.0046033 
H    -0.2312875   -0.7591722   -5.7685561 
H    -0.2286754   -1.3685336   -3.3591026 
H     4.0981220   -1.5210631   -3.4006259 
H     4.0945168   -0.8998968   -5.8114905 
C    -2.6854643   -1.0867021    0.5569510 
C    -1.0151172   -1.2486850    3.0115990 
C     1.4873079    2.3141374    0.6363618 
C     2.1218026    1.7656372   -2.2858783 
C    -3.9601457   -0.4400056    1.1330802 
C    -2.7016074   -1.1320988   -0.9849517 
C    -1.7060525   -2.6209007    3.1489675 
C     0.4582541   -1.3023159    3.4762718 
C     2.6179592    1.6099234    1.4269465 
C     1.7694821    3.8167957    0.4424303 
C     1.9074192    3.1708637   -2.9019556 
C     3.6040513    1.5636564   -1.8939170 
C    -5.2183830   -1.1540895    0.6046809 
C    -3.9627247   -1.8579282   -1.4851927 
C    -1.5665167   -3.1496811    4.5906698 
C     0.5771211   -1.8365323    4.9136114 
C     2.8005543    2.2984922    2.7916009 
C     1.9730363    4.4915111    1.8132044 
C     2.8266467    3.3580741   -4.1235263 
C     4.5382576    1.8063162   -3.0951851 
C    -5.2371455   -1.1971797   -0.9324839 
C    -0.1019249   -3.2076607    5.0526364 
C     3.0808318    3.8019013    2.6265820 
C     4.3029300    3.1830313   -3.7348661 
C    -1.3972973    1.3651090    1.7819816 
C    -0.7135049    1.7795097   -1.4739407 
C    -1.6998578    2.3798968    0.8248824 
C    -1.8069576    2.1584340   -0.6482580 
C    -1.2482905    1.7716341    3.1287240 
C    -0.9515826    1.5915898   -2.8563201 
C    -1.9104319    3.7059385    1.2585898 
C    -3.0590486    2.4226721   -1.2477280 
C    -1.4333146    3.0984207    3.5385219 
C    -2.2095329    1.8185393   -3.4253780 
C    -1.7847758    4.0745670    2.6019002 
C    -3.2692819    2.2571521   -2.6205030 
H    -2.6459383   -2.1404867    0.8944668 
H    -1.5747345   -0.5761545    3.6838529 
H     0.5978835    2.2417016    1.2766142 
H     1.8862375    1.0132221   -3.0620050 
H    -3.9871092    0.6256089    0.8395636 
H    -3.9391696   -0.4599757    2.2382363 
H    -1.7848665   -1.6331561   -1.3501147 
H    -2.6845151   -0.1137877   -1.4000540 
H    -1.2665097   -3.3461371    2.4496853 
H    -2.7782004   -2.5374022    2.9025451 
H     0.9228419   -0.3016117    3.3983048 
H     1.0185664   -1.9594395    2.7830052 
H     3.5699190    1.6462906    0.8685988 
H     2.3669436    0.5400995    1.5618250 
H     0.9349904    4.2964961   -0.0998572 
H     2.6812578    3.9573456   -0.1661491 
H     2.1436960    3.9481280   -2.1567672 
H     0.8543511    3.3213949   -3.1907733 
H     3.7572777    0.5483371   -1.4841455 
H     3.8707457    2.2765499   -1.0927157 
H    -6.1217860   -0.6485809    0.9904135 
H    -5.2405603   -2.1886546    1.0005994 
H    -3.9324964   -2.9187010   -1.1634974 
H    -3.9752343   -1.8607192   -2.5901821 
H    -2.0292701   -4.1510774    4.6495495 
H    -2.1392725   -2.4938829    5.2762482 
H     0.1003861   -1.1167647    5.6087164 
H     1.6418387   -1.8951826    5.2029663 
H     3.6189863    1.8092891    3.3499092 
H     1.8771074    2.1616539    3.3892246 
H     1.0212400    4.4477584    2.3763915 
H     2.2094081    5.5607347    1.6665265 
H     2.6550914    4.3577958   -4.5612620 
H     2.5566201    2.6162618   -4.9012247 
H     4.3596294    1.0243565   -3.8543899 
H     5.5881372    1.7018114   -2.7669202 
H    -6.1340533   -1.7340928   -1.2892224 
H    -5.3068035   -0.1635909   -1.3259525 
H    -0.0452801   -3.5601432    6.0978928 
H     0.4444351   -3.9475160    4.4369262 
H     3.1829106    4.2826028    3.6159203 
H     4.0519486    3.9349498    2.1098591 
H     4.9534025    3.3068719   -4.6189943 
H     4.5871160    3.9794032   -3.0186398 
H    -0.9668761    1.0531795    3.8989769 
H    -0.1406892    1.2562432   -3.5074804 
H    -2.1501296    4.4636295    0.5054255 
H    -3.8854128    2.7434145   -0.6046509 
H    -1.3011917    3.3580211    4.5935661 
H    -2.3525619    1.6632339   -4.4995925 
H    -1.9414639    5.1142323    2.9056531 
H    -4.2543948    2.4568792   -3.0535036 
