119
Energy =
C     1.3820409   -2.9403598    0.6123403 
C     2.0935484   -2.4638183   -0.5290796 
C     2.9911988   -1.3832590   -0.4145212 
H     1.8553609   -2.8751024   -1.5185972 
Pd    0.8077550   -0.8099031    0.1683714 
P     0.7016216    1.2998138   -0.9092511 
P    -1.0929007   -0.4484385    1.4973675 
H     1.8919840   -2.8376207    1.5803979 
H     3.3078721   -1.1073244    0.6029528 
C    -1.4687358   -6.1649143    0.3861411 
C    -1.4451889   -5.1780781   -0.6142524 
C    -0.5156410   -4.1348339   -0.5518015 
C     0.4062807   -4.0483153    0.5159353 
C     0.3841504   -5.0580057    1.5037661 
C    -0.5435037   -6.1062987    1.4389880 
H    -2.2010034   -6.9773848    0.3407639 
H    -2.1621911   -5.2182120   -1.4410096 
H    -0.5223574   -3.3540048   -1.3202381 
H     1.1055177   -5.0214437    2.3277965 
H    -0.5444840   -6.8790726    2.2146843 
C     5.4904480    0.2713439   -3.4988255 
C     5.4823924    0.8229399   -2.2077541 
C     4.6763602    0.2617749   -1.2113739 
C     3.8431617   -0.8488591   -1.4866635 
C     3.8829930   -1.4092010   -2.7855073 
C     4.6976093   -0.8543027   -3.7779662 
H     6.1236958    0.7048931   -4.2793775 
H     6.1137459    1.6865385   -1.9746428 
H     4.6844462    0.6866549   -0.2021981 
H     3.2784107   -2.2900462   -3.0214260 
H     4.7168300   -1.3034586   -4.7761783 
C    -2.6850182   -0.2756507    0.5295953 
C    -1.4496240   -1.5952917    2.9555634 
C     2.0013621    2.5282888   -0.3215675 
C     1.1817790    0.9691287   -2.6938388 
C    -2.9147294   -1.4299402   -0.4705709 
C    -3.9230164    0.0737467    1.3827540 
C    -2.3537800   -2.8086551    2.6316113 
C    -0.1659693   -2.1151088    3.6462272 
C     1.6133174    4.0086860   -0.5194880 
C     2.4762554    2.2561343    1.1229842 
C     0.3047552   -0.1356162   -3.3377458 
C     1.4362462    2.1876998   -3.6135609 
C    -4.1458135   -1.1293074   -1.3446608 
C    -5.1398014    0.3325045    0.4738320 
C    -2.7100265   -3.5625984    3.9288566 
C    -0.5106953   -2.8307405    4.9644553 
C     2.7815589    4.9335245   -0.1305662 
C     3.6385764    3.1913403    1.5001978 
C     0.8161847   -0.5213715   -4.7377431 
C     1.9396487    1.7288242   -4.9959592 
C    -5.3894962   -0.8418081   -0.4868397 
C    -1.4652057   -4.0087287    4.7111321 
C     3.2511411    4.6671846    1.3090215 
C     0.9836380    0.7121881   -5.6390239 
C    -0.8291415    1.2076094    2.3221668 
C    -0.9201641    2.1941698   -0.9219844 
C    -0.9840493    2.4603596    1.6561148 
C    -1.5413138    2.6419280    0.2790849 
C    -0.3879899    1.2320255    3.6652124 
C    -1.5997182    2.4137891   -2.1396447 
C    -0.7117958    3.6532017    2.3631507 
C    -2.7721028    3.3285454    0.2027103 
C    -0.0898028    2.4239213    4.3372299 
C    -2.8381651    3.0664076   -2.1943922 
C    -0.2519925    3.6491662    3.6832791 
C    -3.4251891    3.5398375   -1.0166425 
H    -2.4768528    0.6056616   -0.0958253 
H    -2.0045101   -0.9444325    3.6617235 
H     2.8485502    2.2962070   -0.9983679 
H     2.1738201    0.5091037   -2.5266944 
H    -3.0535117   -2.3940603    0.0474290 
H    -2.0138013   -1.5372067   -1.1017610 
H    -3.7080609    0.9656629    1.9999128 
H    -4.1610357   -0.7471621    2.0828554 
H    -1.8323152   -3.4853306    1.9325624 
H    -3.2856353   -2.4912065    2.1403573 
H     0.5755736   -1.3158496    3.8164557 
H     0.3118368   -2.8346143    2.9642934 
H     0.7399713    4.2384768    0.1158334 
H     1.2989761    4.1952086   -1.5606825 
H     2.7756883    1.1969988    1.2261621 
H     1.6407354    2.4113657    1.8263186 
H    -0.7484264    0.1885795   -3.4167184 
H     0.2998290   -1.0194403   -2.6701428 
H     2.1890141    2.8490809   -3.1507780 
H     0.5238864    2.7953094   -3.7441048 
H    -4.3320278   -1.9773956   -2.0282501 
H    -3.9296688   -0.2467890   -1.9798075 
H    -4.9566849    1.2515518   -0.1158370 
H    -6.0323069    0.5237015    1.0962428 
H    -3.3385220   -4.4358914    3.6779305 
H    -3.3281025   -2.9005219    4.5673530 
H    -0.9799386   -2.1092226    5.6626617 
H     0.4173386   -3.1826343    5.4502466 
H     2.4734626    5.9877443   -0.2500805 
H     3.6253602    4.7692984   -0.8299329 
H     4.5183670    2.9614637    0.8655530 
H     3.9431526    3.0015185    2.5451583 
H     0.1224388   -1.2499486   -5.1945133 
H     1.7945434   -1.0276192   -4.6407645 
H     2.9391701    1.2673262   -4.8799910 
H     2.0678468    2.6110664   -5.6482461 
H    -6.2582442   -0.6258419   -1.1340402 
H    -5.6484051   -1.7473621    0.0974038 
H    -1.7614327   -4.4773856    5.6664886 
H    -0.9324664   -4.7829224    4.1273768 
H     4.1021764    5.3236931    1.5632408 
H     2.4325059    4.9193463    2.0119833 
H     1.3584281    0.4092524   -6.6328760 
H    -0.0042592    1.1869291   -5.8060926 
H    -0.2727613    0.3011408    4.2199592 
H    -1.1610162    2.0734709   -3.0763054 
H    -0.8626213    4.6062532    1.8453963 
H    -3.2340854    3.6714757    1.1341168 
H     0.2553811    2.3855324    5.3752711 
H    -3.3311109    3.2095515   -3.1611238 
H    -0.0343515    4.5924190    4.1939687 
H    -4.3871780    4.0613513   -1.0411114 
