119
Energy =
C     0.8689872   -3.1101104    0.1908977 
C     1.7594456   -2.6495359   -0.8327327 
C     2.7698470   -1.7131678   -0.5338884 
H     1.5640472   -2.9159194   -1.8794891 
Pd    0.6759258   -0.8934130   -0.0336794 
P     0.7289358    1.2595366   -0.9707138 
P    -1.0666975   -0.5504790    1.4951911 
H     1.2932553   -3.2339738    1.1958226 
H     3.0165358   -1.5665155    0.5296165 
C    -2.6880385   -5.4307489   -0.5564303 
C    -2.1964962   -4.5626579   -1.5463230 
C    -1.0339251   -3.8191080   -1.3197583 
C    -0.3289727   -3.9259276   -0.0969163 
C    -0.8243289   -4.8219122    0.8791840 
C    -1.9929015   -5.5614034    0.6550927 
H    -3.6023119   -6.0062568   -0.7331600 
H    -2.7298737   -4.4579404   -2.4967743 
H    -0.6807444   -3.1263931   -2.0918923 
H    -0.2757717   -4.9490264    1.8189294 
H    -2.3559999   -6.2491610    1.4260270 
C     5.6248538    0.0444628   -3.2222289 
C     5.4808905    0.5265796   -1.9106487 
C     4.5645706   -0.0737120   -1.0414563 
C     3.7553639   -1.1542424   -1.4699316 
C     3.9292329   -1.6442875   -2.7841527 
C     4.8559970   -1.0502191   -3.6488408 
H     6.3454763    0.5083531   -3.9032748 
H     6.0913285    1.3667427   -1.5637320 
H     4.4566187    0.3021583   -0.0180747 
H     3.3456583   -2.5030169   -3.1301660 
H     4.9829003   -1.4462407   -4.6615786 
C    -2.7867448   -0.9644254    0.8671984 
C    -0.8015533   -1.8074437    2.8698675 
C     1.9303233    2.4770551   -0.1930924 
C     1.3961709    1.0524868   -2.7185684 
C    -3.9295194   -0.2300234    1.5989982 
C    -2.9315750   -0.8226619   -0.6634561 
C     0.6168354   -1.7802905    3.4910046 
C    -1.8976073   -1.9813868    3.9462833 
C     1.5350434    3.9602349   -0.3488838 
C     2.2646526    2.1353788    1.2759917 
C     0.6350387   -0.0385729   -3.5165913 
C     1.6799412    2.3399638   -3.5292788 
C    -5.2971531   -0.7612428    1.1288173 
C    -4.2922527   -1.3725143   -1.1224457 
C     0.8707452   -3.0537142    4.3173734 
C    -1.6173104   -3.2496901    4.7784195 
C     2.6450511    4.8777408    0.1972695 
C     3.3791888    3.0549872    1.8041635 
C     1.2733034   -0.2954604   -4.8939773 
C     2.3220806    2.0005966   -4.8882106 
C    -5.4484065   -0.6613199   -0.3986569 
C    -0.2100446   -3.2356184    5.3961806 
C     2.9923445    4.5362872    1.6559417 
C     1.4624982    1.0077921   -5.6853338 
C    -1.0548445    1.1421528    2.2423965 
C    -0.9448893    2.0470107   -1.0880440 
C    -1.2585994    2.3285329    1.4814630 
C    -1.7223354    2.3810155    0.0578466 
C    -0.7480576    1.2800568    3.6142430 
C    -1.5234457    2.2563294   -2.3601257 
C    -1.1446281    3.5806118    2.1252895 
C    -3.0210451    2.9067756   -0.1249333 
C    -0.6101850    2.5308061    4.2282758 
C    -2.8238055    2.7496796   -2.5208909 
C    -0.8037685    3.6944918    3.4773143 
C    -3.5843868    3.0760064   -1.3938940 
H    -2.8446426   -2.0486769    1.0997262 
H    -0.8516354   -2.7190921    2.2436101 
H     2.8466131    2.2927308   -0.7910166 
H     2.3869134    0.6194025   -2.4796992 
H    -3.8555804    0.8488395    1.3729760 
H    -3.8320709   -0.3275132    2.6937664 
H    -2.1025346   -1.3475387   -1.1688662 
H    -2.8588634    0.2405113   -0.9456413 
H     0.7403407   -0.9042091    4.1511478 
H     1.3754544   -1.6646843    2.6944415 
H    -2.8899305   -2.0695373    3.4734950 
H    -1.9402731   -1.1015527    4.6140842 
H     0.6017201    4.1392817    0.2129366 
H     1.3168225    4.2009522   -1.4032791 
H     2.5564163    1.0716699    1.3583776 
H     1.3638977    2.2605681    1.9009936 
H    -0.4234352    0.2391870   -3.6609732 
H     0.6205257   -0.9689110   -2.9177503 
H     2.3587843    2.9955505   -2.9571254 
H     0.7557186    2.9199934   -3.7005082 
H    -6.1045661   -0.2028072    1.6358122 
H    -5.3999050   -1.8196291    1.4403671 
H    -4.3345384   -2.4600531   -0.9153008 
H    -4.3896993   -1.2527246   -2.2169144 
H     1.8744690   -3.0058569    4.7762283 
H     0.8726420   -3.9358110    3.6463861 
H    -1.7209845   -4.1362508    4.1217461 
H    -2.3851923   -3.3496379    5.5661915 
H     2.3286894    5.9327886    0.1108734 
H     3.5502128    4.7668224   -0.4324420 
H     4.3140668    2.8612641    1.2400713 
H     3.5908159    2.8137222    2.8614797 
H     0.6483007   -1.0109234   -5.4583493 
H     2.2605417   -0.7715178   -4.7545041 
H     3.3228013    1.5589686   -4.7140756 
H     2.4774558    2.9322195   -5.4610926 
H    -6.4191144   -1.0837777   -0.7140702 
H    -5.4545000    0.4069450   -0.6933724 
H    -0.0322045   -4.1659923    5.9640591 
H    -0.1383875   -2.4031761    6.1241253 
H     3.8101931    5.1849972    2.0169409 
H     2.1131157    4.7439819    2.2974826 
H     1.9291701    0.7944300   -6.6634220 
H     0.4742909    1.4625805   -5.8997563 
H    -0.6160408    0.3915772    4.2295646 
H    -0.9516109    2.0319474   -3.2585992 
H    -1.3295171    4.4847283    1.5357891 
H    -3.5985072    3.1792587    0.7645732 
H    -0.3635132    2.5864855    5.2932441 
H    -3.2297127    2.8847187   -3.5284036 
H    -0.7064332    4.6824805    3.9382259 
H    -4.6014466    3.4671775   -1.4964268 
