119
Energy =
C     1.6523744   -2.8452306    0.8350485 
C     2.3426832   -2.4407088   -0.3463172 
C     3.1396181   -1.2772845   -0.3734187 
H     2.1472078   -2.9844409   -1.2789548 
Pd    0.9284941   -0.8418887    0.1812218 
P     0.7276356    1.3011509   -0.8578015 
P    -1.0286709   -0.5968469    1.4365827 
H     2.1006144   -2.5682891    1.8009145 
H     3.4850510   -0.8869231    0.5948546 
C    -0.7481988   -6.4196169    0.8962070 
C    -0.7442663   -5.5991413   -0.2455135 
C     0.0253391   -4.4322058   -0.2706136 
C     0.8052762   -4.0562860    0.8486307 
C     0.7873940   -4.8859745    1.9901515 
C     0.0230069   -6.0604874    2.0105589 
H    -1.3515051   -7.3328475    0.9151862 
H    -1.3515524   -5.8688922   -1.1158375 
H    -0.0046042   -3.7823877   -1.1524966 
H     1.3874416   -4.6107398    2.8649242 
H     0.0257903   -6.6948488    2.9028598 
C     5.3494957    0.2569969   -3.7336998 
C     5.4749991    0.8395785   -2.4631401 
C     4.7591990    0.3190980   -1.3788820 
C     3.8881410   -0.7839583   -1.5403460 
C     3.7835936   -1.3681399   -2.8254998 
C     4.5082409   -0.8550444   -3.9059414 
H     5.9115724    0.6585579   -4.5828007 
H     6.1409042    1.6958783   -2.3140640 
H     4.8750298    0.7678040   -0.3868201 
H     3.1291996   -2.2305519   -2.9857527 
H     4.4152138   -1.3238217   -4.8909234 
C    -2.5340979   -0.3714136    0.3504241 
C    -1.4884763   -1.7680185    2.8498157 
C     2.0759052    2.5151258   -0.3451558 
C     1.0862277    1.0013021   -2.6749933 
C    -2.6614213   -1.5212269   -0.6793978 
C    -3.8742091   -0.0627334    1.0465354 
C    -2.3318554   -1.1270584    3.9829465 
C    -2.1851262   -3.0581660    2.3564888 
C     1.6645110    3.9962693   -0.4854748 
C     2.6553792    2.2259587    1.0550206 
C     0.1221112   -0.0429101   -3.2899034 
C     1.3511514    2.2192249   -3.5923579 
C    -3.7377678   -1.1638732   -1.7200955 
C    -4.9496434    0.2665444   -0.0067755 
C    -2.5192500   -2.1196984    5.1461055 
C    -2.3724643   -4.0477983    3.5216453 
C     2.8513485    4.9248156   -0.1695808 
C     3.8323635    3.1664525    1.3690057 
C     0.5626187   -0.4461604   -4.7086889 
C     1.7814037    1.7521452   -4.9966955 
C    -5.0867967   -0.8565658   -1.0480775 
C    -3.1749927   -3.4259722    4.6732634 
C     3.4233723    4.6419098    1.2289381 
C     0.7590241    0.7828759   -5.6105173 
C    -0.5628704    0.9710167    2.3159842 
C    -0.8716203    2.2429004   -0.7275017 
C    -0.7914940    2.2901004    1.8401787 
C    -1.4372325    2.6070685    0.5312346 
C     0.1793536    0.8101721    3.5108524 
C    -1.5767578    2.5986584   -1.8964886 
C    -0.3944537    3.3848009    2.6417488 
C    -2.6440957    3.3336098    0.5617113 
C     0.6036391    1.9063820    4.2696876 
C    -2.7883019    3.3017346   -1.8479668 
C     0.2854011    3.2054936    3.8506893 
C    -3.3233813    3.6806423   -0.6125656 
H    -2.2649479    0.5175942   -0.2386183 
H    -0.5048609   -2.0688120    3.2642251 
H     2.8705774    2.2983120   -1.0873228 
H     2.0622775    0.4892383   -2.5694343 
H    -2.9303070   -2.4690888   -0.1822903 
H    -1.6853853   -1.6853901   -1.1714103 
H    -3.7545903    0.7805237    1.7502479 
H    -4.2038824   -0.9364178    1.6376432 
H    -3.3220300   -0.8481171    3.5832824 
H    -1.8723339   -0.1981332    4.3556394 
H    -1.6148703   -3.5311520    1.5434986 
H    -3.1800355   -2.7994976    1.9502964 
H     0.8405048    4.2070907    0.2201689 
H     1.2686024    4.1990718   -1.4954823 
H     2.9723622    1.1707223    1.1215067 
H     1.8702513    2.3607074    1.8160981 
H    -0.9112530    0.3478988   -3.3272826 
H     0.0915186   -0.9311117   -2.6292300 
H     2.1451150    2.8496289   -3.1560711 
H     0.4572211    2.8604440   -3.6847687 
H    -3.8445722   -1.9911521   -2.4448403 
H    -3.4025889   -0.2764466   -2.2935389 
H    -4.6715973    1.2087711   -0.5166802 
H    -5.9162913    0.4483130    0.4964073 
H    -3.1237571   -1.6426099    5.9383036 
H    -1.5305358   -2.3435043    5.5942307 
H    -1.3767990   -4.3578305    3.8915235 
H    -2.8628915   -4.9627210    3.1442223 
H     2.5281455    5.9780385   -0.2519491 
H     3.6439556    4.7764518   -0.9296899 
H     4.6696949    2.9551987    0.6736904 
H     4.2075397    2.9617823    2.3880095 
H    -0.1821159   -1.1366581   -5.1438071 
H     1.5173645   -1.0020057   -4.6462166 
H     2.7641056    1.2485564   -4.9220962 
H     1.9220199    2.6339247   -5.6470678 
H    -5.8391573   -0.5811198   -1.8086229 
H    -5.4616537   -1.7733692   -0.5512849 
H    -3.2622367   -4.1395191    5.5120169 
H    -4.2065886   -3.2123546    4.3300057 
H     4.2860288    5.3008316    1.4326518 
H     2.6544976    4.8780584    1.9912771 
H     1.0862314    0.4684439   -6.6175742 
H    -0.2109333    1.3032374   -5.7425302 
H     0.4273020   -0.1957265    3.8637701 
H    -1.1812420    2.3257764   -2.8741388 
H    -0.6057297    4.3968531    2.2805495 
H    -3.0619897    3.6081701    1.5358462 
H     1.1707168    1.7415595    5.1912176 
H    -3.3042383    3.5536350   -2.7798334 
H     0.5869958    4.0732874    4.4454473 
H    -4.2658336    4.2344996   -0.5583514 
