99
Energy =
C     2.5553992    0.4114100   -1.8852549 
C     3.0294870   -0.8138115   -1.3621029 
C     2.2435664   -1.9953867   -1.4574014 
H     3.9741433   -0.8399844   -0.8046393 
Pd    1.1800584   -0.4176063   -0.2407228 
P    -0.6813152   -1.7043407    0.4587901 
P     0.4744621    1.5801546    0.7911266 
H     1.7523301    0.3491398   -2.6352006 
H     1.5218685   -2.0419700   -2.2867025 
C     4.7063952    4.1342177   -2.0302323 
C     3.6443885    3.8818138   -2.9114970 
C     2.9582554    2.6633316   -2.8512683 
C     3.3147826    1.6717334   -1.9072353 
C     4.4043967    1.9320658   -1.0431760 
C     5.0880742    3.1500790   -1.1020690 
H     5.2424810    5.0878056   -2.0716325 
H     3.3519796    4.6351916   -3.6501994 
H     2.1319239    2.4700548   -3.5432919 
H     4.7132419    1.1815132   -0.3097022 
H     5.9251293    3.3352962   -0.4209619 
C     3.6574699   -5.8278973   -0.0988527 
C     4.0150888   -4.6639578    0.6030013 
C     3.5491841   -3.4149805    0.1808539 
C     2.7164285   -3.3004892   -0.9567395 
C     2.3611790   -4.4795507   -1.6493751 
C     2.8285619   -5.7309581   -1.2262615 
H     4.0229331   -6.8047076    0.2337217 
H     4.6556281   -4.7341550    1.4882864 
H     3.8091017   -2.5182328    0.7547626 
H     1.7259727   -4.4089234   -2.5401460 
H     2.5488696   -6.6321132   -1.7817833 
O    -3.1847024    2.2851185   -1.8055222 
O    -4.6264874    0.7097349    0.1223987 
C    -0.6287386   -3.5345011    0.0402510 
C    -1.6681065   -1.4966499    2.0502417 
C     0.8054865    3.1699701   -0.1526228 
C     1.4258163    1.7638376    2.4021782 
C    -1.5996520   -0.8872217   -0.9330132 
C    -1.3110596    1.7308908    1.2561887 
C    -2.1514063    0.4162196   -0.8188468 
C    -2.3435269    1.1605270    0.4686217 
C    -2.6586110    1.0450629   -1.9935219 
C    -3.6934910    1.3162072    0.9027863 
C    -1.9917730   -4.2138563   -0.1854090 
C     0.2424810   -4.3229826    1.0388075 
C    -1.0546498   -2.2596834    3.2398848 
C    -3.1726737   -1.7918389    1.8942943 
C     0.5919404    4.4490196    0.6713440 
C    -0.0296402    3.1802906   -1.4412875 
C     1.1173746    0.6104590    3.3687764 
C     2.9323134    1.8469670    2.1026756 
C    -1.5418402   -1.5111115   -2.2043132 
C    -1.6403737    2.4411042    2.4343075 
C    -2.5924857    0.4141526   -3.2466163 
C    -4.0039560    2.0189590    2.0786570 
C    -2.0334894   -0.8658567   -3.3400971 
C    -2.9708833    2.5813605    2.8360994 
C    -3.8011645    2.9586088   -2.9023462 
C    -6.0093499    0.8429216    0.4502912 
H    -0.0762537   -3.5222818   -0.9162376 
H    -1.5500318   -0.4218792    2.2535045 
H     1.8736197    3.0875606   -0.4219095 
H     1.1086764    2.7181026    2.8601293 
H    -2.5038435   -4.4057998    0.7711716 
H    -2.6656906   -3.6200253   -0.8246003 
H    -1.8292314   -5.1917238   -0.6736843 
H     1.1430496   -3.7641303    1.3384203 
H     0.5775793   -5.2599597    0.5631582 
H    -0.3227032   -4.5894901    1.9448782 
H     0.0434121   -2.1761189    3.2800336 
H    -1.3188666   -3.3287625    3.2168344 
H    -1.4599465   -1.8399227    4.1773402 
H    -3.3732819   -2.8748249    1.9053642 
H    -3.7145605   -1.3407787    2.7448327 
H    -3.5926882   -1.3716769    0.9666711 
H     1.2462903    4.4958846    1.5581484 
H    -0.4570503    4.5467249    1.0011400 
H     0.8294724    5.3255593    0.0421095 
H    -1.1019271    3.3083239   -1.2168767 
H     0.2935155    4.0172183   -2.0848039 
H     0.0860424    2.2425038   -2.0112234 
H     1.6842902    0.7474154    4.3065922 
H     0.0467958    0.5571356    3.6261957 
H     1.4178590   -0.3546144    2.9240772 
H     3.1886157    2.6890789    1.4396948 
H     3.2822548    0.9138217    1.6254265 
H     3.4896643    1.9766792    3.0471597 
H    -1.1056773   -2.5067934   -2.3122262 
H    -0.8558060    2.8902325    3.0472126 
H    -2.9757683    0.9069205   -4.1427594 
H    -5.0396102    2.1264683    2.4086846 
H    -1.9860083   -1.3656837   -4.3130543 
H    -3.2086484    3.1328493    3.7514144 
H    -3.0704365    3.1771265   -3.7037769 
H    -4.1857207    3.9034366   -2.4924104 
H    -4.6382180    2.3647928   -3.3144030 
H    -6.3197843    1.9044381    0.4471142 
H    -6.2341614    0.3926101    1.4355680 
H    -6.5540396    0.2971307   -0.3332121 
