99
Energy =
C     3.5626580   -0.0635815   -0.7208725 
C     3.4296419   -1.0802734    0.2739232 
C     2.9079637   -2.3499581   -0.0458290 
H     3.6323065   -0.8278666    1.3227030 
Pd    1.4138743   -0.6241210   -0.4846581 
P    -0.6060729   -1.6321872    0.2944153 
P     0.3370161    1.2698831   -1.3278469 
H     3.7574205   -0.3936228   -1.7516821 
H     2.9279688   -2.6438748   -1.1065336 
C     4.9156989    3.9190361    0.2150442 
C     4.1345217    3.2076948    1.1416788 
C     3.6986131    1.9111228    0.8480924 
C     4.0361914    1.2941341   -0.3807401 
C     4.8336934    2.0161151   -1.2958192 
C     5.2669671    3.3157032   -1.0019464 
H     5.2512809    4.9357558    0.4431804 
H     3.8557663    3.6711851    2.0941079 
H     3.0534770    1.3843078    1.5603510 
H     5.1146857    1.5508272   -2.2467133 
H     5.8844862    3.8584990   -1.7251432 
C     2.3338545   -5.6772945    2.6210798 
C     2.4107549   -5.8719089    1.2339941 
C     2.6063738   -4.7777272    0.3826849 
C     2.7314911   -3.4651785    0.8980592 
C     2.6662372   -3.2883373    2.3003655 
C     2.4667039   -4.3814196    3.1492281 
H     2.1778454   -6.5299933    3.2895871 
H     2.3200170   -6.8788222    0.8138510 
H     2.6613224   -4.9338045   -0.7007542 
H     2.7567963   -2.2871095    2.7319780 
H     2.4150642   -4.2241130    4.2316466 
O    -4.0157667    2.2482571   -0.3960320 
O    -3.4222096    1.3957390    2.3148311 
C    -0.5529263   -3.4561965   -0.1546072 
C    -0.5893997   -1.6693654    2.1866310 
C    -0.9103987    0.8452269   -2.6701280 
C     1.3995618    2.7025656   -1.9260194 
C    -2.2443221   -0.9421345   -0.2322342 
C    -0.4985952    1.9124169    0.1925590 
C    -2.5808039    0.4229231   -0.0399607 
C    -1.7261858    1.4097306    0.6856895 
C    -3.8018464    0.9185425   -0.5778905 
C    -2.2293164    1.9162025    1.9200402 
C    -0.3835524   -3.6787260   -1.6697368 
C    -1.5559768   -4.4171088    0.5103822 
C    -1.9986095   -1.7195494    2.7998478 
C     0.2727693   -0.5521440    2.7989860 
C    -0.2597281    0.0636835   -3.8287750 
C    -1.7824848    2.0206896   -3.1403281 
C     2.1530370    2.3377075   -3.2171596 
C     0.6918335    4.0665215   -2.0570090 
C    -3.1347597   -1.7727781   -0.9496394 
C     0.2369564    2.8393613    0.9711513 
C    -4.6783135    0.0755867   -1.2826540 
C    -1.5062215    2.8611481    2.6661615 
C    -4.3344205   -1.2682117   -1.4605744 
C    -0.2664128    3.3036193    2.1876445 
C    -5.2398996    2.8274951   -0.8481706 
C    -4.0441119    1.8924512    3.5001790 
H     0.4275147   -3.6870478    0.2988391 
H    -0.0729499   -2.6307308    2.3750939 
H    -1.5627649    0.1299230   -2.1519319 
H     2.1534910    2.7776961   -1.1225547 
H    -0.0758937   -4.7234098   -1.8544709 
H    -1.3095122   -3.4973471   -2.2401925 
H     0.3979150   -3.0140545   -2.0803676 
H    -2.5995004   -4.2592117    0.1942053 
H    -1.5178096   -4.3457607    1.6093008 
H    -1.2779496   -5.4522538    0.2421301 
H    -1.9174603   -1.8839090    3.8899314 
H    -2.6104367   -2.5330532    2.3776767 
H    -2.5393862   -0.7741674    2.6323507 
H     1.2685715   -0.5043618    2.3251606 
H    -0.1970482    0.4366565    2.6858527 
H     0.4109454   -0.7434105    3.8783920 
H     0.3891269   -0.7474748   -3.4528261 
H     0.3379128    0.7049858   -4.4945384 
H    -1.0580074   -0.3966014   -4.4376575 
H    -1.2267387    2.7027610   -3.8045153 
H    -2.6403958    1.6235792   -3.7122009 
H    -2.1821735    2.5997045   -2.2909552 
H     2.9790208    3.0536156   -3.3661438 
H     2.5860318    1.3242095   -3.1756171 
H     1.4939040    2.3994170   -4.0989841 
H     1.4604656    4.8556408   -2.1393695 
H     0.0559686    4.3039193   -1.1891957 
H     0.0678393    4.1145865   -2.9627672 
H    -2.8968934   -2.8213212   -1.1192764 
H     1.2099133    3.2005637    0.6324720 
H    -5.6131390    0.4582873   -1.6982390 
H    -1.8910468    3.2409010    3.6149914 
H    -5.0105070   -1.9313843   -2.0098058 
H     0.3121508    4.0256631    2.7730806 
H    -6.1110367    2.3491533   -0.3630170 
H    -5.3384309    2.7519072   -1.9476537 
H    -5.1921355    3.8868882   -0.5585645 
H    -3.4267885    1.6873353    4.3951058 
H    -4.9982070    1.3528151    3.5833249 
H    -4.2370752    2.9785670    3.4223204 
