99
Energy =
C     3.4298636   -0.0719840   -0.8074870 
C     3.3424376   -1.1207429    0.1567620 
C     2.8577496   -2.3966396   -0.1856756 
H     3.5750904   -0.8986585    1.2061451 
Pd    1.2963296   -0.6807668   -0.5369977 
P    -0.7420149   -1.6722278    0.2647250 
P     0.2423800    1.2694816   -1.3044326 
H     3.5964005   -0.3670055   -1.8536308 
H     2.8571514   -2.6603508   -1.2541458 
C     4.8691705    3.8496606    0.2470768 
C     4.0906902    3.1191517    1.1608926 
C     3.6234324    1.8434556    0.8267392 
C     3.9250544    1.2685432   -0.4311825 
C     4.7213538    2.0082115   -1.3331821 
C     5.1867264    3.2865055   -0.9981828 
H     5.2294594    4.8501278    0.5071323 
H     3.8392779    3.5511387    2.1354421 
H     2.9824415    1.3010229    1.5307080 
H     4.9769790    1.5733646   -2.3053084 
H     5.8028992    3.8440291   -1.7112157 
C     2.7852872   -5.7924294    2.4492777 
C     2.6906181   -4.4962503    2.9858900 
C     2.7070288   -3.3806361    2.1435204 
C     2.8102342   -3.5382704    0.7409673 
C     2.9054672   -4.8475381    0.2155124 
C     2.8984352   -5.9634200    1.0617137 
H     2.7718378   -6.6634042    3.1122322 
H     2.6009926   -4.3578431    4.0683744 
H     2.6165503   -2.3793499    2.5764383 
H     2.9897006   -4.9863730   -0.8681628 
H     2.9778069   -6.9690878    0.6365285 
O    -4.0217187    2.3690215   -0.2802104 
O    -3.4548526    1.3795767    2.3949166 
C    -1.0382238   -3.4961210   -0.1761066 
C    -0.6788170   -1.6719767    2.1515781 
C    -1.0173472    0.9070725   -2.6563054 
C     1.3128436    2.7052457   -1.8850829 
C    -2.3529370   -0.8864161   -0.2801007 
C    -0.5517749    1.8975429    0.2464007 
C    -2.6572621    0.4737285   -0.0128540 
C    -1.7788730    1.4068956    0.7490145 
C    -3.8448253    1.0488916   -0.5504124 
C    -2.2618565    1.8962238    1.9966016 
C    -0.5542929   -4.5234282    0.8603023 
C    -0.4698041   -3.7655591   -1.5817119 
C    -2.0721033   -1.7932055    2.7875922 
C     0.1735437   -0.5450573    2.7572132 
C    -0.3888762    0.0949983   -3.8068322 
C    -1.8303096    2.1203635   -3.1350093 
C     2.0288612    2.3731502   -3.2057236 
C     0.6250392    4.0846852   -1.9571103 
C    -3.2366585   -1.6188835   -1.1100847 
C     0.2074029    2.7998937    1.0313784 
C    -4.7199463    0.2942536   -1.3482847 
C    -1.5186882    2.8219277    2.7471476 
C    -4.3976765   -1.0365377   -1.6271637 
C    -0.2778325    3.2532606    2.2597274 
C    -5.2087273    3.0215005   -0.7317854 
C    -4.0614644    1.8666817    3.5921393 
H    -2.1343402   -3.6006823   -0.2078525 
H    -0.1201811   -2.6100549    2.3223013 
H    -1.7085806    0.2218006   -2.1513970 
H     2.0860520    2.7477385   -1.0988360 
H    -0.7161565   -5.5345223    0.4461133 
H     0.5147545   -4.4321067    1.0921441 
H    -1.1265292   -4.4603122    1.7999988 
H    -0.8367024   -3.0340839   -2.3235371 
H    -0.7597208   -4.7749353   -1.9238513 
H     0.6321162   -3.7104092   -1.5723908 
H    -2.6394092   -2.6464318    2.3768485 
H    -2.6667724   -0.8799470    2.6203723 
H    -1.9707640   -1.9471671    3.8774550 
H    -0.3260341    0.4323408    2.7120549 
H     0.3758444   -0.7752104    3.8188171 
H     1.1414885   -0.4512996    2.2333001 
H     0.2031541   -0.7543505   -3.4201626 
H     0.2597897    0.7009586   -4.4577044 
H    -1.2004703   -0.3152277   -4.4338337 
H    -1.2385799    2.7802686   -3.7903279 
H    -2.6970844    1.7609974   -3.7182223 
H    -2.2152811    2.7135640   -2.2884905 
H     2.4571269    1.3569244   -3.2060078 
H     1.3463800    2.4632459   -4.0672811 
H     2.8542542    3.0892861   -3.3574371 
H    -0.0037948    4.1798094   -2.8552981 
H     1.4070462    4.8628354   -2.0137607 
H    -0.0004778    4.2993727   -1.0762018 
H    -3.0310426   -2.6526441   -1.3857580 
H     1.1809828    3.1541221    0.6876649 
H    -5.6265878    0.7368788   -1.7664624 
H    -1.8865478    3.1935468    3.7059067 
H    -5.0601813   -1.6318112   -2.2637850 
H     0.3171761    3.9588413    2.8487995 
H    -6.1126241    2.5414689   -0.3128430 
H    -5.2685925    3.0271617   -1.8366322 
H    -5.1368614    4.0554495   -0.3653728 
H    -3.4378814    1.6445970    4.4786416 
H    -5.0198427    1.3350569    3.6774624 
H    -4.2447793    2.9554873    3.5298577 
