99
Energy =
C     3.5376365    0.3793116   -0.0864566 
C     3.2193974   -0.7013679    0.7657784 
C     2.9079012   -1.9895003    0.2599445 
H     3.1310384   -0.5222173    1.8441884 
Pd    1.3889784   -0.4268443   -0.4368537 
P    -0.5727008   -1.7352445   -0.5965263 
P     0.3548160    1.5753712   -1.1483259 
H     3.8743928    0.1278094   -1.1023662 
H     3.2964100   -2.2462677   -0.7365106 
C     4.7497831    4.2959590    1.2281241 
C     4.0549633    3.4506115    2.1096064 
C     3.6563115    2.1753374    1.6987627 
C     3.9403966    1.7130531    0.3915827 
C     4.6641121    2.5663400   -0.4746206 
C     5.0607109    3.8444492   -0.0634379 
H     5.0564178    5.2959092    1.5513172 
H     3.8201040    3.7907461    3.1235451 
H     3.1001393    1.5411719    2.3958716 
H     4.9240257    2.2151814   -1.4785893 
H     5.6200506    4.4874453   -0.7507797 
C     2.1530214   -5.3738347    2.8154784 
C     1.8484971   -4.0778459    3.2647476 
C     2.0893651   -2.9711549    2.4439252 
C     2.6380920   -3.1353685    1.1491377 
C     2.9567392   -4.4436423    0.7192366 
C     2.7152608   -5.5507553    1.5420404 
H     1.9611334   -6.2388801    3.4583352 
H     1.4162696   -3.9303182    4.2602361 
H     1.8193808   -1.9714898    2.7989327 
H     3.4027735   -4.5888645   -0.2703735 
H     2.9712480   -6.5553747    1.1897843 
O    -2.6245771    2.0723278    2.2967680 
O    -4.4270801    0.5038433    0.6967116 
C    -1.8483817   -1.5199951   -1.9683985 
C    -0.3365863   -3.5747738   -0.3155042 
C     0.8354891    1.9425023   -2.9307577 
C     0.8679902    3.0939206   -0.1706358 
C    -1.2696628   -1.0477255    0.9707432 
C    -1.4988852    1.6809903   -1.1386812 
C    -1.8173090    0.2611876    1.0307488 
C    -2.2983511    1.0521555   -0.1502994 
C    -2.0986015    0.8171081    2.3124483 
C    -3.7187266    1.1781546   -0.2479186 
C    -3.2909917   -1.8531711   -1.5381862 
C    -1.4544876   -2.2492881   -3.2657018 
C     0.5035747   -4.2216826   -1.4331388 
C    -1.6198732   -4.3742596   -0.0257725 
C     0.3665934    0.8202222   -3.8697012 
C     2.3491228    2.1730773   -3.0534765 
C     0.3751665    4.4192475   -0.7710155 
C     0.4291074    2.9300895    1.2923833 
C    -1.0362004   -1.7652408    2.1670128 
C    -2.1229980    2.4304080   -2.1648665 
C    -1.8392641    0.1029457    3.4940353 
C    -4.3204798    1.9193357   -1.2768349 
C    -1.3211329   -1.1935767    3.4088555 
C    -3.5124041    2.5494322   -2.2279955 
C    -3.0507078    2.6693947    3.5207853 
C    -5.8508436    0.6027209    0.7111615 
H    -1.7960950   -0.4390985   -2.1675384 
H     0.2935201   -3.5807216    0.5908604 
H     0.3305740    2.8848725   -3.2074725 
H     1.9708438    3.0636246   -0.2139437 
H    -3.5333275   -1.4675827   -0.5351705 
H    -3.9918557   -1.3910546   -2.2562493 
H    -3.4736682   -2.9390365   -1.5421301 
H    -0.3926382   -2.1083655   -3.5268695 
H    -2.0616606   -1.8510120   -4.0976744 
H    -1.6561667   -3.3309136   -3.2008470 
H     1.3761397   -3.6020550   -1.7004526 
H    -0.0859292   -4.3986123   -2.3453673 
H     0.8752989   -5.1982208   -1.0799617 
H    -2.2710243   -3.8766451    0.7120552 
H    -2.2040383   -4.5433419   -0.9452023 
H    -1.3425164   -5.3644181    0.3776836 
H    -0.7263574    0.6793246   -3.8386329 
H     0.8489342   -0.1356525   -3.5982437 
H     0.6469235    1.0604648   -4.9104573 
H     2.5935833    2.4397383   -4.0968204 
H     2.7057918    2.9889127   -2.4045536 
H     2.9091220    1.2564535   -2.8017060 
H     0.7391570    5.2543354   -0.1459685 
H     0.7527928    4.5868221   -1.7940200 
H    -0.7275273    4.4681793   -0.7908531 
H     0.9037073    3.7132313    1.9088933 
H     0.7249159    1.9470107    1.6987172 
H    -0.6653914    3.0244498    1.3903040 
H    -0.6219028   -2.7738897    2.1370242 
H    -1.5246529    2.9330614   -2.9265531 
H    -2.0529992    0.5413424    4.4712521 
H    -5.4072808    2.0041733   -1.3435196 
H    -1.1369365   -1.7656190    4.3243191 
H    -3.9728730    3.1357990   -3.0295824 
H    -3.4830317    3.6412388    3.2426886 
H    -2.2000622    2.8307767    4.2096168 
H    -3.8195447    2.0496063    4.0187774 
H    -6.1808154    0.0008926    1.5698974 
H    -6.2923604    0.1918406   -0.2163267 
H    -6.1768139    1.6510125    0.8455237 
