99
Energy =
C     3.2203924   -0.0054600   -1.5769272 
C     3.2922278   -1.2829603   -0.9556746 
C     2.3677612   -2.3038154   -1.2741172 
H     4.0058783   -1.4354603   -0.1370395 
Pd    1.3317310   -0.4285346   -0.4323867 
P    -0.5730230   -1.5233409    0.5269711 
P     0.4143873    1.7141753   -0.2216465 
H     2.7438983    0.0407370   -2.5680551 
H     1.8619962   -2.2281015   -2.2472445 
C     6.0801211    3.1345166   -0.8686252 
C     5.3932585    3.0532050   -2.0884318 
C     4.4539154    2.0352907   -2.3002564 
C     4.1840388    1.0765061   -1.2984914 
C     4.8801541    1.1756956   -0.0703678 
C     5.8183016    2.1908772    0.1397240 
H     6.8146986    3.9286997   -0.7013700 
H     5.5929706    3.7819421   -2.8809256 
H     3.9308444    1.9690621   -3.2613374 
H     4.6669613    0.4665892    0.7369839 
H     6.3454965    2.2528774    1.0973890 
C     2.1632512   -6.2323018    0.4721895 
C     1.4353239   -5.9210208   -0.6865105 
C     1.5291203   -4.6441384   -1.2530283 
C     2.3441847   -3.6455921   -0.6696363 
C     3.0837962   -3.9805362    0.4905202 
C     2.9935688   -5.2583247    1.0522268 
H     2.0920137   -7.2301306    0.9166521 
H     0.7972272   -6.6779686   -1.1541727 
H     0.9628366   -4.4086425   -2.1609367 
H     3.7208658   -3.2317295    0.9717329 
H     3.5727379   -5.4968958    1.9502711 
O    -4.0120311    2.3835064    0.6763903 
O    -4.5197847    0.1482024   -1.0980398 
C    -1.4840312   -2.6571254   -0.6839558 
C     0.1266576   -2.7375349    1.7802335 
C     1.2404895    3.1968611   -1.0548378 
C    -0.0111284    2.2040480    1.5430691 
C    -1.8745892   -0.4977128    1.3633340 
C    -1.0992639    1.4093722   -1.2516858 
C    -2.5412031    0.5540533    0.6834785 
C    -2.3110649    0.8777902   -0.7543225 
C    -3.4661575    1.3669651    1.3940869 
C    -3.3881375    0.6497017   -1.6604174 
C    -1.3203635   -2.2319861   -2.1515648 
C    -2.9595482   -2.8671749   -0.3029121 
C    -0.7956747   -3.8201883    2.3717448 
C     1.0212954   -2.0390375    2.8216705 
C     2.3911140    3.7583141   -0.1994965 
C     0.2942441    4.3367588   -1.4857837 
C     1.2262475    2.1342079    2.4622763 
C    -0.8110119    3.5090059    1.6864233 
C    -2.1476882   -0.7094000    2.7331101 
C    -0.9445288    1.5924234   -2.6486105 
C    -3.7326925    1.1361072    2.7550567 
C    -3.2425904    0.8983100   -3.0350775 
C    -3.0669795    0.0965690    3.4127668 
C    -2.0064951    1.3458239   -3.5203285 
C    -5.0047220    3.2116392    1.2827796 
C    -5.6732211   -0.0593350   -1.9138745 
H    -0.9336204   -3.6073356   -0.5440699 
H     0.8137601   -3.2706600    1.0992241 
H     1.6927696    2.7437976   -1.9573383 
H    -0.6612160    1.3764923    1.8547271 
H    -1.7524976   -3.0076277   -2.8093391 
H    -1.8360353   -1.2833393   -2.3629428 
H    -0.2608170   -2.1039864   -2.4244644 
H    -3.0807104   -3.1775599    0.7476152 
H    -3.3938844   -3.6551750   -0.9448533 
H    -3.5422658   -1.9428009   -0.4480471 
H    -1.3067228   -4.3951010    1.5827733 
H    -1.5624431   -3.4266644    3.0580174 
H    -0.1724330   -4.5330812    2.9405269 
H     1.7378294   -1.3593045    2.3251751 
H     0.4498901   -1.4465980    3.5555761 
H     1.5997742   -2.7993253    3.3756483 
H     3.0505338    2.9729422    0.1982058 
H     2.0039367    4.3570002    0.6417638 
H     3.0081571    4.4247157   -0.8252605 
H    -0.1015735    4.8804404   -0.6142475 
H     0.8703351    5.0577819   -2.0936403 
H    -0.5595796    3.9913076   -2.0879487 
H     0.8841858    2.1277124    3.5125042 
H     1.8028455    1.2089753    2.2873395 
H     1.9040147    2.9920645    2.3376525 
H    -1.2058002    3.5752269    2.7162054 
H    -1.6684472    3.5411028    0.9936829 
H    -0.1821330    4.3983798    1.5143059 
H    -1.6428291   -1.5023768    3.2820135 
H     0.0084406    1.9358910   -3.0594341 
H    -4.4400070    1.7624415    3.3032961 
H    -4.0669738    0.7202878   -3.7288900 
H    -3.2658940   -0.0860527    4.4737525 
H    -1.8754698    1.5064209   -4.5952666 
H    -4.5906985    3.7718875    2.1424291 
H    -5.8751332    2.6143710    1.6125394 
H    -5.3178187    3.9201229    0.5027746 
H    -5.4794849   -0.8128690   -2.7004962 
H    -6.0063187    0.8868146   -2.3792589 
H    -6.4537436   -0.4317041   -1.2352432 
