99
Energy =
C     3.4715161   -0.0577384   -0.6953791 
C     3.3284069   -1.0680428    0.3054210 
C     2.8204230   -2.3430570   -0.0090723 
H     3.5174678   -0.8033133    1.3533497 
Pd    1.3209195   -0.6037957   -0.4736446 
P    -0.7199527   -1.5673748    0.3244587 
P     0.2812981    1.3026513   -1.3670596 
H     3.6836993   -0.3938145   -1.7206594 
H     2.8330846   -2.6324890   -1.0706725 
C     4.8303768    3.9190180    0.2562299 
C     4.0199659    3.2178174    1.1651931 
C     3.5816047    1.9233973    0.8657948 
C     3.9460948    1.2989498   -0.3514630 
C     4.7726656    2.0104739   -1.2488530 
C     5.2083032    3.3078839   -0.9490237 
H     5.1680022    4.9340755    0.4887739 
H     3.7195710    3.6877461    2.1078771 
H     2.9135447    1.4040527    1.5624037 
H     5.0744032    1.5387750   -2.1901444 
H     5.8484480    3.8430273   -1.6581191 
C     2.3444596   -5.6980389    2.6459020 
C     2.2427257   -5.8584875    1.2556285 
C     2.4068358   -4.7560281    0.4089526 
C     2.6664446   -3.4654282    0.9299700 
C     2.7881003   -3.3265315    2.3330363 
C     2.6271609   -4.4287944    3.1784573 
H     2.2178750   -6.5579829    3.3113266 
H     2.0430050   -6.8468699    0.8291174 
H     2.3347515   -4.8893681   -0.6758091 
H     3.0145642   -2.3503538    2.7723583 
H     2.7245920   -4.2989149    4.2612088 
O    -4.0255598    2.3539304   -0.3768444 
O    -3.3297454    1.2674423    2.3903045 
C    -0.7490017   -3.4084244   -0.0364888 
C    -0.8332165   -1.3323327    2.2183954 
C    -0.9586650    0.8823632   -2.7177374 
C     1.3768882    2.7031152   -1.9790685 
C    -2.3143952   -0.8707218   -0.2998243 
C    -0.5508893    1.9817497    0.1405135 
C    -2.6272776    0.4915629   -0.0738362 
C    -1.7465518    1.4407521    0.6714127 
C    -3.8206624    1.0337338   -0.6255233 
C    -2.1925511    1.8712373    1.9514556 
C    -0.3308375   -3.6861020   -1.4951773 
C    -2.0013462   -4.2294240    0.3763684 
C     0.3070636   -0.4292570    2.7242296 
C    -0.8799929   -2.6397588    3.0299728 
C    -0.3153926    0.0422518   -3.8385493 
C    -1.7821223    2.0724140   -3.2357241 
C     2.1442877    2.2983702   -3.2499224 
C     0.6955316    4.0766517   -2.1512298 
C    -3.1743392   -1.6520858   -1.1041739 
C     0.1819393    2.9219912    0.9058606 
C    -4.6755597    0.2394701   -1.4097035 
C    -1.4697655    2.8222276    2.6907457 
C    -4.3376404   -1.0977091   -1.6471768 
C    -0.2831774    3.3385100    2.1558023 
C    -5.2048600    2.9831486   -0.8800477 
C    -3.9085601    1.6862552    3.6270145 
H     0.0942258   -3.7281067    0.6014134 
H    -1.7931115   -0.8012135    2.3474206 
H    -1.6454094    0.2065432   -2.1929533 
H     2.1186700    2.7832888   -1.1650533 
H    -0.1732728   -4.7702375   -1.6342414 
H    -1.1013521   -3.3623288   -2.2158696 
H     0.6065550   -3.1645202   -1.7539284 
H    -2.7064070   -3.6704472    1.0113483 
H    -1.6894657   -5.1322825    0.9280558 
H    -2.5622030   -4.5674824   -0.5115215 
H     0.3756978    0.5172306    2.1652708 
H     1.2773856   -0.9482266    2.6479684 
H     0.1376621   -0.1847191    3.7882003 
H    -1.7769049   -3.2404286    2.8219153 
H     0.0121616   -3.2652290    2.8575670 
H    -0.8968841   -2.3824805    4.1045500 
H    -1.1182321   -0.3893487   -4.4624098 
H     0.2760896   -0.7931638   -3.4224433 
H     0.3367534    0.6342667   -4.4989934 
H    -1.1940458    2.7195684   -3.9067030 
H    -2.6427714    1.6878002   -3.8118953 
H    -2.1766494    2.6858623   -2.4079707 
H     2.9813469    3.0001730   -3.4042663 
H     2.5631184    1.2806769   -3.1781915 
H     1.4984963    2.3469784   -4.1425316 
H     1.4787934    4.8530592   -2.2132881 
H     0.0304153    4.3344776   -1.3116487 
H     0.1071811    4.1236311   -3.0804716 
H    -2.9429885   -2.6939404   -1.3179968 
H     1.1278724    3.3234915    0.5383479 
H    -5.5872746    0.6553378   -1.8444009 
H    -1.8150120    3.1534408    3.6726068 
H    -4.9946835   -1.7179047   -2.2655029 
H     0.2920103    4.0734845    2.7284302 
H    -6.1168531    2.5047460   -0.4770199 
H    -5.2306740    2.9599633   -1.9859921 
H    -5.1542528    4.0264713   -0.5375649 
H    -4.8247684    1.0901967    3.7439048 
H    -4.1659156    2.7614256    3.6018256 
H    -3.2292611    1.4871403    4.4774252 
