99
Energy =
C     3.6726105   -0.0952390   -0.9176434 
C     3.4814045   -0.9839154    0.1541057 
C     2.8100114   -2.2364226   -0.0335635 
H     3.7682459   -0.6822897    1.1698565 
Pd    1.3892193   -0.5910443   -0.4441048 
P    -0.6422026   -1.7380536   -0.3446916 
P     0.3051531    1.5441410   -0.5000574 
H     3.5263697   -0.5034369   -1.9294564 
H     2.9268050   -2.7185018   -1.0148936 
C     5.7771025    3.6554334   -0.9215280 
C     5.4137890    3.0305918   -2.1240724 
C     4.7345824    1.8075158   -2.0999946 
C     4.3958431    1.1823310   -0.8754681 
C     4.7993359    1.8113295    0.3274141 
C     5.4754046    3.0344042    0.3027081 
H     6.3068865    4.6133322   -0.9360225 
H     5.6664173    3.4942515   -3.0831927 
H     4.4621253    1.3187560   -3.0412430 
H     4.5869842    1.3417981    1.2921491 
H     5.7765391    3.5054411    1.2440795 
C     2.0298492   -4.9224100    3.2466707 
C     1.9265482   -3.5337723    3.4361480 
C     2.1877212   -2.6568196    2.3775929 
C     2.5594677   -3.1489970    1.1031533 
C     2.6733625   -4.5462707    0.9322179 
C     2.4089402   -5.4237392    1.9922616 
H     1.8202747   -5.6082949    4.0737439 
H     1.6314147   -3.1339017    4.4121842 
H     2.0636642   -1.5774043    2.5247118 
H     2.9727591   -4.9455383   -0.0426840 
H     2.5027863   -6.5039097    1.8390073 
O    -3.5686311    1.9767812    1.9097165 
O    -4.7272535    0.2908444   -0.1478576 
C    -1.5822682   -1.5341906   -1.9618352 
C    -0.6318404   -3.5626875    0.1212614 
C     1.3374366    2.7340565   -1.5219313 
C     0.3016787    2.1728745    1.2812276 
C    -1.5196454   -0.9208362    1.0611288 
C    -1.4632631    1.6618488   -1.0502198 
C    -2.2740125    0.2684600    0.9413485 
C    -2.4972516    0.9901075   -0.3454323 
C    -2.8344551    0.8521480    2.1161099 
C    -3.8206670    1.0062574   -0.8634527 
C    -2.9883775   -2.1550095   -1.9777105 
C    -0.7215860   -1.9353871   -3.1767874 
C    -0.0229262   -4.4221975   -0.9999677 
C    -1.9763060   -4.1447788    0.6024477 
C     0.9884074    4.2326553   -1.4582933 
C     1.5407891    2.2180328   -2.9613010 
C     1.7384000    2.3494709    1.7944505 
C    -0.5880658    3.3987332    1.5458863 
C    -1.2533378   -1.4502401    2.3486982 
C    -1.7832677    2.3385345   -2.2484798 
C    -2.5860877    0.3018698    3.3839134 
C    -4.1207452    1.6879895   -2.0556589 
C    -1.7787865   -0.8389348    3.4882945 
C    -3.0943781    2.3520618   -2.7357295 
C    -4.1808869    2.6266180    3.0232255 
C    -6.0999822    0.3136252   -0.5398731 
H    -1.6952222   -0.4431090   -2.0197520 
H     0.0773957   -3.5814156    0.9679868 
H     2.3106442    2.6004732   -1.0113977 
H    -0.1333557    1.3105319    1.8175322 
H    -3.5641299   -1.8881434   -1.0758962 
H    -3.5389103   -1.7709127   -2.8554205 
H    -2.9499254   -3.2535206   -2.0643323 
H     0.2842666   -1.4809839   -3.1221890 
H    -1.2115735   -1.5641276   -4.0943247 
H    -0.6049838   -3.0251311   -3.2796953 
H     0.8926513   -3.9743867   -1.4203316 
H    -0.7421762   -4.5803582   -1.8209108 
H     0.2412386   -5.4122321   -0.5910315 
H    -2.4694615   -3.5125500    1.3576249 
H    -2.6786007   -4.2934398   -0.2321182 
H    -1.7866224   -5.1323781    1.0597757 
H     1.1188195    4.6336748   -0.4413160 
H    -0.0432725    4.4508323   -1.7785431 
H     1.6747530    4.7885151   -2.1219170 
H     2.3745483    2.7697135   -3.4275457 
H     1.7923713    1.1428545   -2.9680679 
H     0.6531486    2.3568635   -3.5989275 
H     1.7184837    2.5777035    2.8748799 
H     2.3217247    1.4242811    1.6522625 
H     2.2706334    3.1730266    1.2881352 
H    -0.6898457    3.5338686    2.6383143 
H    -1.5992966    3.2728924    1.1282227 
H    -0.1513487    4.3229518    1.1354624 
H    -0.6268483   -2.3375262    2.4654927 
H    -1.0131236    2.8627524   -2.8119129 
H    -3.0011467    0.7586277    4.2850346 
H    -5.1367375    1.6997615   -2.4566212 
H    -1.5657011   -1.2603471    4.4761517 
H    -3.3201857    2.8878148   -3.6633852 
H    -4.7289965    3.4820977    2.6035180 
H    -3.4226367    2.9923824    3.7412962 
H    -4.8875907    1.9516554    3.5408206 
H    -6.6327780   -0.2919988    0.2069656 
H    -6.2394425   -0.1338252   -1.5421482 
H    -6.4988714    1.3450401   -0.5342590 
