99
Energy =
C     3.5466343    0.0918962   -1.0444018 
C     3.5537633   -1.0315633   -0.1919611 
C     2.8346355   -2.2148300   -0.5494076 
H     3.9985048   -0.9533436    0.8083766 
Pd    1.4179155   -0.4916798   -0.3657244 
P    -0.5919260   -1.6903441   -0.5405578 
P     0.4791221    1.6016138    0.1801132 
H     3.2214818   -0.0746026   -2.0833463 
H     2.7813660   -2.4543282   -1.6195830 
C     5.4119212    3.9112911   -0.4230230 
C     4.6125116    3.6760221   -1.5535864 
C     4.0356731    2.4174221   -1.7524906 
C     4.2342939    1.3699790   -0.8199432 
C     5.0659906    1.6134851    0.2981113 
C     5.6436208    2.8727666    0.4941886 
H     5.8661996    4.8947194   -0.2653416 
H     4.4434526    4.4750577   -2.2827833 
H     3.4056534    2.2375298   -2.6310129 
H     5.2652767    0.8148855    1.0191291 
H     6.2852085    3.0447171    1.3646180 
C     2.2863983   -5.5945611    2.0689501 
C     2.3957271   -4.3014970    2.6084054 
C     2.5883484   -3.2005391    1.7679937 
C     2.6772324   -3.3644703    0.3656646 
C     2.5783205   -4.6734547   -0.1607721 
C     2.3832083   -5.7761911    0.6813080 
H     2.1312269   -6.4547203    2.7281115 
H     2.3215212   -4.1512896    3.6906248 
H     2.6447992   -2.1955858    2.2009426 
H     2.6680403   -4.8249877   -1.2429124 
H     2.3131997   -6.7813419    0.2526122 
O    -3.9432286    2.3116724   -0.7608236 
O    -4.4629417    0.1519766    1.0545971 
C    -0.2497737   -3.1795979   -1.6487723 
C    -1.1958990   -2.5075394    1.0501624 
C     0.1973245    2.7927472   -1.2582294 
C     1.7842881    2.5056756    1.1982563 
C    -1.9292036   -0.6833854   -1.3268738 
C    -1.0593173    1.4722659    1.2022871 
C    -2.4891077    0.4605501   -0.7036094 
C    -2.2486406    0.8744270    0.7136085 
C    -3.4420227    1.2364117   -1.4275466 
C    -3.3603777    0.7370773    1.5964595 
C     0.4118670   -2.8184068   -2.9988988 
C    -1.3636027   -4.2315086   -1.8064311 
C    -2.7070770   -2.7940213    1.0570309 
C    -0.7391498   -1.7797042    2.3269984 
C    -0.9061980    3.8284841   -0.9892392 
C     0.0141433    2.0626190   -2.6003320 
C     1.5219390    3.9746795    1.5813485 
C     2.3370686    1.6554655    2.3593162 
C    -2.3154537   -1.0068099   -2.6475703 
C    -1.0102969    1.9028640    2.5477828 
C    -3.8079374    0.9049773   -2.7423560 
C    -3.2904173    1.1641557    2.9323900 
C    -3.2386494   -0.2220823   -3.3424635 
C    -2.1088394    1.7498560    3.3966431 
C    -4.9727763    3.0949229   -1.3648295 
C    -5.6577892    0.0532216    1.8296709 
H     0.5333310   -3.6437698   -1.0223709 
H    -0.6360307   -3.4630563    1.0007871 
H     1.1772840    3.3090191   -1.2927881 
H     2.5816493    2.5265102    0.4340994 
H     1.1143097   -3.6196196   -3.2894922 
H    -0.3232970   -2.7263436   -3.8150335 
H     0.9741259   -1.8688849   -2.9495574 
H    -2.2717662   -3.8265012   -2.2834315 
H    -1.6491452   -4.6751186   -0.8395880 
H    -0.9870686   -5.0525401   -2.4431971 
H    -3.0294665   -3.3909133    0.1899831 
H    -3.2881001   -1.8586574    1.0501187 
H    -2.9672370   -3.3558148    1.9724966 
H    -1.3685147   -0.9032905    2.5423459 
H    -0.8144252   -2.4726216    3.1836736 
H     0.3078855   -1.4418506    2.2506887 
H    -0.7316903    4.3902026   -0.0576551 
H    -1.8940043    3.3497534   -0.9058650 
H    -0.9410839    4.5532363   -1.8230145 
H    -0.9560472    1.5443734   -2.6560750 
H     0.0557642    2.7951238   -3.4262932 
H     0.8092457    1.3132567   -2.7629791 
H     0.6649046    4.1054759    2.2616959 
H     2.4194394    4.3707772    2.0893317 
H     1.3501859    4.6016640    0.6916662 
H     2.5060252    0.6116583    2.0383750 
H     1.6700070    1.6281595    3.2359479 
H     3.3046373    2.0744796    2.6851767 
H    -1.8949848   -1.8765676   -3.1468239 
H    -0.1093492    2.3637017    2.9463029 
H    -4.5307156    1.5106225   -3.2932197 
H    -4.1426849    1.0462960    3.6049896 
H    -3.5205594   -0.4932906   -4.3648824 
H    -2.0437978    2.0907713    4.4348801 
H    -5.8596564    2.4755439   -1.5947352 
H    -4.6145461    3.5899563   -2.2870693 
H    -5.2385405    3.8592869   -0.6207590 
H    -6.4044987   -0.4050499    1.1656294 
H    -6.0078878    1.0524462    2.1492126 
H    -5.5109491   -0.5914734    2.7165507 
