99
Energy =
C     3.6638379    0.0457737   -0.7491808 
C     3.4790308   -0.9204823    0.2602078 
C     2.9009554   -2.1940943   -0.0304327 
H     3.6762175   -0.6527579    1.3062865 
Pd    1.4373529   -0.5688579   -0.4869980 
P    -0.5912172   -1.7241719   -0.4081179 
P     0.4011341    1.5715104   -0.6957188 
H     3.6733430   -0.3154186   -1.7890173 
H     3.0794182   -2.6089186   -1.0332264 
C     5.3428154    3.9832540   -0.3088001 
C     5.2986887    3.3560289   -1.5627929 
C     4.7568607    2.0707238   -1.6847962 
C     4.2489166    1.3825069   -0.5567315 
C     4.3157938    2.0231604    0.7030819 
C     4.8531657    3.3085217    0.8229677 
H     5.7618425    4.9897440   -0.2102842 
H     5.6886720    3.8684796   -2.4481963 
H     4.7199119    1.5866551   -2.6674036 
H     3.9313280    1.5205196    1.5956521 
H     4.8922337    3.7894876    1.8058905 
C     2.0744972   -5.1019879    3.0403296 
C     1.9375484   -3.7310074    3.3170542 
C     2.2115357   -2.7812409    2.3270073 
C     2.6318659   -3.1814158    1.0355132 
C     2.7779179   -4.5620895    0.7765377 
C     2.5000380   -5.5124091    1.7679316 
H     1.8546232   -5.8446622    3.8139572 
H     1.6058739   -3.4018452    4.3076403 
H     2.0583016   -1.7175897    2.5419801 
H     3.1128398   -4.8903303   -0.2132810 
H     2.6195510   -6.5781712    1.5469549 
O    -3.2437376    2.0448132    2.0773248 
O    -4.6033687    0.3742308    0.1348000 
C    -1.6135103   -1.4818975   -1.9682525 
C    -0.5510713   -3.5589844    0.0057073 
C     1.3400697    2.5440482   -2.0010788 
C     0.7237793    2.5694206    0.8797732 
C    -1.3971285   -0.9332960    1.0574900 
C    -1.4125251    1.6880471   -1.0638805 
C    -2.0823286    0.3038675    1.0042389 
C    -2.3855605    1.0412886   -0.2585636 
C    -2.5823231    0.8645643    2.2162194 
C    -3.7496136    1.0667355   -0.6643438 
C    -3.0361541   -2.0614953   -1.9078200 
C    -0.8356133   -1.8990058   -3.2320779 
C     0.0767947   -4.3759409   -1.1371536 
C    -1.8829377   -4.1805779    0.4726299 
C     1.1109884    4.0632646   -2.1067371 
C     1.3674047    1.8185996   -3.3600991 
C    -0.3331042    3.6578424    1.1292459 
C     0.9477287    1.6803454    2.1150764 
C    -1.1537590   -1.5406032    2.3137844 
C    -1.8270389    2.3432684   -2.2455489 
C    -2.3637965    0.2347320    3.4523063 
C    -4.1441205    1.7304861   -1.8387459 
C    -1.6347974   -0.9606509    3.4888902 
C    -3.1738802    2.3659553   -2.6200583 
C    -3.8497823    2.6460591    3.2217656 
C    -6.0014492    0.3927162   -0.1542016 
H    -1.6986603   -0.3880659   -2.0131954 
H     0.1601226   -3.5861177    0.8502348 
H     2.3503410    2.4236386   -1.5709337 
H     1.6917553    3.0477803    0.6333467 
H    -3.5455828   -1.8001054   -0.9651663 
H    -3.6294783   -1.6418111   -2.7400194 
H    -3.0361495   -3.1581998   -2.0188373 
H     0.1933908   -1.4975200   -3.2220694 
H    -1.3510653   -1.4860940   -4.1172935 
H    -0.7805932   -2.9910765   -3.3592185 
H     0.9794081   -3.8933454   -1.5480257 
H    -0.6395959   -4.5332161   -1.9603751 
H     0.3678673   -5.3680543   -0.7524998 
H    -2.4081932   -3.5587638    1.2150573 
H    -2.5665509   -4.3570189   -0.3721119 
H    -1.6704730   -5.1588278    0.9396459 
H     1.8487462    4.4790224   -2.8164683 
H     1.2734204    4.5654438   -1.1394807 
H     0.1074824    4.3376225   -2.4693033 
H     2.1454070    2.2702514   -4.0011410 
H     1.6098920    0.7483155   -3.2302506 
H     0.4097817    1.8802335   -3.9031906 
H    -0.0123036    4.2919212    1.9758992 
H    -0.4780996    4.3092345    0.2523251 
H    -1.3099691    3.2142488    1.3807099 
H     1.3293194    2.2976215    2.9482119 
H     1.6816229    0.8815229    1.9109048 
H     0.0159943    1.1981119    2.4473222 
H    -0.5828080   -2.4686247    2.3807958 
H    -1.1003963    2.8392383   -2.8865610 
H    -2.7411935    0.6713771    4.3794467 
H    -5.1908551    1.7463505   -2.1504380 
H    -1.4442441   -1.4478919    4.4506925 
H    -3.4721164    2.8837113   -3.5373954 
H    -4.3510657    3.5514497    2.8510165 
H    -3.0922762    2.9285079    3.9769505 
H    -4.5955285    1.9688824    3.6780260 
H    -6.2155362   -0.0732286   -1.1346560 
H    -6.3987199    1.4246900   -0.1382474 
H    -6.4771562   -0.1979623    0.6415868 
