99
Energy =
C     3.6769541   -0.0726037   -0.8930634 
C     3.4056020   -0.9378470    0.1759622 
C     2.7005891   -2.1709869   -0.0150236 
H     3.6845092   -0.6425881    1.1954704 
Pd    1.3208343   -0.5044367   -0.4583679 
P    -0.6943777   -1.6937991   -0.3667909 
P     0.2170475    1.6340792   -0.5950234 
H     3.5306660   -0.4727590   -1.9077127 
H     2.8200132   -2.6604570   -0.9923608 
C     6.0717187    3.4929591   -0.7900351 
C     5.7457590    2.8810283   -2.0094802 
C     4.9609545    1.7224926   -2.0236135 
C     4.4850149    1.1494515   -0.8198011 
C     4.8405233    1.7679792    0.4037877 
C     5.6196154    2.9278800    0.4156219 
H     6.6819239    4.4017084   -0.7754515 
H     6.1050381    3.3069053   -2.9518152 
H     4.7112448    1.2474118   -2.9788489 
H     4.4954069    1.3479796    1.3530116 
H     5.8796242    3.3964092    1.3703760 
C     1.9578474   -4.8374066    3.2897205 
C     1.8334635   -3.4489609    3.4661906 
C     2.0777872   -2.5782981    2.3982896 
C     2.4520220   -3.0775936    1.1278913 
C     2.5882225   -4.4744778    0.9697286 
C     2.3413824   -5.3454095    2.0391972 
H     1.7611826   -5.5183731    4.1240078 
H     1.5352752   -3.0441787    4.4392422 
H     1.9384304   -1.4994609    2.5350433 
H     2.8923545   -4.8782609   -0.0017493 
H     2.4529196   -6.4253618    1.8967372 
O    -3.5071684    2.0625104    1.9296163 
O    -4.7816323    0.2597537   -0.0286980 
C    -1.6417378   -1.5084342   -1.9836624 
C    -0.6688414   -3.5210904    0.0892637 
C     0.9749066    2.8954835   -1.7759617 
C     0.1647117    2.3664505    1.1406029 
C    -1.5672499   -0.8985080    1.0554793 
C    -1.5799587    1.6519531   -1.1110507 
C    -2.3049425    0.3004221    0.9492715 
C    -2.5747254    0.9921532   -0.3441367 
C    -2.8255917    0.9042622    2.1307177 
C    -3.9162084    0.9521677   -0.8151445 
C    -3.0327676   -2.1623136   -2.0007655 
C    -0.7691871   -1.8871255   -3.1975127 
C    -0.0502572   -4.3770705   -1.0291572 
C    -2.0108540   -4.1156294    0.5650280 
C     1.3855594    2.1675165   -3.0712638 
C     2.1392311    3.7102983   -1.1907782 
C     1.5315128    2.3353864    1.8461245 
C    -0.5527155    3.7241102    1.2124452 
C    -1.3048448   -1.4409461    2.3387645 
C    -1.9580312    2.2452852   -2.3386455 
C    -2.5838626    0.3414776    3.3939570 
C    -4.2727342    1.5553400   -2.0327829 
C    -1.8117657   -0.8252670    3.4841511 
C    -3.2827918    2.1959772   -2.7844818 
C    -4.0856128    2.7345380    3.0480511 
C    -6.1646942    0.2190565   -0.3816129 
H    -1.7821600   -0.4218481   -2.0441336 
H     0.0348139   -3.5374929    0.9397298 
H     0.1600503    3.6074222   -1.9962363 
H    -0.4660957    1.6225486    1.6559640 
H    -3.6120193   -1.9145228   -1.0956059 
H    -3.5934441   -1.7847007   -2.8747294 
H    -2.9705729   -3.2591040   -2.0939668 
H     0.2213148   -1.3997937   -3.1448394 
H    -1.2718446   -1.5345648   -4.1156978 
H    -0.6170675   -2.9726816   -3.2979345 
H     0.8660161   -3.9269273   -1.4450890 
H    -0.7640662   -4.5370975   -1.8544306 
H     0.2140568   -5.3669680   -0.6197792 
H    -2.5267260   -3.4762539    1.2986440 
H    -2.6980174   -4.2965697   -0.2755261 
H    -1.8097917   -5.0889466    1.0473984 
H     0.5626442    1.5696851   -3.5004015 
H     2.2260071    1.4820195   -2.8731311 
H     1.7116132    2.8996569   -3.8312905 
H     2.9470817    3.0725367   -0.8081878 
H     2.5670875    4.3392524   -1.9912979 
H     1.8084538    4.3816115   -0.3833458 
H     1.3907526    2.5761159    2.9150433 
H     1.9802573    1.3283120    1.7814531 
H     2.2494128    3.0585332    1.4302994 
H    -0.6621868    4.0223517    2.2711250 
H    -1.5624854    3.6652245    0.7740760 
H     0.0107266    4.5218318    0.6992564 
H    -0.6976268   -2.3417983    2.4487029 
H    -1.2278620    2.7516859   -2.9700153 
H    -2.9747919    0.8070133    4.3014460 
H    -5.3009294    1.5211159   -2.3997712 
H    -1.6068698   -1.2608480    4.4676575 
H    -3.5477008    2.6649435   -3.7376535 
H    -4.8207794    2.0904964    3.5655056 
H    -4.5951546    3.6164490    2.6344717 
H    -3.3090754    3.0615469    3.7654116 
H    -6.3169876   -0.2916159   -1.3512669 
H    -6.5953455    1.2366744   -0.4256534 
H    -6.6579825   -0.3560754    0.4148401 
