99
Energy =
C     3.5426122    0.0915801   -0.8096424 
C     3.4715245   -0.9702796    0.1432358 
C     2.9834149   -2.2424263   -0.2173224 
H     3.6948086   -0.7560562    1.1963203 
Pd    1.4199671   -0.5544428   -0.5407847 
P    -0.5401589   -1.6600670    0.2523322 
P     0.2580230    1.3297228   -1.2840228 
H     3.7205120   -0.1872269   -1.8583710 
H     2.9836095   -2.4900772   -1.2899180 
C     4.7700650    4.0805823    0.2617261 
C     4.0401838    3.3017844    1.1758809 
C     3.6463153    2.0024887    0.8381998 
C     3.9753033    1.4504854   -0.4234146 
C     4.7222829    2.2396948   -1.3256122 
C     5.1138049    3.5417098   -0.9872810 
H     5.0713140    5.0998345    0.5238826 
H     3.7685638    3.7141770    2.1534973 
H     3.0397630    1.4220633    1.5425973 
H     4.9969536    1.8251922   -2.3014888 
H     5.6929105    4.1370309   -1.7008539 
C     2.6045622   -5.6980698    2.3179142 
C     2.6970874   -4.4208014    2.8974646 
C     2.8336252   -3.2863324    2.0915044 
C     2.8741078   -3.4023202    0.6819328 
C     2.7906002   -4.6963358    0.1142477 
C     2.6580011   -5.8318262    0.9225389 
H     2.4971774   -6.5832887    2.9528735 
H     2.6634510   -4.3106043    3.9863835 
H     2.8939459   -2.3008255    2.5628450 
H     2.8273758   -4.8050895   -0.9756946 
H     2.5980857   -6.8233507    0.4622407 
O    -4.1011846    2.1169132   -0.2159025 
O    -3.4119444    1.1911898    2.4474134 
C    -0.4361822   -3.4654460   -0.2591514 
C    -0.4741301   -1.7606821    2.1414662 
C    -1.0059201    0.9086287   -2.6120908 
C     1.2548814    2.8200054   -1.8542819 
C    -2.2141703   -1.0107901   -0.2107705 
C    -0.5613922    1.8879700    0.2779188 
C    -2.5941236    0.3333975    0.0391444 
C    -1.7579645    1.3240753    0.7809179 
C    -3.8443995    0.8035310   -0.4525281 
C    -2.2480446    1.7678016    2.0443335 
C    -0.2943933   -3.6326614   -1.7841126 
C    -1.3913285   -4.4811031    0.3949545 
C    -1.8647720   -1.8799856    2.7865238 
C     0.3659954   -0.6366359    2.7717943 
C    -0.3563496    0.1919087   -3.8125375 
C    -1.9293658    2.0680935   -3.0201186 
C     1.9878745    2.5293085   -3.1756514 
C     0.4969876    4.1615829   -1.9180533 
C    -3.0909771   -1.8462509   -0.9393558 
C     0.1599650    2.8127522    1.0722067 
C    -4.7061262   -0.0439910   -1.1698267 
C    -1.5401731    2.7106360    2.8075347 
C    -4.3189232   -1.3669626   -1.4054942 
C    -0.3289352    3.2143039    2.3165818 
C    -5.3552948    2.6675648   -0.6189015 
C    -4.0203593    1.6209341    3.6654739 
H     0.5616946   -3.6771554    0.1646982 
H     0.0783122   -2.7099231    2.2837974 
H    -1.6205541    0.1525901   -2.1056333 
H     2.0256357    2.8932247   -1.0667530 
H     0.0483865   -4.6581572   -2.0097199 
H    -1.2399063   -3.4692632   -2.3271353 
H     0.4511662   -2.9254673   -2.1904460 
H    -2.4466958   -4.3470444    0.1084972 
H    -1.3292524   -4.4459439    1.4945469 
H    -1.0865480   -5.4967336    0.0845691 
H    -1.7504713   -2.0787916    3.8678421 
H    -2.4595824   -2.6989920    2.3509331 
H    -2.4411369   -0.9487004    2.6655220 
H     1.3471723   -0.5383528    2.2758532 
H    -0.1391653    0.3389854    2.7056452 
H     0.5381257   -0.8603898    3.8399950 
H     0.3281928   -0.6090294   -3.4805564 
H     0.2034442    0.8767226   -4.4677823 
H    -1.1526798   -0.2740271   -4.4196137 
H    -1.4134310    2.7928091   -3.6712045 
H    -2.7857092    1.6609095   -3.5871770 
H    -2.3292925    2.6019678   -2.1417838 
H     2.7846433    3.2790493   -3.3175242 
H     2.4567267    1.5309983   -3.1821710 
H     1.3051618    2.5993789   -4.0386428 
H     1.2353453    4.9799428   -1.9916291 
H    -0.1232892    4.3456800   -1.0264139 
H    -0.1521912    4.2191639   -2.8053313 
H    -2.8201210   -2.8785377   -1.1533426 
H     1.1102100    3.2219169    0.7237007 
H    -5.6629030    0.3197232   -1.5510498 
H    -1.9142983    3.0418981    3.7785398 
H    -4.9830804   -2.0333158   -1.9653076 
H     0.2385726    3.9347160    2.9146889 
H    -5.3388288    3.7162669   -0.2896788 
H    -6.1973732    2.1395642   -0.1339974 
H    -5.4761718    2.6300875   -1.7181105 
H    -4.2533930    2.7014771    3.6335101 
H    -3.3733965    1.4053380    4.5366697 
H    -4.9523609    1.0444000    3.7512971 
