99
Energy =
C     2.6674554    0.3272581   -1.8361868 
C     3.1030117   -0.8745825   -1.2355385 
C     2.3134699   -2.0585239   -1.3301081 
H     4.0078051   -0.8809701   -0.6147851 
Pd    1.1907407   -0.4632656   -0.2419485 
P    -0.7241575   -1.7168750    0.3388786 
P     0.4794604    1.5496200    0.7747974 
H     1.8972693    0.2377764   -2.6173524 
H     1.6738717   -2.1548568   -2.2202299 
C     4.7736934    4.0736304   -1.9854070 
C     3.7283159    3.7989184   -2.8798803 
C     3.0585637    2.5716356   -2.8185755 
C     3.4140322    1.5936925   -1.8596351 
C     4.4881798    1.8761700   -0.9828166 
C     5.1557869    3.1028696   -1.0432916 
H     5.2978937    5.0337439   -2.0282194 
H     3.4366202    4.5415671   -3.6296186 
H     2.2445566    2.3607564   -3.5200249 
H     4.7999718    1.1355813   -0.2406235 
H     5.9815533    3.3050181   -0.3533189 
C     3.5726308   -5.7902608    0.4091618 
C     3.8241064   -4.5839207    1.0853182 
C     3.4098167   -3.3675894    0.5336053 
C     2.7345894   -3.3303688   -0.7088873 
C     2.4844385   -4.5502203   -1.3746628 
C     2.9025267   -5.7685660   -0.8225148 
H     3.8965442   -6.7415413    0.8432748 
H     4.3396135   -4.5953709    2.0513239 
H     3.5801868   -2.4352401    1.0844250 
H     1.9701794   -4.5390836   -2.3427338 
H     2.7063787   -6.7035668   -1.3575799 
O    -3.1628239    2.3878467   -1.8108965 
O    -4.6256038    0.7527647    0.0598956 
C    -0.7601557   -3.5313158   -0.1628797 
C    -1.7048352   -1.5239461    1.9325809 
C     0.8546805    3.1333443   -0.1621782 
C     1.4168580    1.7153764    2.3966061 
C    -1.5810676   -0.8109719   -1.0382212 
C    -1.3082465    1.7288973    1.2279923 
C    -2.1429993    0.4820768   -0.8823955 
C    -2.3435605    1.1839544    0.4259739 
C    -2.6240352    1.1602039   -2.0409705 
C    -3.6934592    1.3377037    0.8575857 
C    -2.1477368   -4.0942609   -0.5269207 
C    -0.0453465   -4.4337549    0.8618049 
C    -1.0778922   -2.2887301    3.1154687 
C    -3.2100714   -1.8155654    1.7861431 
C     0.6433074    4.4145010    0.6590622 
C     0.0503557    3.1589007   -1.4699929 
C     1.0888141    0.5566381    3.3505277 
C     2.9271982    1.7866350    2.1141092 
C    -1.4661512   -1.3677651   -2.3376231 
C    -1.6377686    2.4200473    2.4172013 
C    -2.5136776    0.5904711   -3.3194738 
C    -4.0037516    2.0190453    2.0461668 
C    -1.9283227   -0.6739842   -3.4565658 
C    -2.9692554    2.5616000    2.8161949 
C    -3.7499111    3.1091314   -2.8934942 
C    -6.0095275    0.8934788    0.3801641 
H    -0.1300159   -3.5211593   -1.0709637 
H    -1.5830199   -0.4501925    2.1388394 
H     1.9271324    3.0327295   -0.4079847 
H     1.1041565    2.6689015    2.8589964 
H    -2.7263410   -3.4246800   -1.1836698 
H    -2.0167148   -5.0583768   -1.0506988 
H    -2.7458577   -4.2901699    0.3770487 
H     0.8881279   -3.9882548    1.2397807 
H     0.2160589   -5.3884648    0.3756220 
H    -0.6990831   -4.6634894    1.7172823 
H     0.0225695   -2.2300921    3.1237627 
H    -1.3649976   -3.3515441    3.1123352 
H    -1.4472204   -1.8493149    4.0586384 
H    -3.4102924   -2.8990530    1.7817039 
H    -3.7448937   -1.3791092    2.6487203 
H    -3.6365927   -1.3786493    0.8689531 
H     1.2816815    4.4514475    1.5579201 
H    -0.4102318    4.5244137    0.9703259 
H     0.9031460    5.2891546    0.0360531 
H    -1.0232858    3.3128661   -1.2693956 
H     0.4067772    3.9871552   -2.1072163 
H     0.1585930    2.2174365   -2.0355022 
H     0.0140095    0.5043564    3.5898665 
H     1.3932466   -0.4062655    2.9036502 
H     1.6408764    0.6847376    4.2984159 
H     3.1995356    2.6337245    1.4640566 
H     3.2729789    0.8555555    1.6296464 
H     3.4758938    1.8992474    3.0658423 
H    -1.0087305   -2.3495735   -2.4798108 
H    -0.8531918    2.8529939    3.0415871 
H    -2.8758943    1.1210669   -4.2026615 
H    -5.0397024    2.1270862    2.3751716 
H    -1.8374935   -1.1233083   -4.4508242 
H    -3.2066808    3.0984988    3.7402471 
H    -4.1528126    4.0317039   -2.4517419 
H    -4.5701746    2.5312501   -3.3585025 
H    -2.9962841    3.3685619   -3.6608400 
H    -6.3091557    1.9579900    0.3957203 
H    -6.2463057    0.4262769    1.3547316 
H    -6.5539309    0.3687850   -0.4178165 
