99
Energy =
C     3.6747571   -0.0050604   -0.7421177 
C     3.4732402   -0.9299941    0.3019846 
C     2.9281493   -2.2244830    0.0465232 
H     3.6378847   -0.6177004    1.3413160 
Pd    1.4478892   -0.6339427   -0.5159293 
P    -0.5676800   -1.8225048   -0.4546777 
P     0.4101419    1.4931602   -0.7356401 
H     3.7075976   -0.4096084   -1.7655607 
H     3.1549823   -2.6764833   -0.9298927 
C     5.3342637    3.9520355   -0.4366838 
C     5.3024867    3.2780268   -1.6665800 
C     4.7656724    1.9873367   -1.7444066 
C     4.2506080    1.3406613   -0.5951035 
C     4.3046166    2.0284366    0.6403658 
C     4.8368219    3.3192645    0.7157728 
H     5.7502349    4.9625643   -0.3725846 
H     5.6980435    3.7581841   -2.5674417 
H     4.7370613    1.4666978   -2.7083690 
H     3.9152891    1.5579344    1.5482611 
H     4.8664097    3.8373490    1.6799641 
C     2.0630110   -5.0074041    3.2207558 
C     1.8652082   -3.6307380    3.4203913 
C     2.1494738   -2.7217814    2.3954051 
C     2.6425120   -3.1694405    1.1462321 
C     2.8498394   -4.5549105    0.9652977 
C     2.5604772   -5.4644215    1.9907102 
H     1.8347116   -5.7186077    4.0210810 
H     1.4762052   -3.2650128    4.3767349 
H     1.9467143   -1.6556298    2.5476993 
H     3.2431264   -4.9191416    0.0101819 
H     2.7281126   -6.5345854    1.8306010 
O    -3.2001552    1.9442827    2.0670829 
O    -4.6177551    0.4161496    0.1553945 
C    -1.6043474   -1.9255143   -2.0402194 
C    -0.4576662   -3.6590730   -0.0381837 
C     1.3520850    2.4971953   -2.0169520 
C     0.7157566    2.4809472    0.8525878 
C    -1.4214389   -1.0608640    0.9986216 
C    -1.4041313    1.6141490   -1.0903616 
C    -2.0850919    0.1899583    0.9560121 
C    -2.3758392    0.9665424   -0.2876151 
C    -2.5788452    0.7391795    2.1784331 
C    -3.7545160    1.1128550   -0.6268774 
C    -1.0475200   -1.0906888   -3.2019461 
C    -3.1320239   -1.7915466   -1.8735133 
C     0.3137971   -4.4138041   -1.1367675 
C    -1.8242521   -4.3150899    0.2341786 
C     1.1461351    4.0225962   -2.0788328 
C     1.3731232    1.8168132   -3.3980685 
C    -0.3448859    3.5663839    1.0990710 
C     0.9305707    1.5872599    2.0859646 
C    -1.2187156   -1.7021288    2.2448952 
C    -1.8251411    2.3767095   -2.2050300 
C    -2.3932126    0.0792433    3.4039984 
C    -4.1556547    1.8932246   -1.7232682 
C    -1.7023014   -1.1374560    3.4260369 
C    -3.1806499    2.5170269   -2.5090460 
C    -3.8084019    2.5298323    3.2179410 
C    -6.0219790    0.5484297   -0.0608066 
H    -1.3943430   -2.9796159   -2.2913175 
H     0.1574446   -3.6976417    0.8765780 
H     2.3608459    2.3530532   -1.5912703 
H     1.6845319    2.9633439    0.6183427 
H     0.0336444   -1.2633734   -3.3418847 
H    -1.5629308   -1.3782962   -4.1359997 
H    -1.2138122   -0.0143341   -3.0449921 
H    -3.4774097   -1.9945154   -0.8467404 
H    -3.6371303   -2.5007601   -2.5525108 
H    -3.4601783   -0.7776058   -2.1441238 
H     1.2402659   -3.8920387   -1.4268804 
H    -0.2969375   -4.5577457   -2.0459325 
H     0.5871227   -5.4150321   -0.7636358 
H    -2.3997648   -3.7856042    1.0109243 
H    -2.4400403   -4.3600739   -0.6807871 
H    -1.6651579   -5.3534808    0.5760007 
H     1.8988124    4.4450903   -2.7686267 
H     1.3065393    4.4951648   -1.0966168 
H     0.1519716    4.3241516   -2.4450488 
H     2.1436152    2.2953901   -4.0285954 
H     1.6236925    0.7451479   -3.3057321 
H     0.4109864    1.8917841   -3.9316315 
H    -0.0259435    4.2026403    1.9448743 
H    -0.4917296    4.2159323    0.2212555 
H    -1.3200717    3.1199465    1.3508548 
H     1.2759271    2.2066739    2.9332841 
H     1.6903742    0.8104158    1.8940240 
H     0.0041916    1.0776517    2.3916416 
H    -0.6741379   -2.6455271    2.3020902 
H    -1.0934773    2.8695279   -2.8429751 
H    -2.7689861    0.5096557    4.3346254 
H    -5.2123672    2.0043360   -1.9759059 
H    -1.5413800   -1.6526700    4.3786367 
H    -3.4839087    3.1198891   -3.3710364 
H    -4.2777127    3.4590889    2.8646561 
H    -3.0569476    2.7701137    3.9934765 
H    -4.5804853    1.8614446    3.6422692 
H    -6.3110347    0.1832926   -1.0643802 
H    -6.3478367    1.5985460    0.0599316 
H    -6.5010464   -0.0767795    0.7061387 
