99
Energy =
C     3.5990305    0.0668798   -0.6731274 
C     3.3735247   -0.8955484    0.3297903 
C     2.8001376   -2.1689655    0.0279990 
H     3.5374687   -0.6286716    1.3814096 
Pd    1.3473637   -0.5481601   -0.4634492 
P    -0.6785447   -1.7337296   -0.4226922 
P     0.3003293    1.5922861   -0.6871769 
H     3.6136360   -0.2936967   -1.7126041 
H     3.0056264   -2.5902544   -0.9667846 
C     5.4128832    3.9433924   -0.2031528 
C     5.1938605    3.3996809   -1.4780471 
C     4.6085093    2.1349842   -1.6096808 
C     4.2172842    1.3874015   -0.4726872 
C     4.4665568    1.9418207    0.8052981 
C     5.0551425    3.2035704    0.9365588 
H     5.8721694    4.9312422   -0.0960400 
H     5.4875363    3.9587994   -2.3723923 
H     4.4492407    1.7120680   -2.6074553 
H     4.2054501    1.3829218    1.7090537 
H     5.2386593    3.6134215    1.9350412 
C     1.9222758   -5.0539785    3.1061119 
C     1.7652975   -3.6816595    3.3646847 
C     2.0553804   -2.7395414    2.3719221 
C     2.5116503   -3.1493363    1.0957321 
C     2.6778651   -4.5310484    0.8550893 
C     2.3840525   -5.4735779    1.8493017 
H     1.6897601   -5.7907495    3.8817005 
H     1.4047361   -3.3454435    4.3427630 
H     1.8866892   -1.6750007    2.5709700 
H     3.0410352   -4.8661502   -0.1223646 
H     2.5194155   -6.5403907    1.6430130 
O    -3.0725350    2.1924001    2.0306208 
O    -4.6604160    0.3812161    0.1614973 
C    -1.6838200   -1.5122950   -1.9969494 
C    -0.6237186   -3.5665166   -0.0054242 
C     1.2163011    2.6269558   -1.9561353 
C     0.3706121    2.5092438    0.9886045 
C    -1.5022480   -0.9441025    1.0351200 
C    -1.4913249    1.6442437   -1.1398991 
C    -2.1189848    0.3288515    0.9773616 
C    -2.4507928    1.0294044   -0.2996126 
C    -2.5243046    0.9573827    2.1870074 
C    -3.8163687    1.0125852   -0.6962100 
C    -3.0896625   -2.1331466   -1.9615946 
C    -0.8713555   -1.8960515   -3.2493812 
C     0.0348649   -4.3780773   -1.1347719 
C    -1.9563015   -4.2049000    0.4384060 
C     0.6895765    4.0518605   -2.2789444 
C     1.4901048    1.8088911   -3.2351059 
C     0.8972299    1.5784902    2.0968244 
C     1.1707725    3.8244785    0.9712454 
C    -1.2848838   -1.5502158    2.2968539 
C    -1.9052128    2.1901133   -2.3759376 
C    -2.3262989    0.3350295    3.4306974 
C    -4.2161852    1.5759190   -1.9207017 
C    -1.7036655   -0.9184969    3.4705600 
C    -3.2511178    2.1535315   -2.7535218 
C    -3.5918701    2.8740737    3.1732604 
C    -6.0541078    0.3261757   -0.1458950 
H    -1.8028712   -0.4224160   -2.0393199 
H     0.0712850   -3.5834488    0.8524118 
H     2.1834995    2.7320703   -1.4331744 
H    -0.6901507    2.7416857    1.1915320 
H    -3.6813498   -1.7264331   -2.8012591 
H    -3.0588733   -3.2290499   -2.0753393 
H    -3.6196408   -1.8889705   -1.0253271 
H     0.1363962   -1.4437881   -3.2262057 
H    -1.3949232   -1.5104044   -4.1421945 
H    -0.7610223   -2.9844105   -3.3731743 
H    -0.6627732   -4.5407137   -1.9730246 
H     0.3258920   -5.3680504   -0.7445650 
H     0.9417201   -3.8877278   -1.5267159 
H    -1.7379195   -5.1684698    0.9323554 
H    -2.5155778   -3.5787053    1.1517133 
H    -2.6121446   -4.4133633   -0.4207538 
H     1.5233479    4.7732884   -2.2432252 
H    -0.0914008    4.4016534   -1.5857749 
H     0.2644372    4.0951721   -3.2960441 
H     0.5675124    1.6175728   -3.8097305 
H     2.1844146    2.3660341   -3.8887492 
H     1.9452743    0.8310596   -3.0013465 
H     0.7838111    2.0745324    3.0773849 
H     0.3560405    0.6202178    2.1365534 
H     1.9693308    1.3660499    1.9484735 
H     2.2203158    3.6654778    0.6713641 
H     1.1824247    4.2385048    1.9957111 
H     0.7278316    4.5862023    0.3139503 
H    -0.7742900   -2.5117360    2.3725474 
H    -1.1841610    2.6419473   -3.0546289 
H    -2.6412036    0.8174799    4.3586345 
H    -5.2625018    1.5553284   -2.2336512 
H    -1.5361524   -1.4072827    4.4359308 
H    -3.5554842    2.5840125   -3.7130417 
H    -2.7937085    3.0973023    3.9063179 
H    -4.3885830    2.2824312    3.6610981 
H    -4.0122275    3.8157685    2.7925976 
H    -6.2358210   -0.2313734   -1.0841844 
H    -6.4865003    1.3407960   -0.2269099 
H    -6.5225622   -0.2078539    0.6930052 
