99
Energy =
C     3.2003026    0.0274036   -1.6124101 
C     3.2980998   -1.2429991   -0.9816355 
C     2.3819856   -2.2785785   -1.2778570 
H     4.0261532   -1.3797311   -0.1730069 
Pd    1.3315613   -0.4153915   -0.4354948 
P    -0.5532035   -1.5311001    0.5375195 
P     0.3917746    1.7172245   -0.2175528 
H     2.7022710    0.0594344   -2.5934894 
H     1.8642124   -2.2194042   -2.2457826 
C     6.0318414    3.2116922   -0.9951298 
C     5.3114388    3.1159995   -2.1943921 
C     4.3818846    2.0833755   -2.3758411 
C     4.1546624    1.1243989   -1.3635688 
C     4.8843057    1.2383298   -0.1563431 
C     5.8131524    2.2677982    0.0232051 
H     6.7593770    4.0169377   -0.8516965 
H     5.4775306    3.8445863   -2.9947336 
H     3.8332217    2.0053642   -3.3216463 
H     4.7058662    0.5288250    0.6589662 
H     6.3672511    2.3405161    0.9647902 
C     2.2611625   -6.1958463    0.5014833 
C     1.5187283   -5.9070259   -0.6538341 
C     1.5851310   -4.6332700   -1.2312230 
C     2.3867734   -3.6156587   -0.6623243 
C     3.1408821   -3.9277459    0.4948274 
C     3.0780706   -5.2023952    1.0673464 
H     2.2113783   -7.1911835    0.9543725 
H     0.8906743   -6.6790311   -1.1103501 
H     1.0079086   -4.4153651   -2.1366913 
H     3.7671353   -3.1633476    0.9656256 
H     3.6682026   -5.4232190    1.9627936 
O    -4.0370613    2.3356584    0.7016015 
O    -4.5272011    0.0926034   -1.0692699 
C    -1.4573957   -2.6761661   -0.6681415 
C     0.1660338   -2.7359382    1.7887450 
C     1.1991022    3.2075910   -1.0541468 
C    -0.0299125    2.2023283    1.5495320 
C    -1.8626267   -0.5199388    1.3793690 
C    -1.1238663    1.3972968   -1.2399288 
C    -2.5450486    0.5234186    0.7022604 
C    -2.3261394    0.8498520   -0.7367042 
C    -3.4756676    1.3261035    1.4171634 
C    -3.4050365    0.6088891   -1.6372353 
C    -1.3073946   -2.2499617   -2.1369357 
C    -2.9281726   -2.9031473   -0.2785963 
C    -0.7411426   -3.8290039    2.3846140 
C     1.0567967   -2.0262079    2.8258601 
C     2.3532510    3.7740600   -0.2070341 
C     0.2415222    4.3413644   -1.4757305 
C     1.2124208    2.1449662    2.4627767 
C    -0.8421491    3.4991053    1.6972218 
C    -2.1265296   -0.7339966    2.7505950 
C    -0.9792764    1.5845395   -2.6373808 
C    -3.7324372    1.0932237    2.7796628 
C    -3.2700521    0.8606393   -3.0123973 
C    -3.0515542    0.0617466    3.4345032 
C    -2.0426294    1.3250795   -3.5036685 
C    -5.0355265    3.1532362    1.3128201 
C    -5.6820233   -0.1296022   -1.8792689 
H    -0.8949860   -3.6197000   -0.5308148 
H     0.8565614   -3.2613916    1.1053783 
H     1.6470945    2.7595907   -1.9612394 
H    -0.6700812    1.3682359    1.8641208 
H    -1.7366122   -3.0298716   -2.7915567 
H    -1.8333270   -1.3062391   -2.3451305 
H    -0.2509975   -2.1122572   -2.4171030 
H    -3.0398295   -3.2137441    0.7728924 
H    -3.3567480   -3.6969521   -0.9172509 
H    -3.5225045   -1.9858561   -0.4215111 
H    -1.2472070   -4.4114628    1.5979605 
H    -1.5108522   -3.4440742    3.0724660 
H    -0.1073943   -4.5331966    2.9525987 
H     1.6467253   -2.7792906    3.3775844 
H     1.7631152   -1.3384805    2.3258037 
H     0.4817889   -1.4400821    3.5619964 
H     3.0193510    2.9910912    0.1844978 
H     1.9695867    4.3695989    0.6380710 
H     2.9625234    4.4441296   -0.8365044 
H     0.8068598    5.0658746   -2.0895185 
H    -0.6159304    3.9900124   -2.0693674 
H    -0.1491778    4.8828213   -0.6005326 
H     0.8755217    2.1345237    3.5146483 
H     1.7978096    1.2258270    2.2848232 
H     1.8805335    3.0099755    2.3353036 
H    -1.2328274    3.5609333    2.7288475 
H    -1.7030482    3.5230039    1.0084213 
H    -0.2229316    4.3947672    1.5226979 
H    -1.6099438   -1.5208025    3.2974260 
H    -0.0332768    1.9412704   -3.0529455 
H    -4.4439331    1.7118993    3.3311777 
H    -4.0957474    0.6725922   -3.7019858 
H    -3.2429229   -0.1225574    4.4965859 
H    -1.9195779    1.4888720   -4.5790706 
H    -5.8972414    2.5465979    1.6482494 
H    -5.3610759    3.8572417    0.5338583 
H    -4.6228746    3.7190963    2.1694438 
H    -5.4824023   -0.8799674   -2.6674495 
H    -6.0300267    0.8123708   -2.3422074 
H    -6.4540128   -0.5127324   -1.1968775 
