99
Energy =
C     3.6640547    0.1068049   -0.7490431 
C     3.4946498   -0.8613348    0.2611598 
C     2.9374544   -2.1444713   -0.0288255 
H     3.6871432   -0.5896989    1.3071086 
Pd    1.4477102   -0.5442957   -0.4861671 
P    -0.5613068   -1.7337246   -0.4076402 
P     0.3751021    1.5788880   -0.6942493 
H     3.6795927   -0.2551675   -1.7885338 
H     3.1234045   -2.5571356   -1.0311472 
C     5.2723749    4.0740897   -0.3134287 
C     5.2390126    3.4448676   -1.5667548 
C     4.7209043    2.1496615   -1.6870787 
C     4.2259944    1.4535744   -0.5580465 
C     4.2818237    2.0966564    0.7010782 
C     4.7957526    3.3917153    0.8193282 
H     5.6730793    5.0881315   -0.2161729 
H     5.6186329    3.9636179   -2.4529849 
H     4.6924850    1.6638745   -2.6691160 
H     3.9065146    1.5882434    1.5942853 
H     4.8264450    3.8744162    1.8016912 
C     2.1579604   -5.0631905    3.0439484 
C     1.9974752   -3.6944900    3.3192556 
C     2.2561829   -2.7411282    2.3285589 
C     2.6842139   -3.1353099    1.0377601 
C     2.8536332   -4.5135526    0.7800958 
C     2.5912088   -5.4675238    1.7722018 
H     1.9501001   -5.8087776    3.8180896 
H     1.6592729   -3.3700965    4.3092036 
H     2.0848876   -1.6800161    2.5424197 
H     3.1944620   -4.8369994   -0.2092832 
H     2.7287081   -6.5313230    1.5522506 
O    -3.2795788    1.9891195    2.0759415 
O    -4.6083547    0.2942390    0.1318267 
C    -1.5865523   -1.5088632   -1.9683949 
C    -0.4903964   -3.5676232    0.0061359 
C     1.2980345    2.5682820   -1.9982990 
C     0.6797731    2.5811679    0.8820360 
C    -1.3814103   -0.9568072    1.0574957 
C    -1.4399902    1.6642806   -1.0636052 
C    -2.0875824    0.2684665    1.0037939 
C    -2.4023377    1.0004465   -0.2593474 
C    -2.5980705    0.8204386    2.2153785 
C    -3.7661686    1.0015809   -0.6666255 
C    -2.9987097   -2.1137358   -1.9092605 
C    -0.8004139   -1.9116298   -3.2317902 
C     0.1516102   -4.3738754   -1.1364626 
C    -1.8116784   -4.2116534    0.4727295 
C     1.0426266    4.0833187   -2.1034885 
C     1.3392261    1.8441251   -3.3576510 
C    -0.3959091    3.6509432    1.1317440 
C     0.9186006    1.6952456    2.1167863 
C    -1.1288826   -1.5600783    2.3139289 
C    -1.8648268    2.3121046   -2.2457020 
C    -2.3697045    0.1944167    3.4516182 
C    -4.1710417    1.6577654   -1.8417463 
C    -1.6203827   -0.9883160    3.4887159 
C    -3.2113940    2.3105650   -2.6218660 
C    -3.8973601    2.5794897    3.2197514 
C    -6.0058601    0.2855067   -0.1603021 
H    -1.6911543   -0.4166858   -2.0131718 
H     0.2208880   -3.5826741    0.8508778 
H     2.3099003    2.4652324   -1.5674023 
H     1.6393892    3.0764627    0.6364164 
H    -3.5987198   -1.7043996   -2.7418085 
H    -2.9790914   -3.2102246   -2.0206305 
H    -3.5133397   -1.8617481   -0.9669031 
H     0.2209678   -1.4911319   -3.2211790 
H    -1.3229653   -1.5083385   -4.1172770 
H    -0.7251259   -3.0024932   -3.3589138 
H    -0.5617287   -4.5432231   -1.9599383 
H     0.4592203   -5.3609285   -0.7516830 
H     1.0461104   -3.8761249   -1.5470340 
H    -1.5828507   -5.1860964    0.9399664 
H    -2.3475915   -3.5986949    1.2148782 
H    -2.4919513   -4.3997662   -0.3721785 
H     0.0349508    4.3403022   -2.4672490 
H     1.7739398    4.5122203   -2.8120558 
H     1.1950199    4.5877428   -1.1357992 
H     0.3810747    1.8889934   -3.9014413 
H     2.1095770    2.3098187   -3.9978742 
H     1.6005442    0.7782423   -3.2280997 
H    -0.0864529    4.2899589    1.9789076 
H    -0.5518224    4.3002615    0.2551607 
H    -1.3650263    3.1903801    1.3825244 
H    -0.0043084    1.1950380    2.4471405 
H     1.2871084    2.3187729    2.9511435 
H     1.6679792    0.9108599    1.9129012 
H    -0.5426793   -2.4785127    2.3813317 
H    -1.1464318    2.8209394   -2.8859260 
H    -2.7553921    0.6244069    4.3784503 
H    -5.2174515    1.6545988   -2.1548763 
H    -1.4219760   -1.4721058    4.4506681 
H    -3.5177155    2.8226391   -3.5397233 
H    -3.1457998    2.8751189    3.9758333 
H    -4.6316036    1.8892601    3.6751106 
H    -4.4140825    3.4759755    2.8485612 
H    -6.4718720   -0.3135664    0.6349453 
H    -6.2086690   -0.1853364   -1.1408154 
H    -6.4230626    1.3096009   -0.1461421 
