99
Energy =
C     3.4268013    0.0746761   -1.2288368 
C     3.5187002   -1.0568628   -0.3932783 
C     2.7910835   -2.2518336   -0.6791711 
H     4.0551498   -0.9737063    0.5600217 
Pd    1.3689693   -0.5257270   -0.3780341 
P    -0.7136197   -1.6107120   -0.3931835 
P     0.5044312    1.5872388    0.2175064 
H     3.0217343   -0.0800836   -2.2409745 
H     2.6176752   -2.4862144   -1.7367673 
C     5.3403524    3.8866405   -0.6922804 
C     4.4813380    3.6596031   -1.7794575 
C     3.8890662    2.4040576   -1.9538586 
C     4.1301373    1.3514595   -1.0383040 
C     5.0226714    1.5868828    0.0345166 
C     5.6164355    2.8419143    0.2055901 
H     5.8061074    4.8675770   -0.5539430 
H     4.2773687    4.4624521   -2.4954269 
H     3.2170717    2.2310983   -2.8016317 
H     5.2548435    0.7857745    0.7426883 
H     6.3046983    3.0060165    1.0411421 
C     2.7346615   -5.6720374    1.9468737 
C     3.0033833   -4.3951052    2.4671035 
C     3.0213898   -3.2787226    1.6250754 
C     2.7819431   -3.4105491    0.2358483 
C     2.5276633   -4.7053191   -0.2730419 
C     2.4982485   -5.8219063    0.5722842 
H     2.7157548   -6.5439046    2.6085576 
H     3.1901888   -4.2687585    3.5386526 
H     3.2011455   -2.2877934    2.0567316 
H     2.3699191   -4.8367833   -1.3493859 
H     2.3017965   -6.8145478    0.1538156 
O    -3.8634765    2.5284040   -0.8576144 
O    -4.5421822    0.4983507    0.9988926 
C    -0.5649688   -3.2535149   -1.3002119 
C    -1.4108819   -2.0013230    1.3116208 
C     0.2720678    2.8232051   -1.1924948 
C     1.8523961    2.4169641    1.2428382 
C    -1.9453127   -0.5520241   -1.2835010 
C    -1.0372485    1.5074482    1.2385906 
C    -2.4864271    0.6272283   -0.7075832 
C    -2.2685869    1.0404987    0.7122562 
C    -3.3841658    1.4189833   -1.4808843 
C    -3.3987443    0.9517816    1.5772615 
C     0.1024272   -3.1420915   -2.6931916 
C    -1.8244885   -4.1382375   -1.3456580 
C    -0.5370438   -3.0574947    2.0095657 
C    -2.9123309   -2.3369737    1.3565300 
C    -0.7822169    3.9031648   -0.9004463 
C     0.0600922    2.1392685   -2.5542693 
C     1.6226316    3.8701713    1.6983100 
C     2.4182740    1.5093804    2.3528672 
C    -2.2864743   -0.8884391   -2.6126961 
C    -0.9550222    1.8317496    2.6121086 
C    -3.7147979    1.0678378   -2.8003451 
C    -3.2980868    1.2814602    2.9392273 
C    -3.1574533   -0.0878832   -3.3563874 
C    -2.0695573    1.7150834    3.4468326 
C    -4.8540275    3.3255209   -1.5068025 
C    -5.7334697    0.4038143    1.7789966 
H     0.1698520   -3.7407185   -0.6311050 
H    -1.2569236   -1.0429147    1.8373190 
H     1.2745030    3.2946062   -1.2122870 
H     2.6307760    2.4564821    0.4597177 
H     0.7420755   -4.0239046   -2.8695042 
H    -0.6442657   -3.1278847   -3.5041303 
H     0.7265714   -2.2378791   -2.7969089 
H    -2.1459734   -4.4501603   -0.3408463 
H    -1.5993629   -5.0553196   -1.9194491 
H    -2.6718800   -3.6305361   -1.8367726 
H     0.5312791   -2.7891270    1.9787083 
H    -0.6474735   -4.0581655    1.5568559 
H    -0.8391723   -3.1383053    3.0685708 
H    -3.1098138   -3.3758480    1.0490732 
H    -3.2696521   -2.2239868    2.3960116 
H    -3.5114392   -1.6665028    0.7207225 
H    -0.5908987    4.4263128    0.0498873 
H    -1.7942015    3.4739103   -0.8445140 
H    -0.7698593    4.6541782   -1.7113493 
H    -0.9386308    1.6833457   -2.6339897 
H     0.1563307    2.8889818   -3.3600919 
H     0.8077647    1.3460180   -2.7290712 
H     0.7800533    3.9796342    2.4001918 
H     2.5353649    4.2280808    2.2075743 
H     1.4447168    4.5408833    0.8425533 
H     2.5442233    0.4722961    1.9917173 
H     1.7810851    1.4728586    3.2514842 
H     3.4082531    1.8892267    2.6599543 
H    -1.8759729   -1.7819328   -3.0776817 
H    -0.0180744    2.1808183    3.0416957 
H    -4.3965185    1.6836338   -3.3908859 
H    -4.1626236    1.1991715    3.6016135 
H    -3.4085458   -0.3698554   -4.3839077 
H    -1.9818402    1.9713341    4.5075536 
H    -5.7530103    2.7262007   -1.7423551 
H    -4.4592205    3.7852421   -2.4323716 
H    -5.1146938    4.1167810   -0.7895755 
H    -5.6148280   -0.3189347    2.6082325 
H    -6.5112050    0.0442013    1.0902871 
H    -6.0248041    1.3906202    2.1844290 
