99
Energy =
C     3.4255920   -0.0073442   -0.8290890 
C     3.3623999   -1.0622002    0.1302481 
C     2.8970309   -2.3443244   -0.2160057 
H     3.5981712   -0.8416713    1.1792480 
Pd    1.3051330   -0.6556326   -0.5476438 
P    -0.7105218   -1.6862489    0.2627694 
P     0.2116906    1.2794037   -1.2987373 
H     3.5903237   -0.2941573   -1.8777858 
H     2.8943068   -2.6022943   -1.2858876 
C     4.8017801    3.9341955    0.2355670 
C     4.0427425    3.1853724    1.1509234 
C     3.5965679    1.9029470    0.8136947 
C     3.8995658    1.3398194   -0.4492211 
C     4.6761861    2.0981526   -1.3528983 
C     5.1210306    3.3828524   -1.0145438 
H     5.1460055    4.9396177    0.4982701 
H     3.7901405    3.6080421    2.1292408 
H     2.9703667    1.3456123    1.5193472 
H     4.9326460    1.6728968   -2.3290409 
H     5.7223218    3.9547906   -1.7288685 
C     2.9036837   -5.7561797    2.3992228 
C     2.7908801   -4.4649941    2.9443180 
C     2.7815010   -3.3443068    2.1085616 
C     2.8763671   -3.4919163    0.7043325 
C     2.9901104   -4.7962188    0.1703480 
C     3.0090945   -5.9170137    1.0098398 
H     2.9103420   -6.6311406    3.0570134 
H     2.7077089   -4.3344969    4.0282990 
H     2.6774973   -2.3472661    2.5482554 
H     3.0682361   -4.9271916   -0.9147705 
H     3.1028675   -6.9186066    0.5780197 
O    -4.0633517    2.2991462   -0.2468277 
O    -3.4656149    1.3090457    2.4217632 
C    -0.9776610   -3.5132944   -0.1835734 
C    -0.6352703   -1.6925984    2.1491740 
C    -1.0495037    0.9007193   -2.6448733 
C     1.2526631    2.7369064   -1.8789668 
C    -2.3385752   -0.9268147   -0.2685652 
C    -0.5838193    1.8861532    0.2598093 
C    -2.6653565    0.4265701    0.0063189 
C    -1.7991885    1.3718915    0.7671935 
C    -3.8657372    0.9830620   -0.5223411 
C    -2.2836893    1.8475696    2.0194664 
C    -0.4690359   -4.5362333    0.8453456 
C    -0.4142194   -3.7672522   -1.5940553 
C    -2.0222405   -1.8408765    2.7932216 
C     0.2008489   -0.5534068    2.7544287 
C    -0.4134610    0.1053505   -3.8029231 
C    -1.8870267    2.1013639   -3.1130899 
C     1.9661479    2.4242082   -3.2056954 
C     0.5397684    4.1040836   -1.9397524 
C    -3.2140360   -1.6712602   -1.0966573 
C     0.1645092    2.7974295    1.0449056 
C    -4.7325072    0.2161979   -1.3176699 
C    -1.5522319    2.7824574    2.7701287 
C    -4.3885732   -1.1076021   -1.6038642 
C    -0.3213612    3.2366481    2.2781278 
C    -5.2632861    2.9331667   -0.6904893 
C    -4.0739806    1.7805734    3.6243266 
H    -2.0719935   -3.6367694   -0.2084229 
H    -0.0591653   -2.6214220    2.3123039 
H    -1.7252782    0.2007600   -2.1391070 
H     2.0299250    2.7894742   -1.0973325 
H    -0.6160357   -5.5482858    0.4279852 
H     0.5997614   -4.4272181    1.0705822 
H    -1.0360313   -4.4869459    1.7890413 
H    -0.7988901   -3.0394723   -2.3304922 
H    -0.6887080   -4.7802402   -1.9382425 
H     0.6865566   -3.6927866   -1.5919296 
H    -2.5770627   -2.7022647    2.3824820 
H    -2.6338377   -0.9375008    2.6334060 
H    -1.9114739   -1.9973366    3.8818085 
H    -0.3164008    0.4151057    2.7170375 
H     0.4141456   -0.7846856    3.8136249 
H     1.1635080   -0.4399823    2.2247415 
H     0.1959932   -0.7349963   -3.4237397 
H     0.2203075    0.7258418   -4.4547807 
H    -1.2213197   -0.3165768   -4.4269744 
H    -1.3113433    2.7745515   -3.7692562 
H    -2.7509542    1.7291178   -3.6924474 
H    -2.2771255    2.6839576   -2.2615699 
H     2.7777059    3.1557023   -3.3589327 
H     2.4124585    1.4157994   -3.2138189 
H     1.2767542    2.5063386   -4.0625201 
H    -0.0835305    4.3033031   -1.0536537 
H    -0.0966991    4.1922157   -2.8332914 
H     1.3072943    4.8964312   -1.9978284 
H    -2.9914400   -2.6997876   -1.3786265 
H     1.1301145    3.1695434    0.6975774 
H    -5.6494834    0.6443430   -1.7283216 
H    -1.9210889    3.1435811    3.7325100 
H    -5.0444091   -1.7119760   -2.2388238 
H     0.2649941    3.9493251    2.8673357 
H    -6.1569795    2.4373040   -0.2681100 
H    -5.3290072    2.9405898   -1.7950043 
H    -5.2064604    3.9672386   -0.3217959 
H    -3.4421421    1.5649492    4.5065702 
H    -5.0228993    1.2326373    3.7121498 
H    -4.2757380    2.8664341    3.5679738 
