99
Energy =
C     3.5973785    0.0277335   -0.6877770 
C     3.3673550   -0.9194323    0.3285497 
C     2.7819820   -2.1915095    0.0441394 
H     3.5378578   -0.6408403    1.3760833 
Pd    1.3415129   -0.5642996   -0.4614439 
P    -0.6940958   -1.7326356   -0.4024890 
P     0.3117741    1.5826529   -0.7012087 
H     3.6048929   -0.3471575   -1.7222878 
H     2.9809682   -2.6263741   -0.9461121 
C     5.4478964    3.8937197   -0.2799472 
C     5.2250382    3.3309817   -1.5458817 
C     4.6274145    2.0700926   -1.6571575 
C     4.2279553    1.3453518   -0.5083126 
C     4.4809280    1.9186006    0.7605838 
C     5.0814939    3.1766484    0.8715180 
H     5.9166442    4.8787255   -0.1887220 
H     5.5252312    3.8721981   -2.4490290 
H     4.4647689    1.6322876   -2.6479350 
H     4.2127440    1.3776066    1.6731219 
H     5.2677161    3.6014385    1.8632384 
C     1.8918069   -5.0322118    3.1596534 
C     1.7454121   -3.6557356    3.4018183 
C     2.0393427   -2.7279464    2.3967640 
C     2.4887060   -3.1566383    1.1243549 
C     2.6436504   -4.5424057    0.8999477 
C     2.3463595   -5.4705325    1.9065908 
H     1.6566970   -5.7577221    3.9450158 
H     1.3902125   -3.3049747    4.3767484 
H     1.8793099   -1.6598201    2.5833092 
H     3.0010203   -4.8920534   -0.0745435 
H     2.4734823   -6.5407464    1.7130345 
O    -3.0509942    2.2364599    2.0172290 
O    -4.6573250    0.4216389    0.1688379 
C    -1.7017856   -1.5187956   -1.9762545 
C    -0.6522085   -3.5615662    0.0328372 
C     1.2335797    2.5994714   -1.9804544 
C     0.3918573    2.5132411    0.9667201 
C    -1.5083370   -0.9222648    1.0491674 
C    -1.4802946    1.6450514   -1.1509345 
C    -2.1148767    0.3550550    0.9801320 
C    -2.4431630    1.0462829   -0.3028895 
C    -2.5128266    0.9984449    2.1844326 
C    -3.8096472    1.0373620   -0.6966142 
C    -3.1127857   -2.1271532   -1.9305876 
C    -0.8962984   -1.9224033   -3.2269244 
C    -0.0018293   -4.3893228   -1.0894854 
C    -1.9886669   -4.1855752    0.4854553 
C     0.7172435    4.0257096   -2.3140563 
C     1.4981452    1.7687600   -3.2532046 
C     0.9137510    1.5884646    2.0821523 
C     1.2005682    3.8230031    0.9370974 
C    -1.2933710   -1.5178024    2.3163570 
C    -1.8920827    2.1825399   -2.3913154 
C    -2.3176004    0.3865279    3.4337262 
C    -4.2071748    1.5921714   -1.9257321 
C    -1.7049249   -0.8714850    3.4846525 
C    -3.2389986    2.1535917   -2.7659672 
C    -3.5623877    2.9334090    3.1542032 
C    -6.0521112    0.3759462   -0.1350724 
H    -1.8116145   -0.4284041   -2.0294326 
H     0.0443468   -3.5750917    0.8894937 
H     2.2027568    2.7011214   -1.4604303 
H    -0.6669020    2.7546722    1.1694299 
H    -3.7034586   -1.7238698   -2.7726253 
H    -3.0916655   -3.2243651   -2.0333410 
H    -3.6379635   -1.8690218   -0.9953396 
H     0.1155068   -1.4789752   -3.2110982 
H    -1.4189078   -1.5411626   -4.1221942 
H    -0.7960475   -3.0129118   -3.3399407 
H    -0.7022993   -4.5553575   -1.9247060 
H     0.2827686   -5.3773995   -0.6898229 
H     0.9077636   -3.9095626   -1.4881022 
H    -1.7765085   -5.1456400    0.9888551 
H    -2.5421757   -3.5480762    1.1932417 
H    -2.6474631   -4.3979828   -0.3704882 
H     1.5566020    4.7409691   -2.2862208 
H    -0.0595408    4.3872849   -1.6222433 
H     0.2901749    4.0637347   -3.3305587 
H     0.5730338    1.5808861   -3.8248959 
H     2.1963265    2.3145518   -3.9122613 
H     1.9451234    0.7889267   -3.0121984 
H     0.8052999    2.0938043    3.0585191 
H     0.3658779    0.6344404    2.1310524 
H     1.9840804    1.3670381    1.9342245 
H     2.2483813    3.6547362    0.6363369 
H     1.2169227    4.2452182    1.9581678 
H     0.7612629    4.5822845    0.2745657 
H    -0.7900093   -2.4824163    2.4004871 
H    -1.1686588    2.6219780   -3.0756148 
H    -2.6270093    0.8804073    4.3574946 
H    -5.2542610    1.5773763   -2.2364311 
H    -1.5393585   -1.3521605    4.4544217 
H    -3.5416768    2.5774086   -3.7289839 
H    -2.7609489    3.1571060    3.8835385 
H    -4.3629706    2.3531100    3.6492867 
H    -3.9757386    3.8748270    2.7652687 
H    -6.2408468   -0.1892373   -1.0673939 
H    -6.4756495    1.3935288   -0.2252639 
H    -6.5234646   -0.1455400    0.7100714 
