99
Energy =
C    -0.3457177   -3.0428411    1.1189316 
C    -1.7153581   -2.6255245    1.0735405 
C    -2.4752694   -2.6800654   -0.1075025 
H    -2.1509814   -2.1607353    1.9668560 
Pd   -0.5459565   -1.3246028   -0.2591614 
P    -1.2595048    0.7798982   -1.0928387 
P     1.7299642   -0.9958414   -0.7222350 
H    -0.0405898   -3.8569731    0.4467645 
H    -2.0959067   -3.3096434   -0.9260758 
C     1.8730946   -2.7438723    4.8015334 
C     0.9012968   -1.7796741    4.4859395 
C     0.1921532   -1.8603675    3.2836524 
C     0.4277299   -2.9184264    2.3735610 
C     1.4118831   -3.8773558    2.7006281 
C     2.1293665   -3.7891604    3.9012187 
H     2.4299772   -2.6791597    5.7419436 
H     0.7046721   -0.9505535    5.1741341 
H    -0.5233331   -1.0710377    3.0271971 
H     1.6028070   -4.7088496    2.0121938 
H     2.8840701   -4.5459080    4.1394994 
C    -6.6680389   -1.7845285   -0.4326827 
C    -5.9306889   -1.2633602    0.6451649 
C    -4.5649422   -1.5378491    0.7634660 
C    -3.9002867   -2.3322564   -0.2024244 
C    -4.6562874   -2.8453352   -1.2817713 
C    -6.0265775   -2.5820053   -1.3921851 
H    -7.7386791   -1.5729796   -0.5186590 
H    -6.4275474   -0.6446273    1.3996603 
H    -4.0083919   -1.1296645    1.6141301 
H    -4.1589426   -3.4654159   -2.0361206 
H    -6.5947389   -2.9967373   -2.2309798 
O     1.6349983    4.0972339    0.3406787 
O     2.3498044    2.1774958    2.3959952 
C     3.0304140   -1.7013610    0.4414426 
C     2.0420249   -1.8713885   -2.3573439 
C    -3.1215328    0.9707925   -1.1507950 
C    -0.5129848    1.8758319   -2.4341189 
C     2.2827660    0.7485789   -0.9540065 
C    -0.7162541    1.4155639    0.5636490 
C     1.7283235    1.8069934   -0.1896897 
C     0.6526970    1.6723925    0.8490704 
C     2.2281635    3.1261717   -0.4017606 
C     1.0293434    1.9298077    2.1987824 
C     3.1127702   -0.8319071    1.7040641 
C     4.4177050   -1.8906201   -0.1931713 
C     1.2152974   -1.2686123   -3.5023444 
C     1.7527921   -3.3758157   -2.1911428 
C    -3.7289610    0.2252394   -2.3562079 
C    -3.6711591    2.4020151   -1.0206580 
C    -1.0761381    1.5637151   -3.8330378 
C    -0.5873273    3.3816758   -2.1129494 
C     3.2968573    1.0168811   -1.9021044 
C    -1.6622229    1.4129940    1.6193001 
C     3.2358654    3.3791453   -1.3480235 
C     0.0797674    1.9163951    3.2356542 
C     3.7636574    2.3196365   -2.0942894 
C    -1.2636497    1.6657843    2.9336666 
C     2.0908532    5.4452559    0.2267095 
C     2.8302713    2.4019384    3.7204894 
H     2.6185792   -2.6877010    0.7207582 
H     3.1163254   -1.7454583   -2.5831573 
H    -3.4196669    0.3959429   -0.2563924 
H     0.5458753    1.5751575   -2.4270845 
H     3.7175837   -1.3491969    2.4687021 
H     3.5788322    0.1424707    1.4835015 
H     2.1171753   -0.6436246    2.1338382 
H     5.1066204   -2.2893115    0.5732168 
H     4.8345449   -0.9299263   -0.5432874 
H     4.4152665   -2.6032954   -1.0345416 
H     0.1352670   -1.3703303   -3.2960390 
H     1.4374735   -1.8017588   -4.4437011 
H     1.4409595   -0.2007007   -3.6573704 
H     0.6784809   -3.5454162   -1.9947450 
H     2.0164741   -3.9089402   -3.1214335 
H     2.3291937   -3.8322438   -1.3682723 
H    -4.7905637    0.0100603   -2.1479608 
H    -3.2220354   -0.7360217   -2.5414338 
H    -3.6800586    0.8271276   -3.2766369 
H    -3.5391014    2.9670111   -1.9580457 
H    -4.7555994    2.3548082   -0.8136216 
H    -3.1912997    2.9683481   -0.2051665 
H    -0.4170189    2.0219298   -4.5914207 
H    -1.1278974    0.4826182   -4.0410655 
H    -2.0821792    1.9923825   -3.9703413 
H     0.1207950    3.9208231   -2.7676617 
H    -0.3177199    3.6052722   -1.0687461 
H    -1.5940780    3.7859110   -2.3029588 
H     3.7249179    0.2071856   -2.4980781 
H    -2.7157436    1.2086561    1.4168749 
H     3.6061114    4.3937517   -1.5107229 
H     0.3773126    2.1105230    4.2683314 
H     4.5476147    2.5156275   -2.8328849 
H    -2.0078772    1.6687067    3.7368104 
H     3.1594064    5.5292898    0.4991065 
H     1.4830019    6.0248822    0.9358746 
H     1.9354590    5.8368829   -0.7963745 
H     2.3661592    3.2998360    4.1695765 
H     3.9136955    2.5595150    3.6210210 
H     2.6442963    1.5228257    4.3662945 
