99
Energy =
C    -0.2832458   -3.6118294   -0.3704050 
C    -1.6062524   -3.3286835    0.0251113 
C    -2.4792955   -2.5579218   -0.8012919 
H    -1.9275503   -3.5938233    1.0398640 
Pd   -0.6647380   -1.3413862   -0.2356024 
P    -1.2304137    0.7811585   -1.0663634 
P     1.3025721   -0.6273761    0.8529497 
H    -0.0381987   -3.4786764   -1.4354932 
H    -2.3440913   -2.6482437   -1.8863502 
C     2.7024097   -5.7759710    1.8394395 
C     2.9974025   -5.2225888    0.5832401 
C     2.0051014   -4.5461167   -0.1346082 
C     0.6999991   -4.3943526    0.3925899 
C     0.4100267   -4.9848261    1.6456418 
C     1.4024926   -5.6637579    2.3604662 
H     3.4763793   -6.3067209    2.4030074 
H     4.0024041   -5.3236000    0.1607179 
H     2.2394692   -4.1133924   -1.1134366 
H    -0.5967318   -4.9124215    2.0678708 
H     1.1603800   -6.1143255    3.3285317 
C    -6.4361200   -1.3517367    0.4173667 
C    -5.4606726   -1.6335875    1.3881653 
C    -4.1736485   -2.0229035    1.0040229 
C    -3.8296271   -2.1520689   -0.3633053 
C    -4.8280432   -1.8784894   -1.3267433 
C    -6.1138732   -1.4775157   -0.9420970 
H    -7.4415180   -1.0420270    0.7199504 
H    -5.7033396   -1.5393115    2.4517691 
H    -3.4191048   -2.2067821    1.7771179 
H    -4.5946076   -2.0009860   -2.3902418 
H    -6.8705918   -1.2740522   -1.7070058 
O     1.1224838    4.5390842    0.1184172 
O     3.4232645    3.1277843   -0.7379243 
C     1.4817965   -1.7427923    2.3628901 
C     2.9256605   -0.9459611   -0.0593387 
C    -1.9602220    1.9590237    0.2082939 
C    -2.5161990    0.6040157   -2.4296789 
C     1.2463144    1.1299270    1.4304224 
C     0.2818947    1.5786856   -1.7782795 
C     1.2309502    2.2222697    0.5261276 
C     1.3193675    2.0992152   -0.9609335 
C     1.1286850    3.5459756    1.0464532 
C     2.4773386    2.6450114   -1.5871311 
C     0.1843818   -1.8668160    3.1858642 
C     2.7441855   -1.5876656    3.2313997 
C     4.0637594    0.0005744    0.3555804 
C     2.7451955   -1.0248990   -1.5851962 
C    -3.3380071    1.4515114    0.6670530 
C    -1.9677220    3.4465403   -0.1870506 
C    -3.0611333    1.9064858   -3.0444544 
C    -2.1324879   -0.4240682   -3.5225202 
C     1.1184153    1.3812593    2.8156763 
C     0.4404893    1.5881658   -3.1821800 
C     1.0064220    3.7760842    2.4270088 
C     2.6168413    2.6494569   -2.9850634 
C     0.9967048    2.6855599    3.3019454 
C     1.5917923    2.1158920   -3.7725023 
C     1.0531964    5.8987890    0.5462433 
C     4.5676632    3.7961474   -1.2688352 
H     1.5911053   -2.7018489    1.8254250 
H     3.1582762   -1.9679986    0.2991572 
H    -1.2607265    1.8307500    1.0527307 
H    -3.3253232    0.1460480   -1.8291562 
H     0.2374370   -2.7764348    3.8093054 
H     0.0132418   -1.0108029    3.8589046 
H    -0.6977099   -1.9526356    2.5253608 
H     3.6635116   -1.7327193    2.6418523 
H     2.7320864   -2.3689713    4.0123694 
H     2.8108607   -0.6094249    3.7347444 
H     4.2215038    0.0101534    1.4458142 
H     3.8616933    1.0358421    0.0412183 
H     5.0048361   -0.3282958   -0.1218917 
H     2.5576582   -0.0349045   -2.0286420 
H     3.6643561   -1.4329661   -2.0425998 
H     1.9017730   -1.6823686   -1.8590556 
H    -3.3059226    0.3890076    0.9577036 
H    -4.1080143    1.5651508   -0.1156692 
H    -3.6686700    2.0363063    1.5434355 
H    -2.7976641    3.6847871   -0.8705427 
H    -2.1022785    4.0550235    0.7252671 
H    -1.0250962    3.7591855   -0.6628301 
H    -2.2630625    2.5180579   -3.4986920 
H    -3.7879217    1.6535627   -3.8374895 
H    -3.5872645    2.5244205   -2.3017464 
H    -1.3889579   -1.1610653   -3.1736105 
H    -1.7208610    0.0673876   -4.4194268 
H    -3.0330424   -0.9720944   -3.8490515 
H     1.1156700    0.5583410    3.5278138 
H    -0.3371753    1.1857831   -3.8275155 
H     0.9156782    4.7909312    2.8202659 
H     3.5104703    3.0616705   -3.4585600 
H     0.8992080    2.8558406    4.3789820 
H     1.6909494    2.1146816   -4.8627182 
H     0.1076312    6.1038517    1.0829475 
H     1.0889427    6.5012342   -0.3726304 
H     1.9118142    6.1582770    1.1931923 
H     5.1901840    3.1111406   -1.8746618 
H     5.1436316    4.1365455   -0.3965477 
H     4.2691673    4.6676101   -1.8806181 
