99
Energy =
C     0.3701394   -3.0303776   -1.0299235 
C    -1.0270984   -3.1617702   -0.8617467 
C    -1.9236617   -2.2823797   -1.5324509 
H    -1.4251559   -3.8892078   -0.1433288 
Pd   -0.5856459   -1.1366284   -0.1332440 
P    -1.5572395    1.0058378   -0.3878526 
P     1.0953112   -0.4522762    1.3740351 
H     0.7101846   -2.4709993   -1.9146219 
H    -1.5714030   -1.8466522   -2.4794586 
C     3.4137555   -5.5927136    0.6056154 
C     3.6746081   -4.7885714   -0.5140203 
C     2.6701105   -3.9642417   -1.0339901 
C     1.3843796   -3.9212158   -0.4450400 
C     1.1302210   -4.7578705    0.6674222 
C     2.1344316   -5.5795352    1.1878525 
H     4.1981668   -6.2358097    1.0173837 
H     4.6625662   -4.8062591   -0.9855579 
H     2.8779539   -3.3403241   -1.9095421 
H     0.1427174   -4.7592045    1.1380584 
H     1.9199998   -6.2160925    2.0525024 
C    -6.1985531   -2.6756726   -1.2099463 
C    -5.3868356   -2.9423497   -0.0939733 
C    -3.9982171   -2.8044841   -0.1835740 
C    -3.3885322   -2.3983608   -1.3936956 
C    -4.2170945   -2.1287935   -2.5053673 
C    -5.6085300   -2.2687384   -2.4154768 
H    -7.2855599   -2.7831851   -1.1375113 
H    -5.8423959   -3.2524223    0.8522121 
H    -3.3775424   -2.9836004    0.7019056 
H    -3.7610881   -1.8229436   -3.4542063 
H    -6.2333572   -2.0631633   -3.2908599 
O     1.6506367    4.3435481   -0.6036859 
O     3.4119620    2.2350013   -1.4630331 
C     0.5394621   -0.9426623    3.1020281 
C     2.7821069   -1.2499118    1.1618254 
C    -1.6572400    2.3486076    0.9283597 
C    -3.1030441    1.1113793   -1.4533700 
C     1.4899980    1.3537591    1.4835900 
C    -0.1357698    1.3712016   -1.5263342 
C     1.4487075    2.2017462    0.3473653 
C     1.1436875    1.7641391   -1.0535154 
C     1.7500503    3.5850604    0.5197262 
C     2.2205481    1.8374578   -1.9852120 
C     0.3730577   -2.4700819    3.1754679 
C    -0.7616916   -0.2262050    3.4941565 
C     3.7496717   -0.9975852    2.3282453 
C     3.3868058   -0.8144048   -0.1809853 
C    -2.8719149    2.1839673    1.8623314 
C    -1.5496253    3.7809838    0.3711418 
C    -4.3719437    0.7249853   -0.6677358 
C    -3.2975239    2.4310026   -2.2235439 
C     1.8371034    1.8914385    2.7449717 
C    -0.2984317    1.0282418   -2.8922941 
C     2.0857885    4.1053109    1.7806001 
C     2.0422088    1.4980637   -3.3362206 
C     2.1311683    3.2497783    2.8866538 
C     0.7771756    1.0939165   -3.7790616 
C     1.9794878    5.7313104   -0.5440633 
C     4.5290416    2.4248272   -2.3306240 
H     1.3438036   -0.6464425    3.7993259 
H     2.5481243   -2.3284767    1.1124502 
H    -0.7558555    2.1460601    1.5257713 
H    -2.9225925    0.2987798   -2.1800416 
H     0.0654810   -2.7591279    4.1959285 
H    -0.4123077   -2.8062442    2.4745406 
H     1.3025203   -3.0115816    2.9358341 
H    -1.5771809   -0.5055569    2.8040109 
H    -0.6546135    0.8708489    3.4800363 
H    -1.0589489   -0.5240025    4.5152155 
H     3.3649698   -1.3814579    3.2881512 
H     3.9727197    0.0776386    2.4424620 
H     4.7022794   -1.5189971    2.1249084 
H     3.6803640    0.2484387   -0.1555492 
H     4.2857244   -1.4187253   -0.3951249 
H     2.6745769   -0.9487477   -1.0131942 
H    -3.0552573    1.1339528    2.1422531 
H    -3.7915030    2.5853507    1.4084266 
H    -2.6862477    2.7534349    2.7899147 
H    -2.5071820    4.1193207   -0.0558215 
H    -1.2894977    4.4669243    1.1971718 
H    -0.7717427    3.8758823   -0.4031455 
H    -4.7505779    1.5706724   -0.0736297 
H    -5.1616831    0.4362650   -1.3812963 
H    -4.2050416   -0.1311650    0.0046421 
H    -2.3753383    2.7815843   -2.7152258 
H    -3.6574909    3.2305485   -1.5564641 
H    -4.0662749    2.2818498   -3.0032033 
H     1.8791748    1.2495679    3.6276557 
H    -1.2709609    0.7027210   -3.2683923 
H     2.3072704    5.1674763    1.9063404 
H     2.8748198    1.5484359   -4.0412225 
H     2.3967162    3.6501455    3.8703395 
H     0.6309592    0.8314909   -4.8319037 
H     3.0267342    5.8795268   -0.2207800 
H     1.2991401    6.2770895    0.1366806 
H     1.8525985    6.1106672   -1.5679877 
H     4.8327670    1.4755246   -2.8109477 
H     5.3454140    2.7858658   -1.6888836 
H     4.3060209    3.1795916   -3.1076292 
