99
Energy =
C    -0.2775161   -3.6308315   -0.2627455 
C    -1.6638678   -3.2887662   -0.2691541 
C    -2.2321839   -2.5528737   -1.3286626 
H    -2.2673199   -3.4886142    0.6248568 
Pd   -0.5276102   -1.3885087   -0.3009088 
P    -1.4885640    0.7612713   -0.1525710 
P     1.6832580   -0.6525921   -0.0078431 
H     0.1944561   -3.8075029   -1.2373291 
H    -1.6611120   -2.5036000   -2.2689210 
C     1.6547242   -5.6044436    3.0488639 
C     0.4930173   -4.8456318    3.2680797 
C    -0.1398855   -4.1988485    2.2019027 
C     0.3660422   -4.3027620    0.8836456 
C     1.5280250   -5.0823303    0.6789580 
C     2.1684104   -5.7208001    1.7487196 
H     2.1517762   -6.1056061    3.8855828 
H     0.0843838   -4.7499079    4.2794543 
H    -1.0259994   -3.5855203    2.3999583 
H     1.9206295   -5.2025003   -0.3368938 
H     3.0652779   -6.3213614    1.5642885 
C    -6.3011896   -1.2154638   -1.6976471 
C    -5.3490477   -0.9023558   -2.6808770 
C    -4.0361454   -1.3703522   -2.5587989 
C    -3.6410149   -2.1489400   -1.4443894 
C    -4.6199151   -2.4821439   -0.4781584 
C    -5.9330237   -2.0163941   -0.6036646 
H    -7.3294529   -0.8517840   -1.7910645 
H    -5.6328980   -0.2957283   -3.5469990 
H    -3.2951688   -1.1218190   -3.3265811 
H    -4.3554550   -3.1080473    0.3793743 
H    -6.6773748   -2.2843843    0.1532589 
O     1.1117968    4.3837194   -1.2645920 
O     2.6564962    3.7150616    1.0127145 
C     2.1363312   -0.2011752    1.7631152 
C     2.8771030   -2.0090848   -0.5358459 
C    -3.1887204    0.5046683    0.6222044 
C    -1.9296871    1.5957755   -1.7891803 
C     1.9733069    0.8384807   -1.0673887 
C    -0.5360805    1.9383954    0.9114815 
C     1.4344746    2.1120268   -0.7463643 
C     0.7423689    2.4271856    0.5403690 
C     1.6543766    3.1962402   -1.6446756 
C     1.4395164    3.2862861    1.4400431 
C     3.4110319    0.6452745    1.9291792 
C     2.1309353   -1.4604101    2.6464084 
C     4.3785295   -1.7257658   -0.3443442 
C     2.5831870   -2.5912503   -1.9402907 
C    -4.1137921    1.7286169    0.7584374 
C    -3.1552120   -0.3808282    1.8833254 
C    -1.9891042    3.1296152   -1.7043368 
C    -1.0667094    1.0982664   -2.9616819 
C     2.6825903    0.6761815   -2.2785013 
C    -1.0633364    2.2818992    2.1772927 
C     2.3647004    3.0175170   -2.8434847 
C     0.8973714    3.6195750    2.6925840 
C     2.8726966    1.7513815   -3.1505162 
C    -0.3524188    3.1066758    3.0529536 
C     1.3734007    5.5546835   -2.0382989 
C     3.4159250    4.6017257    1.8334854 
H     1.2717744    0.4172783    2.0608973 
H     2.5789301   -2.7807331    0.1993768 
H    -3.6215853   -0.1240269   -0.1765192 
H    -2.9542908    1.2036343   -1.9433914 
H     3.3972307    1.1138533    2.9296862 
H     4.3227139    0.0310323    1.8629794 
H     3.4801768    1.4514180    1.1820744 
H     2.9816780   -2.1290386    2.4279583 
H     1.2035048   -2.0424330    2.5224630 
H     2.2086812   -1.1621686    3.7067517 
H     4.6389603   -1.5799730    0.7144803 
H     4.7090226   -0.8357074   -0.9064084 
H     4.9579532   -2.5925944   -0.7102271 
H     3.2401236   -2.1537145   -2.7099514 
H     2.7788450   -3.6773333   -1.9395616 
H     1.5393526   -2.4299165   -2.2597023 
H    -4.3006121    2.2075210   -0.2160536 
H    -3.7249206    2.4954103    1.4478952 
H    -5.0909521    1.3896692    1.1466532 
H    -2.8432397    0.1644690    2.7889354 
H    -4.1658237   -0.7850340    2.0679846 
H    -2.4624372   -1.2319826    1.7515710 
H    -2.3750161    3.5334586   -2.6580914 
H    -2.6516061    3.4769261   -0.8956162 
H    -0.9930236    3.5623444   -1.5254129 
H    -1.5080452    1.4430601   -3.9140169 
H    -1.0130999   -0.0041315   -2.9847206 
H    -0.0370509    1.4839090   -2.9069724 
H     3.0954468   -0.2929282   -2.5495496 
H    -2.0367440    1.9086530    2.4892849 
H     2.5221057    3.8504594   -3.5320519 
H     1.4404302    4.2672440    3.3842450 
H     3.4276243    1.6017458   -4.0821789 
H    -0.7807158    3.3588118    4.0283773 
H     0.8809787    6.3793968   -1.5036586 
H     0.9463147    5.4703733   -3.0553411 
H     2.4596431    5.7506605   -2.1052479 
H     4.3322776    4.8191056    1.2664395 
H     3.6840646    4.1277772    2.7965969 
H     2.8649966    5.5419098    2.0221960 
