99
Energy =
C    -0.3967323   -3.6211428   -0.2498741 
C    -1.7709687   -3.2334702   -0.2623137 
C    -2.3111848   -2.4838578   -1.3268769 
H    -2.3836577   -3.4094178    0.6304145 
Pd   -0.5727926   -1.3715722   -0.2973295 
P    -1.4623960    0.8093798   -0.1624338 
P     1.6601233   -0.7078379    0.0012029 
H     0.0723068   -3.8169511   -1.2222367 
H    -1.7357002   -2.4574688   -2.2653616 
C     1.4592596   -5.6458776    3.0745505 
C     0.3214626   -4.8498991    3.2872627 
C    -0.2865235   -4.1862253    2.2169678 
C     0.2206861   -4.3099114    0.9009177 
C     1.3579925   -5.1266839    0.7027822 
C     1.9738537   -5.7820811    1.7766910 
H     1.9369268   -6.1603348    3.9144876 
H    -0.0878001   -4.7385305    4.2967793 
H    -1.1535091   -3.5446285    2.4101191 
H     1.7503483   -5.2621733   -0.3112281 
H     2.8519168   -6.4112806    1.5972816 
C    -6.3321655   -1.0135968   -1.7151637 
C    -5.3666010   -0.7352768   -2.6957948 
C    -4.0704239   -1.2462118   -2.5674066 
C    -3.7054781   -2.0340762   -1.4492002 
C    -4.6983932   -2.3318380   -0.4857579 
C    -5.9948343   -1.8230608   -0.6175424 
H    -7.3473939   -0.6161372   -1.8134023 
H    -5.6270760   -0.1224404   -3.5648930 
H    -3.3187974   -1.0248970   -3.3332002 
H    -4.4579201   -2.9635165    0.3745731 
H    -6.7503754   -2.0637077    0.1374882 
O     1.2631834    4.3409672   -1.2722809 
O     2.7727977    3.6285575    1.0139809 
C     2.1217509   -0.2663151    1.7723982 
C     2.8099104   -2.1048196   -0.5185980 
C    -3.1747392    0.6147038    0.6036273 
C    -1.8657784    1.6503859   -1.8054419 
C     2.0040442    0.7693846   -1.0616117 
C    -0.4765665    1.9585924    0.9018332 
C     1.5069827    2.0611889   -0.7464115 
C     0.8194140    2.4031440    0.5358760 
C     1.7675354    3.1349269   -1.6464709 
C     1.5399346    3.2421196    1.4361613 
C     3.4230765    0.5382770    1.9403870 
C     2.0724584   -1.5223361    2.6589307 
C     4.3193183   -1.8712857   -0.3226389 
C     2.5011254   -2.6810161   -1.9223643 
C    -4.0579079    1.8703468    0.7291229 
C    -3.1790783   -0.2660388    1.8685332 
C    -1.8742444    3.1857455   -1.7282621 
C    -1.0136611    1.1185850   -2.9708141 
C     2.7129133    0.5799139   -2.2690301 
C    -0.9989717    2.3247760    2.1633178 
C     2.4772087    2.9291520   -2.8413053 
C     1.0023578    3.5985101    2.6842828 
C     2.9434021    1.6457249   -3.1428163 
C    -0.2658894    3.1292338    3.0396059 
C     1.5687500    5.5005280   -2.0470503 
C     3.5569508    4.4926056    1.8356359 
H     1.2769677    0.3809882    2.0657616 
H     2.4838228   -2.8639147    0.2177849 
H    -3.6245469   -0.0022132   -0.1949135 
H    -2.9020977    1.2921270   -1.9636143 
H     3.4221687    1.0085372    2.9401980 
H     4.3143103   -0.1056118    1.8773639 
H     3.5203824    1.3406565    1.1923547 
H     2.9019584   -2.2187098    2.4453742 
H     1.1271428   -2.0743318    2.5330505 
H     2.1560895   -1.2239016    3.7187693 
H     4.5807377   -1.7320177    0.7368336 
H     4.6813304   -0.9940267   -0.8853624 
H     4.8707411   -2.7578064   -0.6846311 
H     3.1756698   -2.2690247   -2.6908940 
H     2.6589517   -3.7732401   -1.9176302 
H     1.4647121   -2.4844898   -2.2462831 
H    -4.2229220    2.3507034   -0.2485744 
H    -3.6466623    2.6266697    1.4171730 
H    -5.0481800    1.5669764    1.1134103 
H    -2.8523520    0.2715040    2.7735934 
H    -4.2043513   -0.6332456    2.0495482 
H    -2.5165381   -1.1419372    1.7437016 
H    -2.2407581    3.5974942   -2.6862872 
H    -2.5295052    3.5590412   -0.9252876 
H    -0.8653290    3.5858444   -1.5453939 
H    -1.4387482    1.4724443   -3.9272045 
H    -0.9958946    0.0149252   -2.9877699 
H     0.0277196    1.4707441   -2.9128365 
H     3.0940787   -0.4032886   -2.5357960 
H    -1.9860195    1.9855316    2.4712471 
H     2.6660015    3.7544778   -3.5311795 
H     1.5628939    4.2307049    3.3763190 
H     3.4973720    1.4749445   -4.0714098 
H    -0.6910766    3.3999362    4.0114083 
H     1.1017279    6.3427733   -1.5169686 
H     1.1446668    5.4284012   -3.0662787 
H     2.6613988    5.6592594   -2.1083434 
H     4.4831266    4.6770251    1.2728979 
H     3.8038522    4.0137980    2.8020269 
H     3.0367279    5.4514175    2.0177426 
