99
Energy =
C    -0.5422601   -3.5921882    0.1660887 
C    -1.8242242   -3.0693027    0.5183361 
C    -2.6967310   -2.5510396   -0.4596351 
H    -2.0823260   -2.9678124    1.5803880 
Pd   -0.6609263   -1.4303263   -0.3813201 
P    -1.4272450    0.8158879   -0.6428659 
P     1.5981497   -0.8428711   -0.4749769 
H    -0.4460487   -4.0597544   -0.8246639 
H    -2.5207084   -2.8627654   -1.5005383 
C     2.2719427   -4.9613690    3.1283952 
C     1.4332923   -3.8691059    3.4088749 
C     0.5123294   -3.4241529    2.4543080 
C     0.4071882   -4.0639036    1.1954960 
C     1.2475135   -5.1683433    0.9331362 
C     2.1717158   -5.6109820    1.8888121 
H     2.9959474   -5.3055175    3.8739081 
H     1.5055299   -3.3556194    4.3736110 
H    -0.1048161   -2.5441378    2.6683291 
H     1.1727059   -5.6831023   -0.0307554 
H     2.8142333   -6.4691130    1.6657670 
C    -6.6088567   -0.8728905    0.1678214 
C    -6.2233298   -1.3466132   -1.0950552 
C    -4.9494190   -1.8982169   -1.2776065 
C    -4.0330248   -1.9905474   -0.2025339 
C    -4.4437193   -1.5227320    1.0680877 
C    -5.7145964   -0.9680330    1.2482065 
H    -7.6027732   -0.4379122    0.3135627 
H    -6.9170315   -1.2876571   -1.9400102 
H    -4.6505277   -2.2621334   -2.2672966 
H    -3.7600656   -1.5778988    1.9205062 
H    -6.0124413   -0.6070911    2.2381691 
O     1.0226597    3.8166491    1.8428231 
O     3.0338226    3.4778919   -0.2196735 
C     2.8745623   -2.1679002   -0.0823436 
C     2.0591547   -0.0283111   -2.1065760 
C    -2.2527027    1.3792439    0.9645609 
C    -2.8592806    0.7990878   -1.8597913 
C     1.7165540    0.3512015    0.9330204 
C    -0.2371351    2.1439430   -1.1504906 
C     1.3392821    1.7122031    0.8419325 
C     0.9603909    2.3941812   -0.4314666 
C     1.3829278    2.5169901    2.0182049 
C     1.8908461    3.3424623   -0.9423415 
C     4.2891618   -1.6669508    0.2728919 
C     2.9218265   -3.2414171   -1.1837245 
C     1.7100231   -0.9242068   -3.3116171 
C     3.4840263    0.5459458   -2.1647303 
C    -2.2398052    2.9062540    1.1442247 
C    -1.7143359    0.6422967    2.2030955 
C    -3.7616307    2.0425489   -1.9669128 
C    -2.4598605    0.1964300   -3.2202858 
C     2.0475076   -0.1961976    2.1967950 
C    -0.4734618    2.8470915   -2.3535125 
C     1.7459360    1.9697877    3.2596748 
C     1.6353329    4.0371522   -2.1371691 
C     2.0619069    0.6075477    3.3380587 
C     0.4493073    3.7818548   -2.8327484 
C     1.1073110    4.7208217    2.9445708 
C     4.0001973    4.4512762   -0.6160358 
H     2.4391725   -2.6441869    0.8139318 
H     1.3563172    0.8146063   -2.1435039 
H    -3.2933730    1.0381286    0.7995586 
H    -3.4694343    0.0302534   -1.3530123 
H     4.8485127   -2.4956367    0.7426175 
H     4.8466340   -1.3559599   -0.6240486 
H     4.2790446   -0.8226156    0.9805750 
H     3.4902812   -2.8924902   -2.0617178 
H     1.9143784   -3.5416011   -1.5172898 
H     3.4302333   -4.1380667   -0.7906613 
H     0.6942394   -1.3478156   -3.2169063 
H     2.4204027   -1.7540251   -3.4479040 
H     1.7358992   -0.3093505   -4.2287131 
H     4.2400743   -0.2465483   -2.2900286 
H     3.5622637    1.2220350   -3.0351086 
H     3.7275891    1.1296091   -1.2612153 
H    -2.6459995    3.4345657    0.2666342 
H    -1.2165762    3.2785768    1.3138457 
H    -2.8565000    3.1764537    2.0208627 
H    -2.3637032    0.8578743    3.0705934 
H    -1.6956124   -0.4502802    2.0471806 
H    -0.6912604    0.9593706    2.4562237 
H    -4.6245915    1.7929425   -2.6101895 
H    -4.1645696    2.3367280   -0.9843304 
H    -3.2601581    2.9193801   -2.4067293 
H    -1.8801404   -0.7344391   -3.0833448 
H    -1.8520713    0.8805761   -3.8353311 
H    -3.3711136   -0.0495005   -3.7941613 
H     2.2917706   -1.2555738    2.2965804 
H    -1.3794205    2.6678023   -2.9295881 
H     1.7707195    2.5876040    4.1598886 
H     2.3523758    4.7612630   -2.5304022 
H     2.3274108    0.1694196    4.3056909 
H     0.2430549    4.3175322   -3.7649578 
H     0.8087916    5.7014502    2.5474949 
H     2.1407806    4.7766490    3.3340281 
H     0.4178205    4.4289698    3.7591293 
H     3.5640320    5.4675652   -0.6214543 
H     4.4176638    4.2203388   -1.6143432 
H     4.8010606    4.3977629    0.1351264 
