99
Energy =
C    -0.3848441   -3.4707761    0.6995643 
C    -1.5759603   -2.8005700    1.0558838 
C    -2.5513833   -2.4399855    0.0909469 
H    -1.7159691   -2.4778502    2.0946345 
Pd   -0.5629262   -1.3777637   -0.2939117 
P    -1.3062816    0.6508397   -1.2523567 
P     1.7341514   -0.8441701   -0.4476561 
H    -0.3845687   -4.0047314   -0.2615595 
H    -2.5735586   -3.0207126   -0.8428239 
C     2.5889459   -4.8828881    3.4743979 
C     1.6890184   -3.8791369    3.8706163 
C     0.7164348   -3.4111868    2.9823016 
C     0.6212027   -3.9339419    1.6704717 
C     1.5180098   -4.9624674    1.2961035 
C     2.4932120   -5.4291392    2.1855549 
H     3.3521006   -5.2442197    4.1711401 
H     1.7493257   -3.4567017    4.8790128 
H     0.0380602   -2.6161462    3.3064036 
H     1.4394185   -5.4045233    0.2974952 
H     3.1759199   -6.2264448    1.8742671 
C    -6.2986233   -0.5941120    1.1415038 
C    -5.1654147   -0.3800485    1.9441510 
C    -3.9433668   -0.9750175    1.6136425 
C    -3.8246472   -1.7970961    0.4672212 
C    -4.9784208   -2.0191135   -0.3185816 
C    -6.2012261   -1.4227440    0.0131902 
H    -7.2532566   -0.1247691    1.3999096 
H    -5.2346025    0.2595535    2.8305979 
H    -3.0638693   -0.7732833    2.2333971 
H    -4.9116748   -2.6703011   -1.1965889 
H    -7.0828302   -1.6090034   -0.6088750 
O     1.2061412    4.3463304   -0.0020639 
O     1.7881606    2.7837381    2.3454575 
C     2.7326521   -1.3137986    1.0715916 
C     2.5158169   -1.7938744   -1.8722731 
C    -3.1492940    0.7552758   -1.5850949 
C    -0.4128101    1.5044848   -2.6765520 
C     2.2291066    0.9209076   -0.7428512 
C    -0.9959609    1.6076176    0.2976451 
C     1.5157516    2.0192684   -0.1987667 
C     0.3183630    1.9601403    0.7037675 
C     1.9678510    3.3396437   -0.5072265 
C     0.5048722    2.4642170    2.0235577 
C     2.2248418   -0.5150329    2.2816437 
C     4.2514601   -1.1728059    0.8891453 
C     1.8627548   -1.4147419   -3.2103920 
C     2.4411354   -3.3082201   -1.6270489 
C    -3.5908944   -0.2337442   -2.6807133 
C    -3.7020648    2.1704317   -1.8329079 
C    -0.7783309    0.9101384   -4.0489022 
C    -0.5412949    3.0408191   -2.6639773 
C     3.3723731    1.1613710   -1.5424200 
C    -2.0764533    1.7806260    1.1937415 
C     3.0990103    3.5591050   -1.3086628 
C    -0.5735206    2.6079850    2.9122872 
C     3.8006777    2.4614472   -1.8161011 
C    -1.8625780    2.2768651    2.4814986 
C     1.5998108    5.7012476   -0.2174059 
C     2.0632997    3.4014666    3.6020048 
H     2.4822249   -2.3787708    1.2209326 
H     3.5831270   -1.5111981   -1.8938546 
H    -3.5667572    0.3759126   -0.6363480 
H     0.6390556    1.2514779   -2.4761555 
H     2.6601166   -0.9316367    3.2066546 
H     2.5162505    0.5458810    2.2058188 
H     1.1251179   -0.5616968    2.3681480 
H     4.5384077   -0.1257173    0.6890907 
H     4.6404220   -1.8057526    0.0734151 
H     4.7564018   -1.4896058    1.8193375 
H     0.7897862   -1.6763989   -3.2030842 
H     2.3443546   -1.9712624   -4.0337341 
H     1.9564563   -0.3385393   -3.4303362 
H     2.9518895   -3.8365188   -2.4513485 
H     2.9253835   -3.6074749   -0.6837278 
H     1.3932691   -3.6526256   -1.6061429 
H    -3.1246592   -1.2248285   -2.5501340 
H    -3.3484794    0.1306368   -3.6903578 
H    -4.6849993   -0.3624264   -2.6248934 
H    -3.4538648    2.5268961   -2.8461544 
H    -4.8033800    2.1450126   -1.7512543 
H    -3.3234433    2.9061749   -1.1042076 
H    -0.0239171    1.2299907   -4.7892375 
H    -0.7976484   -0.1921999   -4.0433189 
H    -1.7576536    1.2734412   -4.4007892 
H    -0.4365031    3.4658918   -1.6531861 
H    -1.5080309    3.3694191   -3.0762191 
H     0.2572954    3.4696024   -3.2954512 
H     3.9429689    0.3294661   -1.9585195 
H    -3.0923216    1.5200835    0.8942891 
H     3.4316885    4.5729223   -1.5417507 
H    -0.4180856    2.9890968    3.9239526 
H     4.6885156    2.6231723   -2.4357850 
H    -2.7117757    2.4068148    3.1605855 
H     0.8504623    6.3138443    0.3038799 
H     1.5968960    5.9548535   -1.2942820 
H     2.6014030    5.8984274    0.2082844 
H     1.8176219    2.7288722    4.4454412 
H     1.5055569    4.3504948    3.7090625 
H     3.1435949    3.6058104    3.6023448 
