99
Energy =
C    -0.5134621   -3.6395656    0.1487556 
C    -1.7852783   -3.0955025    0.5011554 
C    -2.6624124   -2.5938298   -0.4812674 
H    -2.0343125   -2.9717701    1.5629773 
Pd   -0.6239221   -1.4767264   -0.4421470 
P    -1.3956333    0.7621571   -0.6397923 
P     1.6425410   -0.9084555   -0.5756019 
H    -0.4376538   -4.1369283   -0.8289801 
H    -2.4882551   -2.9208174   -1.5179683 
C     2.3085187   -4.9588966    3.1261596 
C     1.5008561   -3.8358382    3.3725819 
C     0.5786919   -3.4063492    2.4119836 
C     0.4405785   -4.0934100    1.1820267 
C     1.2489745   -5.2292473    0.9546218 
C     2.1750258   -5.6557811    1.9153866 
H     3.0343392   -5.2906597    3.8755387 
H     1.5988681   -3.2850125    4.3141944 
H    -0.0121591   -2.5021001    2.5970206 
H     1.1472981   -5.7817012    0.0143326 
H     2.7924159   -6.5387333    1.7199453 
C    -6.5816297   -0.9287389    0.1303756 
C    -6.1904960   -1.4039141   -1.1302718 
C    -4.9137353   -1.9502964   -1.3077407 
C    -4.0001780   -2.0358101   -0.2295435 
C    -4.4164733   -1.5667560    1.0389113 
C    -5.6902201   -1.0170276    1.2137050 
H    -7.5779167   -0.4979163    0.2721797 
H    -6.8820614   -1.3501859   -1.9772968 
H    -4.6099447   -2.3147752   -2.2956788 
H    -3.7354675   -1.6178411    1.8937463 
H    -5.9928790   -0.6552619    2.2018764 
O     1.0702258    3.6635519    1.9230165 
O     2.9935920    3.5417659   -0.1469775 
C     2.8848342   -2.2864967   -0.2347637 
C     2.3219214   -0.2804400   -2.2317933 
C    -2.1787455    1.2798892    1.0066606 
C    -2.8683336    0.7914510   -1.8092896 
C     1.8316834    0.2578541    0.8474576 
C    -0.2228099    2.1155621   -1.1138514 
C     1.4228263    1.6137755    0.8143808 
C     0.9846131    2.3500240   -0.4103269 
C     1.4849162    2.3718246    2.0232287 
C     1.8310233    3.4174189   -0.8364663 
C     4.3352737   -1.7898998   -0.0873812 
C     2.7781161   -3.3843042   -1.3096352 
C     3.3245563    0.8900372   -2.1642965 
C     1.2489118   -0.0956542   -3.3138391 
C    -2.1672997    2.8017014    1.2259614 
C    -1.6063602    0.5149166    2.2123027 
C    -3.7979770    2.0197300   -1.8229943 
C    -2.5143365    0.2655924   -3.2123366 
C     2.2376733   -0.3198201    2.0750530 
C    -0.5494598    2.9357470   -2.2192605 
C     1.9140408    1.7924356    3.2282741 
C     1.4795008    4.2364504   -1.9217237 
C     2.2799003    0.4418534    3.2438156 
C     0.2878778    3.9827713   -2.6094612 
C     1.1801106    4.5264253    3.0547144 
C     3.8767171    4.6203908   -0.4515458 
H     2.5495419   -2.7297505    0.7179522 
H     2.8912222   -1.1826294   -2.5146389 
H    -3.2223101    0.9394171    0.8608602 
H    -3.4481025   -0.0110094   -1.3200513 
H     4.7293521   -1.4046240   -1.0437389 
H     4.4353398   -0.9960752    0.6708485 
H     4.9777835   -2.6353320    0.2174431 
H     3.2375705   -3.0733644   -2.2648931 
H     1.7324633   -3.6686776   -1.5102962 
H     3.3169944   -4.2823224   -0.9637621 
H     2.8254015    1.8376379   -2.4130407 
H     4.1263204    0.7275900   -2.9058388 
H     3.7922309    1.0061258   -1.1731598 
H     0.6265558    0.7912482   -3.1215476 
H     1.7406248    0.0439665   -4.2934163 
H     0.5907952   -0.9789503   -3.3856811 
H    -2.5872681    3.3521727    0.3688502 
H    -1.1428860    3.1721531    1.3909422 
H    -2.7723338    3.0460781    2.1182501 
H    -1.6147249   -0.5748523    2.0397635 
H    -0.5684442    0.8086761    2.4313039 
H    -2.2182965    0.7279675    3.1073073 
H    -3.3380712    2.9225511   -2.2553086 
H    -4.6862211    1.7731173   -2.4321132 
H    -4.1585179    2.2698976   -0.8123434 
H    -3.4450158    0.0542685   -3.7685236 
H    -1.9340459   -0.6719142   -3.1469701 
H    -1.9254576    0.9837327   -3.8069092 
H     2.5166813   -1.3729652    2.1278257 
H    -1.4649726    2.7619667   -2.7819497 
H     1.9523956    2.3782960    4.1490470 
H     2.1295656    5.0538989   -2.2411164 
H     2.6042361   -0.0215211    4.1812988 
H     0.0103058    4.6108653   -3.4620198 
H     2.2292413    4.6017501    3.3960692 
H     0.5409104    4.1812174    3.8891145 
H     0.8315225    5.5109563    2.7116435 
H     3.3787066    5.5974627   -0.3074565 
H     4.2588864    4.5478090   -1.4873029 
H     4.7150109    4.5263034    0.2534503 
