99
Energy =
C    -0.4634230   -3.7081548    0.0253682 
C    -1.6331171   -3.1601209    0.5893936 
C    -2.6150488   -2.5152047   -0.2232663 
H    -1.7414404   -3.1259922    1.6812449 
Pd   -0.6687324   -1.4268548   -0.3684280 
P    -1.3630702    0.6875092   -1.0774367 
P     1.5959244   -0.7545445   -0.0274497 
H    -0.4859463   -3.9270690   -1.0532700 
H    -2.7321767   -2.8813562   -1.2536320 
C     2.7301642   -5.7169500    2.0943805 
C     2.5368324   -5.9014984    0.7172505 
C     1.4863801   -5.2464075    0.0631919 
C     0.6049759   -4.3935580    0.7702345 
C     0.8049553   -4.2304226    2.1614313 
C     1.8568111   -4.8820310    2.8128010 
H     3.5524527   -6.2247004    2.6085476 
H     3.2046456   -6.5588747    0.1511205 
H     1.3417527   -5.3900706   -1.0137322 
H     0.1432163   -3.5773905    2.7382385 
H     1.9976750   -4.7402727    3.8894053 
C    -6.0910574   -0.5968737    1.4516052 
C    -4.8704904   -0.5689651    2.1475233 
C    -3.7399464   -1.1962798    1.6131869 
C    -3.8045826   -1.8691001    0.3690771 
C    -5.0413997   -1.9002033   -0.3121087 
C    -6.1721566   -1.2688266    0.2225987 
H    -6.9737108   -0.1007387    1.8677039 
H    -4.7980570   -0.0462189    3.1072471 
H    -2.7835959   -1.1290596    2.1442040 
H    -5.1136413   -2.4256872   -1.2703631 
H    -7.1218049   -1.3046167   -0.3213253 
O     1.2273707    4.4098525   -0.6230799 
O     1.9229346    3.3649824    1.9956341 
C     1.9841060   -0.8048465    1.8242918 
C     2.7097257   -2.1003972   -0.7200664 
C    -3.2057306    0.9813807   -1.3164065 
C    -0.4577636    1.2560240   -2.6252726 
C     2.1788202    0.8833593   -0.6716345 
C    -0.9117137    1.7222247    0.3882154 
C     1.5259430    2.0976453   -0.3358387 
C     0.3944781    2.2090741    0.6325842 
C     1.9442147    3.3058482   -0.9612603 
C     0.6486038    2.9143567    1.8455166 
C     0.7369267   -0.6042205    2.7024068 
C     3.1344089    0.1341881    2.2231882 
C     4.2030904   -2.0988251   -0.3435929 
C     2.4403832   -2.3672001   -2.2134203 
C    -3.7440922    0.1992616   -2.5273329 
C    -3.6605948    2.4544120   -1.3541290 
C    -0.6144582    0.2484971   -3.7814771 
C    -0.7332107    2.7102529   -3.0406396 
C     3.2300549    0.9091468   -1.6159458 
C    -1.9085265    1.8742953    1.3830497 
C     2.9962134    3.3129600   -1.8932593 
C    -0.3577605    3.0873374    2.8097995 
C     3.6321860    2.1087069   -2.2110843 
C    -1.6288539    2.5490969    2.5726306 
C     1.6089304    5.6800043   -1.1518851 
C     2.2592499    4.1425743    3.1449310 
H     2.3105184   -1.8564357    1.9441647 
H     2.2648740   -2.9508624   -0.1733118 
H    -3.6301452    0.5093453   -0.4127625 
H     0.5915539    1.1909592   -2.3083908 
H     0.9832090   -0.8450744    3.7522056 
H     0.3736393    0.4341695    2.6674882 
H    -0.0925255   -1.2584466    2.3823117 
H     2.8403513    1.1908877    2.1174855 
H     4.0359514   -0.0242729    1.6097822 
H     3.4041481   -0.0462118    3.2798388 
H     4.6582809   -3.0335824   -0.7175449 
H     4.3453562   -2.0839388    0.7490835 
H     4.7692405   -1.2568872   -0.7730236 
H     2.8556514   -1.5884027   -2.8743358 
H     2.8978828   -3.3302270   -2.5021784 
H     1.3552487   -2.4307385   -2.4121890 
H    -3.3505323   -0.8302067   -2.5678573 
H    -3.4961355    0.7047249   -3.4752623 
H    -4.8434320    0.1397033   -2.4573418 
H    -3.4315757    2.9250453   -2.3226142 
H    -4.7562802    2.4881799   -1.2177534 
H    -3.2024332    3.0643498   -0.5592384 
H     0.1422776    0.4750561   -4.5533951 
H    -0.4470533   -0.7877783   -3.4374703 
H    -1.6038114    0.2988127   -4.2614948 
H    -0.6759990    3.3993687   -2.1814630 
H    -1.7206974    2.8195540   -3.5181656 
H     0.0295665    3.0229847   -3.7761964 
H     3.7416156   -0.0091076   -1.8985253 
H    -2.9083482    1.4617237    1.2352064 
H     3.3131790    4.2402750   -2.3756281 
H    -0.1571680    3.6211594    3.7411717 
H     4.4512552    2.1048937   -2.9374650 
H    -2.4133749    2.6633606    3.3278098 
H     1.5116218    5.7023468   -2.2538181 
H     2.6456060    5.9366919   -0.8648527 
H     0.9130341    6.4070607   -0.7096128 
H     2.1383604    3.5576523    4.0762097 
H     1.6429569    5.0591591    3.1986724 
H     3.3168091    4.4152506    3.0197960 
