99
Energy =
C     0.2381134   -3.1032496   -0.9643839 
C    -1.1562846   -3.1686100   -0.7501531 
C    -2.0354551   -2.2766784   -1.4327861 
H    -1.5633361   -3.8455875    0.0114357 
Pd   -0.6333577   -1.1311646   -0.1252899 
P    -1.5168408    1.0313781   -0.4692708 
P     1.0776451   -0.4583816    1.3618851 
H     0.5734606   -2.5845005   -1.8752053 
H    -1.7031816   -1.9144304   -2.4172328 
C     3.2547801   -5.6768482    0.7000773 
C     3.5176757   -4.9018451   -0.4395131 
C     2.5206980   -4.0748353   -0.9691979 
C     1.2410891   -3.9989107   -0.3698832 
C     0.9839981   -4.8077012    0.7625140 
C     1.9806922   -5.6324239    1.2923138 
H     4.0332181   -6.3223103    1.1194313 
H     4.5010992   -4.9446254   -0.9188375 
H     2.7297927   -3.4732299   -1.8599444 
H     0.0000717   -4.7865804    1.2401047 
H     1.7643482   -6.2473861    2.1719624 
C    -6.3058963   -2.4259532   -0.9051529 
C    -5.4577416   -2.6447305    0.1941531 
C    -4.0695591   -2.5883285    0.0349904 
C    -3.4976850   -2.3121232   -1.2290943 
C    -4.3618009   -2.0895359   -2.3234567 
C    -5.7528495   -2.1492481   -2.1638101 
H    -7.3924035   -2.4691137   -0.7784614 
H    -5.8839498   -2.8527392    1.1811089 
H    -3.4169652   -2.7266991    0.9048507 
H    -3.9355997   -1.8823417   -3.3119508 
H    -6.4066833   -1.9813970   -3.0259675 
O     1.7611120    4.2898798   -0.6882639 
O     3.5012304    2.1336174   -1.4807072 
C     0.5118825   -0.9061589    3.0986149 
C     2.7382774   -1.3115382    1.1606814 
C    -1.5996234    2.3892618    0.8300814 
C    -3.0273335    1.1846286   -1.5831017 
C     1.5226480    1.3385272    1.4463845 
C    -0.0563443    1.3178200   -1.5809018 
C     1.5103015    2.1695778    0.2967799 
C     1.2192827    1.7080421   -1.0985746 
C     1.8354645    3.5492582    0.4489964 
C     2.3139691    1.7353423   -2.0120806 
C     0.3105998   -2.4277343    3.2001737 
C    -0.7735455   -0.1542405    3.4763905 
C     3.7180154   -1.0601077    2.3170868 
C     3.3502715   -0.9289913   -0.1948380 
C    -2.8154946    2.2461003    1.7672152 
C    -1.4706408    3.8147300    0.2613750 
C    -4.3419781    0.9320767   -0.8192477 
C    -3.1099614    2.4760853   -2.4197689 
C     1.8700661    1.8898745    2.7016940 
C    -0.1961789    0.9183500   -2.9345626 
C     2.1694284    4.0835338    1.7045422 
C     2.1566740    1.3486701   -3.3526405 
C     2.1894618    3.2445379    2.8239901 
C     0.8963160    0.9370791   -3.8023533 
C     2.1201518    5.6709042   -0.6496382 
C     4.6365135    2.2796650   -2.3331344 
H     1.3221738   -0.6157655    3.7914206 
H     2.4703302   -2.3832087    1.1383650 
H    -0.7012482    2.1779592    1.4289633 
H    -2.8860822    0.3263162   -2.2650279 
H    -0.0074927   -2.6902424    4.2246037 
H    -0.4797187   -2.7593146    2.5026114 
H     1.2280693   -2.9950724    2.9748878 
H    -1.0748886   -0.4219994    4.5045761 
H    -1.5958629   -0.4329739    2.7940488 
H    -0.6447705    0.9398496    3.4361642 
H     4.6548294   -1.6126629    2.1228373 
H     3.3266778   -1.4101562    3.2872328 
H     3.9711073    0.0109520    2.4052879 
H     2.6292479   -1.0579856   -1.0204340 
H     3.6813475    0.1231156   -0.1946172 
H     4.2266492   -1.5689486   -0.3986760 
H    -3.0219091    1.1979214    2.0381274 
H    -3.7272709    2.6715796    1.3203473 
H    -2.6136897    2.8027576    2.6991332 
H    -0.6850298    3.8920429   -0.5072988 
H    -2.4212267    4.1602918   -0.1758608 
H    -1.2088670    4.5055021    1.0828869 
H    -4.2661436    0.0913778   -0.1120589 
H    -4.6631992    1.8293648   -0.2682035 
H    -5.1346063    0.6844252   -1.5448926 
H    -3.8683368    2.3414338   -3.2120810 
H    -2.1548632    2.7394841   -2.9022446 
H    -3.4294497    3.3295704   -1.8010702 
H     1.8922423    1.2621324    3.5951667 
H    -1.1646034    0.5859597   -3.3153354 
H     2.4100382    5.1431807    1.8157030 
H     3.0026033    1.3638135   -4.0432752 
H     2.4547254    3.6552490    3.8034920 
H     0.7672185    0.6321796   -4.8459421 
H     1.4457593    6.2435503    0.0147822 
H     2.0114347    6.0349763   -1.6811814 
H     3.1673424    5.8016014   -0.3186565 
H     4.4376107    3.0098308   -3.1395969 
H     4.9366840    1.3106555   -2.7747676 
H     5.4455098    2.6525971   -1.6888457 
