99
Energy =
C    -0.5916606   -3.7338638   -0.1683800 
C    -1.6583729   -3.0855219    0.4692018 
C    -2.5924350   -2.2790510   -0.2599119 
H    -1.7527302   -3.1444474    1.5610699 
Pd   -0.6131312   -1.3037026   -0.3510092 
P    -1.3101031    0.8188374   -1.0519315 
P     1.6517981   -0.5861375    0.0542552 
H    -0.6247372   -3.7849906   -1.2672257 
H    -2.7776070   -2.5640208   -1.3056372 
C     2.1729395   -6.5127420    1.5896517 
C     2.0444537   -6.4107964    0.1964903 
C     1.1410438   -5.4973127   -0.3581392 
C     0.3460477   -4.6657845    0.4667991 
C     0.4722931   -4.7967854    1.8714620 
C     1.3785630   -5.7058279    2.4233967 
H     2.8819949   -7.2229812    2.0269096 
H     2.6491807   -7.0452684   -0.4594372 
H     1.0438514   -5.4227747   -1.4470013 
H    -0.1317306   -4.1746704    2.5383654 
H     1.4676131   -5.7894222    3.5114139 
C    -5.9052728   -0.3701799    1.7310059 
C    -4.6428285   -0.4067930    2.3467931 
C    -3.5647516   -1.0288030    1.7072547 
C    -3.7254724   -1.6291886    0.4357098 
C    -5.0040822   -1.5988107   -0.1636231 
C    -6.0822155   -0.9734522    0.4765025 
H    -6.7468577    0.1215888    2.2293418 
H    -4.4964506    0.0608931    3.3262570 
H    -2.5743244   -1.0156198    2.1772933 
H    -5.1512706   -2.0722317   -1.1401029 
H    -7.0657428   -0.9603706   -0.0045889 
O     1.2796105    4.5424388   -0.8076368 
O     2.0805370    3.5292344    1.8530611 
C     1.8198063   -0.2168164    1.8945701 
C     3.0143645   -1.7835929   -0.4640698 
C    -3.1493761    1.1640063   -1.2621330 
C    -0.4381788    1.3024353   -2.6493527 
C     2.2121189    1.0090170   -0.7424793 
C    -0.8207402    1.8925183    0.3708990 
C     1.5793719    2.2434347   -0.4448365 
C     0.4843954    2.3976621    0.5561701 
C     1.9737355    3.4215991   -1.1372876 
C     0.7956969    3.0970794    1.7582924 
C     3.2148685    0.2904393    2.2940773 
C     1.2792488   -1.3481302    2.7859131 
C     2.6395821   -2.3872730   -1.8320393 
C     3.3399208   -2.8751833    0.5677296 
C    -3.7346246    0.4130387   -2.4704114 
C    -3.5572222    2.6519093   -1.2834760 
C    -0.6046300    0.2188505   -3.7338683 
C    -0.7397497    2.7238506   -3.1505920 
C     3.2172211    0.9883669   -1.7380792 
C    -1.7751089    2.0371325    1.4091726 
C     2.9787231    3.3810836   -2.1181450 
C    -0.1665639    3.2589244    2.7677057 
C     3.5900720    2.1575438   -2.4090514 
C    -1.4451390    2.7139712    2.5842697 
C     1.6446479    5.7886043   -1.4016153 
C     2.4889075    4.2535390    3.0130645 
H     1.1122142    0.6231835    1.9977027 
H     3.9192713   -1.1600659   -0.5724236 
H    -3.5758519    0.7033982   -0.3541114 
H     0.6179917    1.2696084   -2.3538296 
H     3.1959032    0.6140254    3.3508220 
H     3.9864809   -0.4925990    2.2007652 
H     3.5139149    1.1575210    1.6826043 
H     1.9186380   -2.2440401    2.7829796 
H     0.2656918   -1.6468230    2.4642262 
H     1.2115473   -0.9855778    3.8271804 
H     2.3973324   -1.6154441   -2.5832533 
H     1.7578558   -3.0414161   -1.7314578 
H     3.4757752   -2.9953939   -2.2207123 
H     4.0689618   -3.5753638    0.1232029 
H     3.7942428   -2.4579291    1.4794740 
H     2.4557736   -3.4606460    0.8525925 
H    -3.3871823   -0.6317762   -2.5248546 
H    -3.4770532    0.9143296   -3.4182595 
H    -4.8347782    0.4006195   -2.3876785 
H    -3.3247119    3.1247741   -2.2497785 
H    -4.6499888    2.7165658   -1.1345996 
H    -3.0734916    3.2404294   -0.4880186 
H     0.1098353    0.4254061   -4.5505104 
H    -0.3789495   -0.7855666   -3.3319041 
H    -1.6139596    0.1983119   -4.1724802 
H    -0.6629522    3.4677690   -2.3400378 
H    -1.7414636    2.7961636   -3.6054503 
H    -0.0008988    2.9920225   -3.9269983 
H     3.7225685    0.0619553   -2.0112457 
H    -2.7772299    1.6156435    1.3070734 
H     3.2779765    4.2828209   -2.6569860 
H     0.0719502    3.7883886    3.6928109 
H     4.3713575    2.1131814   -3.1747274 
H    -2.1957431    2.8232529    3.3740167 
H     2.6962612    6.0455036   -1.1756813 
H     0.9772808    6.5383612   -0.9533706 
H     1.4934407    5.7708885   -2.4975726 
H     3.5460507    4.5066178    2.8492752 
H     2.3965299    3.6346671    3.9258130 
H     1.8999108    5.1817809    3.1333656 
