99
Energy =
C    -0.5562023   -3.4952950    0.1295626 
C    -1.8261752   -2.9537961    0.4988838 
C    -2.7080554   -2.4268612   -0.4639821 
H    -2.0646951   -2.8512288    1.5650291 
Pd   -0.6379811   -1.3306756   -0.3985390 
P    -1.3502827    0.9452804   -0.6055976 
P     1.6490114   -0.8130159   -0.5193903 
H    -0.4796479   -3.9655176   -0.8614914 
H    -2.5331578   -2.7205708   -1.5098321 
C     2.2431279   -4.9295989    3.0750629 
C     1.4379219   -3.8128241    3.3566212 
C     0.5221898   -3.3466107    2.4071528 
C     0.3897542   -3.9889884    1.1523153 
C     1.1964151   -5.1179685    0.8885587 
C     2.1149127   -5.5821621    1.8394423 
H     2.9629703   -5.2906353    3.8166283 
H     1.5325733   -3.2965289    4.3179461 
H    -0.0685412   -2.4485650    2.6209117 
H     1.0999485   -5.6344086   -0.0724744 
H     2.7309597   -6.4594033    1.6160726 
C    -6.6479489   -0.8252208    0.2042868 
C    -6.1973289   -1.1135000   -1.0929585 
C    -4.9151603   -1.6399018   -1.2888757 
C    -4.0482704   -1.8813844   -0.1957901 
C    -4.5279486   -1.6060630    1.1068555 
C    -5.8101957   -1.0832901    1.3024477 
H    -7.6505191   -0.4148973    0.3616144 
H    -6.8496301   -0.9354954   -1.9540841 
H    -4.5725823   -1.8707368   -2.3033021 
H    -3.8983257   -1.8051001    1.9793152 
H    -6.1607641   -0.8768374    2.3188651 
O     0.8883848    3.7336816    1.9106445 
O     3.1473819    3.4611808   -0.1165582 
C     2.8853956   -2.1840473   -0.1623513 
C     2.1211357    0.0078119   -2.1446961 
C    -1.9048834    1.5920962    1.1056870 
C    -2.8138465    1.0571682   -1.7743178 
C     1.8133336    0.3521951    0.9093419 
C    -0.1137379    2.1992296   -1.1679912 
C     1.3908018    1.7022499    0.8564010 
C     1.0642060    2.4183176   -0.4133548 
C     1.3425593    2.4600777    2.0588893 
C     2.0415222    3.3319467   -0.8956902 
C     4.3230900   -1.7355226    0.1721918 
C     2.8772657   -3.2483964   -1.2735961 
C     1.7039883   -0.8482768   -3.3567310 
C     3.5705041    0.5145956   -2.2185773 
C    -1.5791310    0.5662933    2.2069890 
C    -3.3831900    2.0142212    1.1883764 
C    -3.4258362    2.4529829   -2.0734523 
C    -2.5451171    0.2554326   -3.0645846 
C     2.1571287   -0.2158289    2.1606860 
C    -0.2728897    2.8608949   -2.4065648 
C     1.7099248    1.8930378    3.2904457 
C     1.8612003    3.9964868   -2.1214769 
C     2.1141508    0.5529365    3.3265127 
C     0.7051296    3.7466488   -2.8696601 
C     0.8812984    4.6071891    3.0405851 
C     4.1758583    4.3703501   -0.5110790 
H     2.4500229   -2.6529721    0.7375431 
H     1.4616227    0.8847283   -2.1560574 
H    -1.2727097    2.4860019    1.2521324 
H    -3.5519445    0.4793456   -1.1900246 
H     4.8545072   -2.5803620    0.6454780 
H     4.8822708   -1.4575667   -0.7343332 
H     4.3556371   -0.8829804    0.8692922 
H     1.8544788   -3.5137547   -1.5894824 
H     3.3654208   -4.1641035   -0.8991452 
H     3.4385020   -2.9089377   -2.1600065 
H     0.6621853   -1.2024154   -3.2562996 
H     2.3549192   -1.7228245   -3.5097174 
H     1.7632935   -0.2252005   -4.2668007 
H     4.2878912   -0.3087587   -2.3687981 
H     3.6656310    1.2014845   -3.0786739 
H     3.8544787    1.0706577   -1.3090521 
H    -0.5285988    0.2368502    2.1797959 
H    -2.2245192   -0.3232686    2.1131914 
H    -1.7683917    1.0179179    3.1972998 
H    -3.5996771    2.3227787    2.2271346 
H    -3.6218619    2.8662058    0.5358809 
H    -4.0648368    1.1814791    0.9460444 
H    -4.5214644    2.4128136   -1.9518028 
H    -3.0411844    3.2529395   -1.4216804 
H    -3.2244580    2.7574283   -3.1145707 
H    -2.1911619   -0.7655145   -2.8406408 
H    -1.7846016    0.7385362   -3.7020101 
H    -3.4768936    0.1774864   -3.6522737 
H     2.4458092   -1.2656619    2.2357092 
H    -1.1546367    2.6883158   -3.0209644 
H     1.6752431    2.4775927    4.2124498 
H     2.6147380    4.6904799   -2.5005667 
H     2.3932138    0.0989858    4.2830357 
H     0.5646502    4.2537321   -3.8297367 
H     0.1998013    4.2384825    3.8304384 
H     0.5176339    5.5748161    2.6666518 
H     1.8989769    4.7285931    3.4558000 
H     4.6236719    4.0739680   -1.4785001 
H     4.9398694    4.3149540    0.2773331 
H     3.7904710    5.4045961   -0.5813963 
