99
Energy =
C    -0.5694601   -3.7031738   -0.0105098 
C    -1.7045073   -3.1243908    0.5919728 
C    -2.7093448   -2.4797303   -0.1905987 
H    -1.7691647   -3.0730261    1.6865644 
Pd   -0.7435541   -1.4229808   -0.4284012 
P    -1.4309501    0.6947285   -1.1497670 
P     1.5205736   -0.7853757   -0.0890632 
H    -0.6366717   -3.9275607   -1.0863107 
H    -2.8787327   -2.8709246   -1.2042179 
C     2.6441951   -5.7827439    1.9528992 
C     2.4060881   -5.9572445    0.5814389 
C     1.3502666   -5.2779735   -0.0382463 
C     0.5079024   -4.4108903    0.6986653 
C     0.7522147   -4.2584302    2.0840950 
C     1.8097192   -4.9340667    2.7008380 
H     3.4707600   -6.3096587    2.4402220 
H     3.0434498   -6.6250925   -0.0070685 
H     1.1714572   -5.4123581   -1.1111864 
H     0.1202501   -3.5961502    2.6833879 
H     1.9854383   -4.8006434    3.7733545 
C    -6.0739273   -0.4804389    1.6124965 
C    -4.8144312   -0.4348018    2.2336254 
C    -3.7196302   -1.0868142    1.6558704 
C    -3.8603457   -1.8033624    0.4431942 
C    -5.1356090   -1.8520900   -0.1621383 
C    -6.2301357   -1.1953279    0.4150557 
H    -6.9287736    0.0350964    2.0618357 
H    -4.6826352    0.1221737    3.1674455 
H    -2.7328504   -1.0046381    2.1255650 
H    -5.2670962   -2.4125607   -1.0939222 
H    -7.2106157   -1.2452595   -0.0698536 
O     1.3379453    4.4081787   -0.5610983 
O     1.8699761    3.2941082    1.9839741 
C     1.8893118   -0.8322303    1.7692108 
C     2.6374969   -2.1457092   -0.7515742 
C    -3.2856716    0.9527881   -1.3773347 
C    -0.8219108    1.3163827   -2.8355154 
C     2.1324838    0.8499094   -0.7076257 
C    -0.9805072    1.7604742    0.2933159 
C     1.4976059    2.0707922   -0.3697083 
C     0.3367689    2.2071862    0.5619122 
C     2.0344261    3.2889394   -0.8846833 
C     0.5830849    2.8998650    1.7863739 
C     0.6393296   -0.6080516    2.6374050 
C     3.0517000    0.0886562    2.1751288 
C     4.1164859   -2.1824544   -0.3221600 
C     2.4195861   -2.4047677   -2.2535716 
C    -3.8188568    0.0525981   -2.5075759 
C    -3.6833189    2.4235839   -1.6025049 
C    -0.4180123    2.8030324   -2.9158685 
C     0.1849436    0.3788575   -3.5165721 
C     3.2692135    0.8715329   -1.5494026 
C    -1.9972954    1.9634318    1.2580372 
C     3.1774887    3.2934266   -1.7004157 
C    -0.4409386    3.1163453    2.7226133 
C     3.7841379    2.0768210   -2.0306300 
C    -1.7265341    2.6347744    2.4512975 
C     1.8304236    5.6829310   -0.9717665 
C     2.1987617    4.0672982    3.1378523 
H     2.1977282   -1.8881589    1.8965461 
H     2.1567673   -2.9885046   -0.2244002 
H    -3.7313361    0.5915087   -0.4353964 
H    -1.7693677    1.2049461   -3.3904741 
H     0.8804990   -0.8270237    3.6932574 
H     0.2778959    0.4300354    2.5788056 
H    -0.1898748   -1.2675524    2.3288011 
H     2.7729490    1.1495645    2.0729197 
H     3.9530361   -0.0799131    1.5642835 
H     3.3149764   -0.1004059    3.2319697 
H     4.7219038   -1.3598017   -0.7347734 
H     4.5559677   -3.1317567   -0.6778600 
H     4.2224432   -2.1683602    0.7745037 
H     2.8619189   -1.6248631   -2.8955588 
H     2.8845112   -3.3682148   -2.5288655 
H     1.3425737   -2.4640633   -2.4906302 
H    -3.5447530    0.4370756   -3.5062484 
H    -4.9203134    0.0248043   -2.4580917 
H    -3.4464618   -0.9814042   -2.4258766 
H    -3.3051428    3.0899302   -0.8101463 
H    -3.3134561    2.7974186   -2.5729383 
H    -4.7852067    2.5021343   -1.6170724 
H    -0.7631522    3.2240406   -3.8765062 
H    -0.8411088    3.4137788   -2.1018548 
H     0.6760989    2.9059913   -2.8790686 
H    -0.1663746   -0.6675408   -3.5066308 
H     1.1722181    0.4223749   -3.0326274 
H     0.3123824    0.6859476   -4.5702856 
H     3.7616077   -0.0568635   -1.8331831 
H    -3.0081050    1.5911480    1.0863111 
H     3.5855293    4.2289593   -2.0891181 
H    -0.2421582    3.6422586    3.6588027 
H     4.6701466    2.0703037   -2.6735886 
H    -2.5282111    2.7877112    3.1811928 
H     2.8397090    5.8727958   -0.5609185 
H     1.1226124    6.4198302   -0.5660919 
H     1.8566175    5.7682631   -2.0745772 
H     3.2706926    4.2938913    3.0470989 
H     2.0218921    3.4972677    4.0693787 
H     1.6203416    5.0094564    3.1625562 
