99
Energy =
C    -0.6480953   -3.7233546   -0.2211727 
C    -1.7441071   -3.1403872    0.4373566 
C    -2.7006156   -2.3470249   -0.2772166 
H    -1.8265081   -3.2156291    1.5294337 
Pd   -0.7312078   -1.3438345   -0.3601813 
P    -1.3675909    0.8038820   -1.0188999 
P     1.5142178   -0.6541193    0.1106703 
H    -0.6974871   -3.7644363   -1.3201408 
H    -2.8875435   -2.6223950   -1.3252324 
C     2.3573084   -6.3306773    1.4110112 
C     2.2145356   -6.1733022    0.0241550 
C     1.2265709   -5.3238471   -0.4858621 
C     0.3620406   -4.6063339    0.3760497 
C     0.4999831   -4.8021422    1.7717305 
C     1.4890085   -5.6485307    2.2805923 
H     3.1299241   -6.9933111    1.8140286 
H     2.8701743   -6.7194350   -0.6618916 
H     1.1125211   -5.2119715   -1.5691687 
H    -0.1720106   -4.2923645    2.4680360 
H     1.5805646   -5.7842654    3.3631768 
C    -5.9799749   -0.3781120    1.7107358 
C    -4.7230081   -0.4521607    2.3347598 
C    -3.6576302   -1.0989965    1.6988555 
C    -3.8248303   -1.6877805    0.4221914 
C    -5.0979600   -1.6187288   -0.1853121 
C    -6.1636632   -0.9687236    0.4513474 
H    -6.8115010    0.1333026    2.2061666 
H    -4.5710675    0.0056700    3.3180597 
H    -2.6705818   -1.1145124    2.1760226 
H    -5.2504397   -2.0800812   -1.1668492 
H    -7.1428764   -0.9260719   -0.0368252 
O     1.3774524    4.4470940   -0.8759104 
O     2.0772118    3.5640259    1.8020729 
C     1.5812699   -0.3217254    1.9688667 
C     2.6836703   -2.0763453   -0.2571571 
C    -3.2013410    1.1905744   -1.2026158 
C    -0.4881114    1.2809856   -2.6125543 
C     2.1832871    0.8895700   -0.6718309 
C    -0.8266018    1.8563352    0.3999894 
C     1.5839444    2.1539515   -0.4287381 
C     0.4838014    2.3619888    0.5577692 
C     2.0481655    3.2949813   -1.1377046 
C     0.8052478    3.0897025    1.7417777 
C     2.8452441    0.4009729    2.4631598 
C     1.2716958   -1.6017691    2.7589993 
C     4.1374910   -1.9662610    0.2383317 
C     2.5752831   -2.5334880   -1.7265339 
C    -3.8063384    0.4678702   -2.4186161 
C    -3.5802419    2.6852631   -1.1971755 
C    -0.6959476    0.2242347   -3.7160918 
C    -0.7422610    2.7202644   -3.0884776 
C     3.2358453    0.8029331   -1.6102832 
C    -1.7597847    1.9971858    1.4574374 
C     3.0982797    3.1897279   -2.0663108 
C    -0.1375220    3.2465748    2.7706171 
C     3.6849109    1.9397238   -2.2903887 
C    -1.4108072    2.6798850    2.6238285 
C     1.8190764    5.6638008   -1.4786449 
C     2.4911369    4.3119483    2.9449879 
H     0.7219545    0.3600454    2.1010056 
H     2.1898911   -2.8647586    0.3429933 
H    -3.6283426    0.7206898   -0.2987501 
H     0.5673674    1.2055947   -2.3179503 
H     2.6787719    0.7354370    3.5035140 
H     3.7263090   -0.2602394    2.4633888 
H     3.0744939    1.2915957    1.8573616 
H     2.0639343   -2.3633303    2.6586167 
H     0.3204750   -2.0485168    2.4242198 
H     1.1752058   -1.3582301    3.8318995 
H     4.1854831   -1.9081920    1.3366792 
H     4.6693476   -1.0920368   -0.1707246 
H     4.6894492   -2.8729603   -0.0677865 
H     3.0388015   -3.5292657   -1.8296186 
H     1.5203972   -2.6098391   -2.0439235 
H     3.0862568   -1.8549913   -2.4282520 
H    -3.4729837   -0.5806183   -2.4913194 
H    -3.5491140    0.9812215   -3.3601448 
H    -4.9057790    0.4680599   -2.3269108 
H    -3.3143472    3.1770761   -2.1454280 
H    -4.6748255    2.7686692   -1.0728026 
H    -3.1040221    3.2433782   -0.3756440 
H     0.0294260    0.4133454   -4.5272077 
H    -0.5161939   -0.7960545   -3.3316024 
H    -1.7039256    0.2561082   -4.1571606 
H    -0.6313122    3.4483858   -2.2677644 
H    -1.7449496    2.8339197   -3.5328927 
H    -0.0018300    2.9748605   -3.8681104 
H     3.7163416   -0.1517458   -1.8181355 
H    -2.7602724    1.5660641    1.3763967 
H     3.4544193    4.0647688   -2.6145766 
H     0.1135186    3.7906093    3.6838037 
H     4.5054391    1.8499733   -3.0096213 
H    -2.1431786    2.7820724    3.4313720 
H     2.8658322    5.8885883   -1.2017308 
H     1.1568070    6.4480730   -1.0852953 
H     1.7261886    5.6237312   -2.5804927 
H     1.8759953    5.2222261    3.0712575 
H     3.5351616    4.5967145    2.7518107 
H     2.4416023    3.6992406    3.8650959 
