99
Energy =
C    -0.5125789   -3.6259461    0.0545945 
C    -1.6590435   -3.0273299    0.6113590 
C    -2.6262591   -2.3656448   -0.2063469 
H    -1.7636660   -2.9689897    1.7022062 
Pd   -0.6593650   -1.3263204   -0.3688712 
P    -1.3348001    0.7962389   -1.1117548 
P     1.6195485   -0.6819915   -0.0223327 
H    -0.5389901   -3.8386808   -1.0246958 
H    -2.7632562   -2.7448889   -1.2293855 
C     2.5572085   -5.8152162    2.1327287 
C     2.4747325   -5.8424203    0.7321890 
C     1.4653302   -5.1288372    0.0754186 
C     0.5208781   -4.3622405    0.7999220 
C     0.6057217   -4.3647225    2.2125272 
C     1.6119321   -5.0808274    2.8685581 
H     3.3440175   -6.3734028    2.6500749 
H     3.1937923   -6.4278982    0.1500477 
H     1.4006914   -5.1619099   -1.0175337 
H    -0.1225270   -3.8072152    2.8092419 
H     1.6591309   -5.0686359    3.9623262 
C    -6.0402482   -0.3552415    1.4880460 
C    -4.8078095   -0.3361171    2.1628957 
C    -3.6974019   -0.9926505    1.6214158 
C    -3.7951263   -1.6864480    0.3910967 
C    -5.0436261   -1.7087868   -0.2687603 
C    -6.1539993   -1.0480282    0.2731157 
H    -6.9070486    0.1638492    1.9094771 
H    -4.7098445    0.2030800    3.1112034 
H    -2.7306026   -0.9326054    2.1341554 
H    -5.1411358   -2.2506629   -1.2155506 
H    -7.1133433   -1.0769376   -0.2539388 
O     1.3100204    4.4542819   -0.5810790 
O     2.0776514    3.1299028    2.0605640 
C     1.9370930   -0.4651030    1.8500606 
C     2.7714734   -2.0195971   -0.6577099 
C    -3.1740845    1.1051763   -1.3511176 
C    -0.4315730    1.3406367   -2.6694414 
C     2.1944999    0.9159600   -0.7524122 
C    -0.8693261    1.8338756    0.3488865 
C     1.5743682    2.1302840   -0.3711065 
C     0.4628269    2.2272917    0.6223024 
C     1.9749185    3.3437815   -0.9950058 
C     0.7651291    2.8226075    1.8780084 
C     2.9908806   -1.4193724    2.4411793 
C     0.6197807   -0.5675165    2.6411055 
C     4.3047971   -1.7950024   -0.5536090 
C     2.3491017   -2.4801217   -2.0681602 
C    -3.7249427    0.3078004   -2.5464139 
C    -3.6149715    2.5822759   -1.4138002 
C    -0.5793971    0.3068791   -3.8032362 
C    -0.7149375    2.7849529   -3.1126067 
C     3.1684124    0.9301005   -1.7763061 
C    -1.8634510    2.0248710    1.3398350 
C     2.9576513    3.3447188   -2.0004447 
C    -0.2341386    3.0290663    2.8435471 
C     3.5400414    2.1321599   -2.3866091 
C    -1.5444359    2.6241780    2.5609787 
C     1.6548628    5.7222825   -1.1405892 
C     2.4767224    3.8015813    3.2561203 
H     2.3168584    0.5697603    1.9212156 
H     2.4982253   -2.8337211    0.0367601 
H    -3.6003378    0.6543579   -0.4378501 
H     0.6178005    1.2901787   -2.3530321 
H     3.0545241   -1.2370216    3.5291948 
H     2.7132778   -2.4779707    2.3030927 
H     3.9947297   -1.2606596    2.0220595 
H     0.2380017   -1.6022426    2.6278689 
H    -0.1640529    0.0964604    2.2441536 
H     0.8010336   -0.2881285    3.6944750 
H     4.5827680   -0.9208077    0.0556281 
H     4.7515723   -1.6504788   -1.5518972 
H     4.7816381   -2.6845936   -0.1086632 
H     2.9162284   -3.3859737   -2.3464864 
H     1.2726865   -2.7194913   -2.1107349 
H     2.5488027   -1.7098184   -2.8329340 
H    -3.3455733   -0.7275213   -2.5678609 
H    -3.4706896    0.7915529   -3.5040536 
H    -4.8249884    0.2650242   -2.4748200 
H    -3.4067839    3.0259019   -2.3994674 
H    -4.7063439    2.6312717   -1.2503778 
H    -3.1302503    3.2080145   -0.6475235 
H     0.1631693    0.5347473   -4.5885138 
H    -0.3828082   -0.7172845   -3.4383543 
H    -1.5750782    0.3231930   -4.2726332 
H    -0.6600913    3.4891873   -2.2652485 
H    -1.7031708    2.8828729   -3.5908715 
H     0.0464565    3.0871662   -3.8538389 
H     3.6400428    0.0073684   -2.1093360 
H    -2.8894451    1.6932082    1.1712351 
H     3.2598158    4.2732257   -2.4900418 
H    -0.0010100    3.4893608    3.8062352 
H     4.2984017    2.1259770   -3.1762242 
H    -2.3285217    2.7723161    3.3107976 
H     2.7144121    5.9712901   -0.9446760 
H     1.0057649    6.4545174   -0.6396744 
H     1.4630394    5.7451906   -2.2300522 
H     1.9569746    4.7720794    3.3596812 
H     3.5582059    3.9711298    3.1556494 
H     2.2834308    3.1798374    4.1507493 
