99
Energy =
C    -0.4358698   -3.6096392    0.0837733 
C    -1.7380477   -3.1320503    0.4254322 
C    -2.6102275   -2.6186302   -0.5554865 
H    -2.0157499   -3.0605682    1.4849807 
Pd   -0.6105488   -1.4406044   -0.4219712 
P    -1.4398073    0.7854503   -0.6521724 
P     1.6308928   -0.7844718   -0.4660884 
H    -0.3097037   -4.0527536   -0.9148151 
H    -2.4090467   -2.9030036   -1.5996574 
C     2.3743763   -4.9526055    3.0616578 
C     1.4969966   -3.8937597    3.3514894 
C     0.5766468   -3.4581830    2.3920385 
C     0.5112189   -4.0739044    1.1186403 
C     1.3897293   -5.1459071    0.8470597 
C     2.3130969   -5.5791716    1.8077738 
H     3.0983273   -5.2887430    3.8108385 
H     1.5382054   -3.3987862    4.3276410 
H    -0.0715325   -2.6029664    2.6146291 
H     1.3456901   -5.6424133   -0.1282007 
H     2.9856215   -6.4119603    1.5773413 
C    -6.5818161   -1.0754527    0.0452299 
C    -5.7022744   -1.1683657    1.1377504 
C    -4.4121017   -1.6794844    0.9660789 
C    -3.9671108   -2.1051589   -0.3078013 
C    -4.8693482   -2.0171837   -1.3951448 
C    -6.1623219   -1.5089008   -1.2212349 
H    -7.5902808   -0.6729339    0.1840078 
H    -6.0268742   -0.8402604    2.1306984 
H    -3.7410100   -1.7342744    1.8284111 
H    -4.5445280   -2.3506376   -2.3873931 
H    -6.8444573   -1.4527134   -2.0757202 
O     0.8725787    3.8041035    1.9389199 
O     2.9293651    3.5722396   -0.0943667 
C     2.9407206   -2.0784088   -0.0791041 
C     2.0936228    0.0779270   -2.0724939 
C    -2.3104753    1.2905770    0.9509462 
C    -2.8489955    0.7505936   -1.8951857 
C     1.6900240    0.3824245    0.9683112 
C    -0.2821457    2.1591595   -1.1113415 
C     1.2724648    1.7329079    0.8993523 
C     0.8944083    2.4304425   -0.3658634 
C     1.2703658    2.5127452    2.0930795 
C     1.8033882    3.4181123   -0.8395600 
C     4.3333796   -1.5423898    0.3098680 
C     3.0385986   -3.1271256   -1.2007745 
C     1.7930055   -0.8028838   -3.3014213 
C     3.5006098    0.6968884   -2.0938401 
C    -2.3483182    2.8132195    1.1612638 
C    -1.7715749    0.5453216    2.1842241 
C    -3.7870796    1.9680326   -1.9936582 
C    -2.4072671    0.1883781   -3.2598975 
C     2.0163409   -0.1817446    2.2258891 
C    -0.5195635    2.8807600   -2.3031450 
C     1.6284719    1.9500631    3.3290038 
C     1.5462575    4.1313862   -2.0230244 
C     1.9859326    0.5970113    3.3840079 
C     0.3809672    3.8547521   -2.7450507 
C     0.9099885    4.6862710    3.0609396 
C     3.8718047    4.5830887   -0.4526869 
H     2.5057382   -2.5859829    0.8000197 
H     1.3654195    0.8992494   -2.1043850 
H    -3.3369396    0.9210923    0.7601044 
H    -3.4440763   -0.0466633   -1.4151362 
H     4.9099863   -2.3632774    0.7723223 
H     4.8956298   -1.1963445   -0.5710702 
H     4.2859715   -0.7134459    1.0339794 
H     3.6102606   -2.7432662   -2.0619176 
H     2.0463829   -3.4507450   -1.5572368 
H     3.5677411   -4.0159245   -0.8173575 
H     0.7898047   -1.2601836   -3.2329101 
H     2.5315188   -1.6069702   -3.4424830 
H     1.8144169   -0.1684231   -4.2051643 
H     4.2828971   -0.0690864   -2.2227848 
H     3.5722882    1.3937837   -2.9482030 
H     3.7107976    1.2680371   -1.1741468 
H    -2.7550064    3.3467827    0.2870927 
H    -1.3403569    3.2132361    1.3572478 
H    -2.9886415    3.0463186    2.0315774 
H    -0.7641606    0.8896337    2.4631536 
H    -2.4433492    0.7217868    3.0434522 
H    -1.7145985   -0.5425894    2.0064329 
H    -4.6304361    1.7059573   -2.6576296 
H    -4.2162127    2.2291572   -1.0128777 
H    -3.3050598    2.8686946   -2.4061420 
H    -1.8013434   -0.7267913   -3.1309432 
H    -1.8104107    0.9032607   -3.8501242 
H    -3.3002626   -0.0737580   -3.8548594 
H     2.2917986   -1.2349266    2.3075741 
H    -1.4086785    2.6851817   -2.8997573 
H     1.6174187    2.5483809    4.2425340 
H     2.2466220    4.8862262   -2.3874305 
H     2.2491562    0.1465281    4.3465607 
H     0.1736306    4.4047646   -3.6686053 
H     0.5881758    5.6656845    2.6794135 
H     1.9342957    4.7651859    3.4700706 
H     0.2158382    4.3557807    3.8565303 
H     3.4048805    5.5855643   -0.4431831 
H     4.3123404    4.3873478   -1.4485639 
H     4.6615029    4.5369280    0.3106684 
