99
Energy =
C    -0.5931670   -3.4897505    0.1165794 
C    -1.8517916   -2.9360533    0.5057187 
C    -2.7403008   -2.3925948   -0.4417766 
H    -2.0749688   -2.8374765    1.5755548 
Pd   -0.6567468   -1.3205807   -0.3975757 
P    -1.3463939    0.9637749   -0.5877241 
P     1.6341095   -0.8278798   -0.5422223 
H    -0.5344579   -3.9539580   -0.8785083 
H    -2.5830136   -2.6812041   -1.4918421 
C     2.2268282   -4.9751659    3.0166581 
C     1.4380444   -3.8512505    3.3157810 
C     0.5156962   -3.3684190    2.3811345 
C     0.3599061   -4.0009737    1.1240020 
C     1.1499097   -5.1374636    0.8427648 
C     2.0751849   -5.6182304    1.7787260 
H     2.9521749   -5.3490070    3.7464196 
H     1.5508366   -3.3424390    4.2791314 
H    -0.0619155   -2.4650849    2.6082469 
H     1.0349926   -5.6467132   -0.1200723 
H     2.6781294   -6.5010224    1.5418869 
C    -6.6534793   -0.7541645    0.2919841 
C    -6.2224290   -1.0344323   -1.0136359 
C    -4.9486286   -1.5726368   -1.2309849 
C    -4.0706486   -1.8342610   -0.1514632 
C    -4.5308022   -1.5665059    1.1597940 
C    -5.8047285   -1.0319796    1.3767864 
H    -7.6494400   -0.3346219    0.4660624 
H    -6.8836162   -0.8410630   -1.8646113 
H    -4.6216609   -1.7976282   -2.2518637 
H    -3.8926365   -1.7811052    2.0223096 
H    -6.1401248   -0.8318321    2.3995645 
O     0.9474054    3.7139538    1.9191174 
O     3.1828353    3.4288029   -0.1326568 
C     2.8600437   -2.2135248   -0.2057826 
C     2.0967842   -0.0039003   -2.1686668 
C    -1.8776154    1.6084021    1.1316163 
C    -2.8199945    1.0958248   -1.7416088 
C     1.8262511    0.3283543    0.8905302 
C    -0.1021688    2.2070317   -1.1568344 
C     1.4175936    1.6830869    0.8490944 
C     1.0858147    2.4094594   -0.4134163 
C     1.3896955    2.4349119    2.0559700 
C     2.0677663    3.3152578   -0.9010443 
C     4.3057470   -1.7812998    0.1154511 
C     2.8290385   -3.2716732   -1.3225730 
C     1.6571821   -0.8493499   -3.3802244 
C     3.5504297    0.4882060   -2.2564341 
C    -1.5500260    0.5748961    2.2251944 
C    -3.3513276    2.0428694    1.2312386 
C    -3.4204584    2.4989052   -2.0294570 
C    -2.5725521    0.2966794   -3.0377254 
C     2.1769314   -0.2499391    2.1352461 
C    -0.2671217    2.8769767   -2.3901779 
C     1.7638229    1.8574754    3.2806485 
C     1.8818959    3.9881384   -2.1214426 
C     2.1542073    0.5130208    3.3054773 
C     0.7155611    3.7545772   -2.8588710 
C     0.9632476    4.5820673    3.0531241 
C     4.2168720    4.3289847   -0.5332144 
H     2.4297204   -2.6829354    0.6962764 
H     1.4463972    0.8798432   -2.1681687 
H    -1.2360086    2.4960268    1.2754133 
H    -3.5583090    0.5236287   -1.1520746 
H     4.8337334   -2.6339843    0.5783930 
H     4.8577989   -1.5040205   -0.7956312 
H     4.3544382   -0.9329467    0.8166817 
H     3.3841786   -2.9331721   -2.2131850 
H     1.8002282   -3.5248755   -1.6287681 
H     3.3117036   -4.1943516   -0.9582696 
H     0.6131393   -1.1937129   -3.2696797 
H     2.2975638   -1.7294704   -3.5452444 
H     1.7122581   -0.2220549   -4.2876684 
H     4.2574852   -0.3417550   -2.4187984 
H     3.6429994    1.1783942   -3.1141677 
H     3.8504555    1.0367258   -1.3474560 
H    -0.5030827    0.2354598    2.1855771 
H    -2.2049588   -0.3079575    2.1344362 
H    -1.7245000    1.0241450    3.2192811 
H    -4.0425498    1.2167843    0.9931937 
H    -3.5543059    2.3494225    2.2733043 
H    -3.5896120    2.8991964    0.5843149 
H    -3.0252983    3.2914564   -1.3749333 
H    -3.2218778    2.8077896   -3.0697916 
H    -4.5157901    2.4677616   -1.9022972 
H    -2.2278373   -0.7291041   -2.8216027 
H    -1.8128352    0.7741646   -3.6803221 
H    -3.5106754    0.2316679   -3.6168697 
H     2.4553253   -1.3031280    2.2016820 
H    -1.1571175    2.7172819   -2.9960934 
H     1.7448597    2.4373978    4.2060297 
H     2.6388949    4.6759919   -2.5048029 
H     2.4384154    0.0510856    4.2566493 
H     0.5706710    4.2681077   -3.8148556 
H     0.2864224    4.2175658    3.8489209 
H     0.6067407    5.5556491    2.6878607 
H     1.9868995    4.6895662    3.4573295 
H     4.6515080    4.0328146   -1.5066941 
H     4.9883001    4.2614343    0.2469860 
H     3.8418989    5.3676353   -0.5943590 
