99
Energy =
C    -0.4802767   -3.7501920   -0.1431067 
C    -1.5683513   -3.1291192    0.4853559 
C    -2.5221307   -2.3548893   -0.2531929 
H    -1.6660830   -3.1837598    1.5771747 
Pd   -0.5724940   -1.3224386   -0.3427357 
P    -1.3291253    0.7720043   -1.0656331 
P     1.6690300   -0.5361375    0.0651589 
H    -0.5064727   -3.8089461   -1.2417131 
H    -2.6947252   -2.6524644   -1.2975443 
C     2.3509802   -6.4407295    1.6457085 
C     2.2261030   -6.3515522    0.2513414 
C     1.3013917   -5.4659769   -0.3133748 
C     0.4802272   -4.6511113    0.5025007 
C     0.6043761   -4.7684623    1.9085654 
C     1.5322458   -5.6491248    2.4705349 
H     3.0765906   -7.1290218    2.0908412 
H     2.8502481   -6.9742562   -0.3976358 
H     1.2072171   -5.4012233   -1.4031314 
H    -0.0188966   -4.1580959    2.5685571 
H     1.6189721   -5.7227166    3.5594678 
C    -5.8972700   -0.5291339    1.7109985 
C    -4.6363209   -0.5225913    2.3308745 
C    -3.5381745   -1.1181332    1.7003324 
C    -3.6766703   -1.7338745    0.4335468 
C    -4.9536092   -1.7468968   -0.1699667 
C    -6.0519878   -1.1483300    0.4613130 
H    -6.7547752   -0.0582894    2.2023578 
H    -4.5070765   -0.0418832    3.3064456 
H    -2.5501236   -1.0712436    2.1732270 
H    -5.0833067   -2.2326972   -1.1428319 
H    -7.0338658   -1.1687209   -0.0228918 
O     1.1469569    4.5730335   -0.8309312 
O     1.9637545    3.5988914    1.8401504 
C     1.8207825   -0.1489077    1.9031601 
C     3.0676362   -1.6968382   -0.4402617 
C    -3.1767827    1.0597344   -1.2886709 
C    -0.4628250    1.2690717   -2.6618828 
C     2.1852777    1.0698220   -0.7392403 
C    -0.8805501    1.8707911    0.3514207 
C     1.5135943    2.2861657   -0.4526952 
C     0.4085737    2.4140556    0.5410771 
C     1.8770221    3.4718759   -1.1492207 
C     0.6920224    3.1305537    1.7400462 
C     3.2000082    0.3995956    2.3030686 
C     1.3094870   -1.2885476    2.8010775 
C     2.7169952   -2.3185281   -1.8066350 
C     3.4190105   -2.7730084    0.5993311 
C    -3.7331556    0.2806104   -2.4927599 
C    -3.6293551    2.5344366   -1.3254608 
C    -0.5897012    0.1723944   -3.7385838 
C    -0.8042002    2.6767261   -3.1762777 
C     3.1971839    1.0740192   -1.7281116 
C    -1.8458495    1.9971084    1.3819010 
C     2.8903301    3.4566255   -2.1222160 
C    -0.2813560    3.2734307    2.7416358 
C     3.5401256    2.2504949   -2.4023011 
C    -1.5430937    2.6920233    2.5537495 
C     1.4803859    5.8269536   -1.4271409 
C     2.3433635    4.3442203    2.9965980 
H     1.0897967    0.6718745    1.9977987 
H     3.9550454   -1.0484907   -0.5479555 
H    -3.5939634    0.5947134   -0.3785848 
H     0.5920710    1.2706675   -2.3600692 
H     3.1685835    0.7309744    3.3571097 
H     3.9930599   -0.3627475    2.2185530 
H     3.4772498    1.2696653    1.6856114 
H     1.9750746   -2.1651895    2.8079149 
H     0.3066547   -1.6195031    2.4773790 
H     1.2264335   -0.9201763    3.8391854 
H     2.4557772   -1.5581045   -2.5631181 
H     1.8544171   -2.9977944   -1.7065379 
H     3.5725519   -2.9037577   -2.1882740 
H     4.1680966   -3.4560159    0.1614441 
H     3.8589440   -2.3379360    1.5097936 
H     2.5500772   -3.3802932    0.8851248 
H    -3.3545695   -0.7538413   -2.5357303 
H    -3.4856878    0.7806602   -3.4439459 
H    -4.8328852    0.2363520   -2.4153179 
H    -3.4087642    3.0045875   -2.2958766 
H    -4.7239480    2.5674403   -1.1797526 
H    -3.1657861    3.1452012   -0.5347501 
H     0.1219399    0.3950066   -4.5534707 
H    -0.3345280   -0.8212479   -3.3275892 
H    -1.5956934    0.1166257   -4.1818387 
H    -0.7541529    3.4291234   -2.3714800 
H    -1.8052112    2.7152010   -3.6367114 
H    -0.0696113    2.9607261   -3.9510873 
H     3.7316536    0.1616388   -1.9929699 
H    -2.8350107    1.5469577    1.2764920 
H     3.1664602    4.3642286   -2.6635633 
H    -0.0640570    3.8165451    3.6640564 
H     4.3283233    2.2257771   -3.1617523 
H    -2.3021444    2.7869112    3.3372569 
H     1.3400359    5.8002426   -2.5243579 
H     2.5217829    6.1158885   -1.1926878 
H     0.7869440    6.5584797   -0.9884433 
H     2.2615056    3.7309590    3.9141287 
H     1.7279733    5.2567325    3.1045251 
H     3.3942742    4.6251217    2.8381206 
