99
Energy =
C    -0.5460105   -3.4768933    0.1902235 
C    -1.8658528   -2.9701680    0.3868366 
C    -2.6547375   -2.5335965   -0.6934723 
H    -2.2370527   -2.8370519    1.4112405 
Pd   -0.6466142   -1.3425727   -0.4642325 
P    -1.3460510    0.9214799   -0.8701831 
P     1.6276452   -0.7889086   -0.3129466 
H    -0.3395284   -3.9761403   -0.7676998 
H    -2.3685216   -2.8870071   -1.6955477 
C     1.8896960   -4.7719290    3.4998986 
C     1.0378377   -3.6640833    3.6472183 
C     0.2408313   -3.2408894    2.5780798 
C     0.2781767   -3.9172801    1.3351285 
C     1.1276124   -5.0383094    1.2067442 
C     1.9266055   -5.4599408    2.2776169 
H     2.5169788   -5.0991518    4.3352532 
H     1.0025037   -3.1218120    4.5981171 
H    -0.3878512   -2.3506297    2.6916882 
H     1.1588173   -5.5829290    0.2570344 
H     2.5785739   -6.3315191    2.1582665 
C    -6.7498488   -1.2598110   -0.3977951 
C    -5.8891012   -1.0874464    0.7005761 
C    -4.5529602   -1.4909515    0.6203982 
C    -4.0450979   -2.0696677   -0.5669248 
C    -4.9224446   -2.2380406   -1.6629037 
C    -6.2629868   -1.8418658   -1.5774291 
H    -7.7953204   -0.9422456   -0.3312399 
H    -6.2645017   -0.6332239    1.6234306 
H    -3.8923318   -1.3350451    1.4792242 
H    -4.5456963   -2.6886912   -2.5878857 
H    -6.9282562   -1.9846021   -2.4350573 
O     0.8970899    3.9497730    1.7802703 
O     3.1460789    3.4576428    0.0075814 
C     2.8421155   -2.1084174    0.2597416 
C     2.2865948   -0.0581836   -1.9182654 
C    -2.2611270    1.5264249    0.6664442 
C    -2.5958399    1.1924114   -2.2751927 
C     1.6179659    0.4445971    1.0686955 
C    -0.0165491    2.1683292   -1.3030427 
C     1.2769168    1.8060207    0.8976644 
C     1.0775224    2.4346556   -0.4393324 
C     1.2177621    2.6543294    2.0404862 
C     2.1189776    3.3066241   -0.8695152 
C     4.2119558   -1.6040146    0.7600529 
C     3.0107606   -3.2144029   -0.7963079 
C     1.9984939   -0.9838178   -3.1176365 
C     3.7400793    0.4384202   -1.8626119 
C    -2.3109464    3.0592469    0.7565686 
C    -1.8190353    0.8506345    1.9744669 
C    -2.2960692    0.1901629   -3.4052341 
C    -4.0773840    1.1895900   -1.8643708 
C     1.8107982   -0.0622225    2.3774335 
C    -0.0128417    2.7610808   -2.5895016 
C     1.4506788    2.1483715    3.3297883 
C     2.0860279    3.9053559   -2.1393088 
C     1.7306187    0.7842885    3.4849645 
C     1.0178015    3.6154781   -2.9922824 
C     0.8944577    4.8964154    2.8491340 
C     4.2112510    4.3535125   -0.3113157 
H     2.3076779   -2.5559721    1.1152781 
H     1.6408393    0.8171669   -2.0566979 
H    -3.2741631    1.1439359    0.4461227 
H    -2.3904643    2.2119955   -2.6381294 
H     4.6965569   -2.4162058    1.3308136 
H     4.8789505   -1.3413982   -0.0750600 
H     4.1311338   -0.7280943    1.4230032 
H     3.6708412   -2.8892729   -1.6175321 
H     2.0471399   -3.5310098   -1.2290093 
H     3.4757072   -4.0957146   -0.3229417 
H     2.1557088   -0.4124740   -4.0497294 
H     0.9512541   -1.3362002   -3.1085629 
H     2.6594530   -1.8634764   -3.1517822 
H     3.9296393    1.0458823   -0.9618348 
H     4.4612359   -0.3948459   -1.8866706 
H     3.9339878    1.0731931   -2.7457796 
H    -2.6891413    3.5139835   -0.1754236 
H    -1.3113538    3.4793676    0.9564489 
H    -2.9854264    3.3610752    1.5786219 
H    -1.7384260   -0.2441950    1.8508674 
H    -0.8471680    1.2181288    2.3311615 
H    -2.5695051    1.0554844    2.7591627 
H    -1.2331047    0.2103682   -3.7048644 
H    -2.5352004   -0.8384518   -3.0856111 
H    -2.9073330    0.4235476   -4.2950964 
H    -4.6899749    1.2776910   -2.7792361 
H    -4.3271695    2.0483401   -1.2204519 
H    -4.3819787    0.2666272   -1.3540026 
H     2.0252161   -1.1202376    2.5388925 
H    -0.8028416    2.5564321   -3.3113454 
H     1.4003608    2.7975349    4.2066357 
H     2.8873245    4.5688319   -2.4717730 
H     1.8932369    0.3780536    4.4886347 
H     0.9886060    4.0588094   -3.9928425 
H     0.1265542    4.6474583    3.6057731 
H     0.6524450    5.8646013    2.3882247 
H     1.8876927    4.9527188    3.3320483 
H     4.8883418    4.3296673    0.5544076 
H     3.8363225    5.3831564   -0.4606296 
H     4.7583575    4.0221134   -1.2141221 
