99
Energy =
C    -0.6090571   -3.5829650    0.0983004 
C    -1.8774120   -3.0438196    0.4743756 
C    -2.7489532   -2.4889475   -0.4841750 
H    -2.1238184   -2.9602523    1.5407665 
Pd   -0.6923497   -1.4079893   -0.4021418 
P    -1.4181721    0.8571436   -0.6077237 
P     1.5765291   -0.8620636   -0.5077548 
H    -0.5315262   -4.0307087   -0.9031589 
H    -2.5882770   -2.7823847   -1.5329004 
C     2.2078729   -5.0679998    3.0014544 
C     1.3926135   -3.9667672    3.3140337 
C     0.4707857   -3.4842048    2.3787615 
C     0.3412941   -4.0944131    1.1076285 
C     1.1580191   -5.2083694    0.8129767 
C     2.0830445   -5.6887835    1.7494070 
H     2.9327810   -5.4414691    3.7318202 
H     1.4837759   -3.4759934    4.2889263 
H    -0.1278272   -2.5979065    2.6180547 
H     1.0642380   -5.7004913   -0.1610230 
H     2.7068578   -6.5538597    1.5015184 
C    -6.6267227   -0.7608113    0.2161644 
C    -6.2621241   -1.2170541   -1.0593006 
C    -4.9988658   -1.7844261   -1.2659435 
C    -4.0726422   -1.9104871   -0.2028220 
C    -4.4619563   -1.4590029    1.0803875 
C    -5.7223145   -0.8888463    1.2846578 
H    -7.6121269   -0.3133517    0.3806842 
H    -6.9640353   -1.1324754   -1.8952436 
H    -4.7164598   -2.1352382   -2.2651323 
H    -3.7696528   -1.5393234    1.9238054 
H    -6.0040126   -0.5417653    2.2842548 
O     1.1198678    3.7619071    1.9057316 
O     3.0995719    3.4227355   -0.1876404 
C     2.8317181   -2.2183934   -0.1550507 
C     2.0355120   -0.0244308   -2.1282860 
C    -2.2123412    1.4028782    1.0214567 
C    -2.8660220    0.8937538   -1.8053412 
C     1.7330598    0.3015065    0.9218714 
C    -0.2082034    2.1717080   -1.1036533 
C     1.3822786    1.6712255    0.8612638 
C     1.0023661    2.3847468   -0.3944503 
C     1.4551723    2.4520398    2.0521726 
C     1.9456105    3.3238907   -0.8987140 
C     4.2589101   -1.7512187    0.1956279 
C     2.8479228   -3.2696039   -1.2786541 
C     1.6538715   -0.8884636   -3.3466372 
C     3.4711033    0.5217795   -2.1921154 
C    -2.1668989    2.9252060    1.2326223 
C    -1.6740312    0.6296220    2.2376282 
C    -3.7432400    2.1575909   -1.8759448 
C    -2.4972871    0.3098818   -3.1825386 
C     2.0659294   -0.2771065    2.1711771 
C    -0.4442597    2.9018457   -2.2905720 
C     1.8201867    1.8735126    3.2787707 
C     1.6901442    4.0459206   -2.0772423 
C     2.1087260    0.5038117    3.3275018 
C     0.4913982    3.8270255   -2.7633704 
C     1.2332102    4.6423318    3.0240305 
C     4.0807775    4.3837513   -0.5777549 
H     2.3963799   -2.7048405    0.7357922 
H     1.3498498    0.8332148   -2.1399631 
H    -3.2615744    1.0859741    0.8624242 
H    -3.4852794    0.1277186   -1.3053616 
H     4.8075520   -2.6000067    0.6415040 
H     4.8127917   -1.4310661   -0.7002846 
H     4.2716879   -0.9223743    0.9213019 
H     3.4143111   -2.9132257   -2.1550087 
H     1.8317640   -3.5439553   -1.6080670 
H     3.3430883   -4.1835762   -0.9093035 
H     0.6298886   -1.2912264   -3.2490248 
H     2.3440175   -1.7309336   -3.5069058 
H     1.6837124   -0.2562925   -4.2517673 
H     4.2092859   -0.2831471   -2.3423551 
H     3.5530545    1.2135732   -3.0497262 
H     3.7370031    1.0820907   -1.2801294 
H    -2.5733842    3.4797250    0.3714990 
H    -1.1345090    3.2738132    1.3968299 
H    -2.7671364    3.1889457    2.1225461 
H    -0.6417726    0.9208959    2.4843507 
H    -2.3082989    0.8399652    3.1174954 
H    -1.6792138   -0.4596139    2.0590183 
H    -4.1278169    2.4399678   -0.8825954 
H    -3.2287637    3.0325994   -2.3042429 
H    -4.6190286    1.9392319   -2.5131665 
H    -1.9344638   -0.6347021   -3.0714831 
H    -1.8844472    0.9937621   -3.7928695 
H    -3.4209536    0.0930595   -3.7482088 
H     2.2893671   -1.3430200    2.2477968 
H    -1.3602212    2.7513367   -2.8590390 
H     1.8672799    2.4730526    4.1903770 
H     2.4168253    4.7631157   -2.4653909 
H     2.3751985    0.0416049    4.2835938 
H     0.2853353    4.3837055   -3.6832267 
H     0.5460860    4.3480138    3.8396865 
H     0.9502956    5.6362668    2.6492483 
H     2.2713405    4.6701656    3.4039454 
H     4.4814366    4.1632235   -1.5852667 
H     4.8893118    4.2999579    0.1623284 
H     3.6654414    5.4085728   -0.5588984 
