99
Energy =
C    -0.3854274   -3.6613616   -0.3552872 
C    -1.6916897   -3.2984251    0.0332642 
C    -2.5091629   -2.5058314   -0.8321072 
H    -2.0334807   -3.5083903    1.0548511 
Pd   -0.6593192   -1.3708386   -0.2825449 
P    -1.2533849    0.7072756   -1.1975148 
P     1.3063115   -0.6702083    0.8160601 
H    -0.1394375   -3.5621551   -1.4240908 
H    -2.3827710   -2.6654948   -1.9110979 
C     2.5271543   -5.8911299    1.8808719 
C     2.8458082   -5.3463660    0.6262295 
C     1.8752488   -4.6486574   -0.1002214 
C     0.5693058   -4.4670962    0.4171315 
C     0.2549067   -5.0476517    1.6681524 
C     1.2263593   -5.7481604    2.3916077 
H     3.2840658   -6.4388775    2.4513385 
H     3.8521122   -5.4702728    0.2130408 
H     2.1273759   -4.2187561   -1.0763592 
H    -0.7544824   -4.9528547    2.0795901 
H     0.9664805   -6.1922297    3.3580870 
C    -6.3211768   -0.8370087    0.2910054 
C    -5.3251852   -1.0253266    1.2644689 
C    -4.0907250   -1.5800395    0.9125351 
C    -3.8206447   -1.9621128   -0.4225044 
C    -4.8381989   -1.7791374   -1.3877617 
C    -6.0740262   -1.2206943   -1.0355256 
H    -7.2853573   -0.3984756    0.5675012 
H    -5.5107020   -0.7299869    2.3025085 
H    -3.3142752   -1.6951863    1.6771656 
H    -4.6582072   -2.0912599   -2.4232351 
H    -6.8487912   -1.0911297   -1.7983986 
O     0.8159154    4.5060371    0.2988786 
O     3.2629588    3.2468070   -0.5197185 
C     1.5203324   -1.8300683    2.2877962 
C     2.9232495   -0.9184903   -0.1269114 
C    -2.3749266    1.7824411   -0.1259190 
C    -2.3502796    0.3543224   -2.6929964 
C     1.2121646    1.0637180    1.4583454 
C     0.2259608    1.6529817   -1.7788646 
C     1.0865521    2.1869136    0.6018551 
C     1.2091751    2.1551691   -0.8888706 
C     0.9323058    3.4796277    1.1845900 
C     2.3691849    2.7809180   -1.4339546 
C     0.2435271   -1.9608694    3.1415105 
C     2.8095666   -1.7188653    3.1237457 
C     4.0412459    0.0415140    0.3109818 
C     2.7183931   -0.9373008   -1.6518268 
C    -2.2966752    3.2801055   -0.4674501 
C    -2.2147443    1.5235883    1.3826351 
C    -3.0181506    1.5507524   -3.3963629 
C    -1.7384496   -0.6500053   -3.6965636 
C     1.1706385    1.2589880    2.8577211 
C     0.4321205    1.7722501   -3.1721172 
C     0.8860527    3.6531726    2.5774100 
C     2.5625116    2.8810353   -2.8215096 
C     1.0098531    2.5336272    3.4055813 
C     1.5842851    2.3747014   -3.6824075 
C     0.7500572    5.8470980    0.7841286 
C     4.4112706    3.9684420   -0.9657280 
H     1.6031053   -2.7749860    1.7218266 
H     3.1871606   -1.9485513    0.1851983 
H    -3.3659824    1.3839793   -0.4225593 
H    -3.1530473   -0.1808507   -2.1542041 
H     0.3099401   -2.8770566    3.7533104 
H     0.0871651   -1.1108267    3.8251870 
H    -0.6531194   -2.0403694    2.5006935 
H     2.9037971   -0.7618499    3.6619749 
H     3.7094792   -1.8507812    2.5017481 
H     2.8118749   -2.5294642    3.8742340 
H     4.2215392    0.0027064    1.3971836 
H     3.7979459    1.0839734    0.0540629 
H     4.9819490   -0.2315518   -0.2009860 
H     2.4775078    0.0626674   -2.0454700 
H     3.6460410   -1.2813959   -2.1433941 
H     1.9006162   -1.6214685   -1.9398470 
H    -2.4927302    3.4832214   -1.5315761 
H    -1.3024754    3.6893987   -0.2299091 
H    -3.0482733    3.8295345    0.1280264 
H    -3.1024396    1.9131178    1.9117062 
H    -2.1296929    0.4464552    1.6032497 
H    -1.3269745    2.0298562    1.7899915 
H    -3.6617573    1.1685355   -4.2093532 
H    -3.6649407    2.1212192   -2.7112574 
H    -2.2892762    2.2465818   -3.8446105 
H    -1.0173313   -1.3348269   -3.2161487 
H    -1.2163762   -0.1482104   -4.5275375 
H    -2.5444595   -1.2577457   -4.1448426 
H     1.2644510    0.4131077    3.5349491 
H    -0.3086219    1.3938978   -3.8725850 
H     0.7585727    4.6453306    3.0155710 
H     3.4594083    3.3509413   -3.2307049 
H     0.9804901    2.6570425    4.4929343 
H     1.7212421    2.4532330   -4.7656821 
H     0.7086328    6.4844360   -0.1106711 
H     1.6478338    6.0988506    1.3788382 
H    -0.1584970    6.0112008    1.3935553 
H     5.0746918    3.3310614   -1.5801024 
H     4.9423026    4.2738109   -0.0528874 
H     4.1174691    4.8650047   -1.5426516 
