87
Energy =
C     2.4348795   -1.2924654   -1.4473463 
C     1.6181585   -0.9023459   -2.5398145 
C     1.3394717    0.4687709   -2.7922623 
H     1.0735782   -1.6719724   -3.1002852 
Pd    0.6646235   -0.0869495   -0.7291935 
P    -1.1257486    1.3500990   -0.1401644 
P     0.0966827   -0.6905605    1.4874175 
H     3.1826117   -0.5641856   -1.0963998 
H     2.0817298    1.1999917   -2.4356514 
C     3.2411717   -5.3496391   -0.2513344 
C     4.1201511   -4.3127478    0.0948490 
C     3.8492920   -2.9989314   -0.3075949 
C     2.6916778   -2.6914312   -1.0587514 
C     1.8211528   -3.7507940   -1.4090740 
C     2.0939306   -5.0629475   -1.0107330 
H     3.4498761   -6.3770804    0.0631459 
H     5.0233124   -4.5284721    0.6746994 
H     4.5504656   -2.1977165   -0.0496300 
H     0.9147620   -3.5461327   -1.9886831 
H     1.4063902   -5.8681764   -1.2894873 
C    -1.2240417    1.9925887   -5.8988201 
C    -0.2790227    2.8221384   -5.2761086 
C     0.5499373    2.3107525   -4.2704124 
C     0.4496446    0.9612281   -3.8605871 
C    -0.5013534    0.1353216   -4.5055015 
C    -1.3269104    0.6457635   -5.5123558 
H    -1.8728543    2.3900640   -6.6857595 
H    -0.1824942    3.8695549   -5.5796414 
H     1.2932882    2.9618174   -3.7977994 
H    -0.6026476   -0.9161720   -4.2173145 
H    -2.0562130   -0.0096800   -5.9994243 
O    -1.7012589    0.9666103    2.6825434 
O     2.8668615   -0.4619847    3.5254084 
C    -1.4821815    0.3245346    1.4335193 
C    -0.6160645    3.1288190    0.3063469 
C    -2.7842933    1.2335971   -1.0860911 
C    -0.3717181   -2.4579609    2.0107823 
C     0.5399371    0.1837131    3.0258720 
C    -0.1033582    3.7932722   -0.9930789 
C    -1.7681615    3.9361201    0.9361521 
C     0.5759895    3.0547573    1.2875700 
C    -2.8528920   -0.2265695   -1.5941287 
C    -2.7899655    2.1855743   -2.2999112 
C    -3.9977661    1.5269967   -0.1770289 
C    -0.5998550    0.8878556    3.5060106 
C     0.9370125   -3.2268968    2.2906832 
C    -1.1259795   -3.0817947    0.8199555 
C    -1.2564710   -2.4175464    3.2706445 
C     1.6909358    0.1391375    3.8514197 
C    -0.6416567    1.4928130    4.7613023 
C     1.6512103    0.7328834    5.1298964 
C     0.5003111    1.3897682    5.5728461 
C     3.2725414   -0.5168498    2.1587887 
H    -2.3612492   -0.3020800    1.2053460 
H    -3.6777725    1.9601161   -2.9177878 
H    -4.0135278    2.5677142    0.1786857 
H    -1.8997969    2.0552043   -2.9356576 
H    -2.8624593    3.2418369   -1.9939730 
H     0.2504846    4.8107629   -0.7465563 
H    -2.8731954   -0.9613490   -0.7707981 
H    -1.9969703   -0.4631418   -2.2477279 
H    -3.7822095   -0.3605098   -2.1767339 
H    -4.9200049    1.3590873   -0.7629946 
H     1.0309601    4.0593747    1.3550636 
H     1.3558916    2.3550618    0.9336205 
H     0.2733465    2.7586946    2.3012287 
H    -1.3747426    4.9126471    1.2733523 
H    -2.5733622    4.1392495    0.2114590 
H    -2.1929188    3.4165965    1.8106572 
H    -0.8730439    3.8849550   -1.7723886 
H     0.7469794    3.2291766   -1.4114404 
H    -4.0447946    0.8624815    0.7025364 
H    -0.5371109   -3.0135310   -0.1107010 
H    -1.5525980   -3.4499478    3.5325044 
H    -2.1812579   -1.8344859    3.1150939 
H    -0.7175081   -1.9900123    4.1324859 
H     0.6872295   -4.2580630    2.5994745 
H     1.5731880   -3.2938035    1.3925206 
H    -1.3165573   -4.1500763    1.0268060 
H    -2.1043527   -2.5979180    0.6532103 
H     1.5148758   -2.7629822    3.1088030 
H    -1.5405116    2.0240796    5.0823227 
H     2.5524950    0.6776304    5.7456900 
H     0.4967606    1.8537890    6.5642224 
H     2.7244994   -1.2918534    1.5931435 
H     4.3408019   -0.7780538    2.1739349 
H     3.1297527    0.4628096    1.6651131 
