87
Energy =
C     2.4014500   -1.1570595   -1.4527142 
C     1.6168371   -0.8365722   -2.5899502 
C     1.2665901    0.5171296   -2.8635729 
H     1.1379123   -1.6417025   -3.1605263 
Pd    0.5506097   -0.0595085   -0.8301837 
P    -1.2165287    1.3883554   -0.1992366 
P    -0.0482582   -0.7517707    1.3315130 
H     3.0613566   -0.3660158   -1.0634939 
H     1.9695064    1.2900365   -2.5161947 
C     3.4659275   -5.0835278   -0.0509310 
C     4.1410708   -3.9444370    0.4137338 
C     3.7810707   -2.6754782   -0.0543836 
C     2.7412158   -2.5170770   -0.9986718 
C     2.0711123   -3.6742623   -1.4598784 
C     2.4309949   -4.9419176   -0.9906663 
H     3.7451426   -6.0771435    0.3137066 
H     4.9536247   -4.0475925    1.1407218 
H     4.3062215   -1.7866309    0.3116050 
H     1.2569447   -3.5859539   -2.1867801 
H     1.9016632   -5.8266356   -1.3591575 
C    -1.3812623    1.8527432   -5.9872361 
C    -0.4378362    2.7256469   -5.4244978 
C     0.4215854    2.2756049   -4.4145881 
C     0.3548020    0.9448635   -3.9420699 
C    -0.5978844    0.0754154   -4.5238928 
C    -1.4537108    0.5245265   -5.5348301 
H    -2.0540647    2.2025541   -6.7766764 
H    -0.3669462    3.7596436   -5.7773339 
H     1.1621188    2.9608530   -3.9875343 
H    -0.6794653   -0.9600617   -4.1764150 
H    -2.1846561   -0.1637716   -5.9717411 
O    -1.6820327    1.0005449    2.6499638 
O     2.6634618   -0.8308434    2.9261284 
C    -1.5729471    0.3585856    1.3791604 
C    -0.6357341    3.1447276    0.2530697 
C    -2.8922950    1.3306392   -1.1177499 
C    -0.5778743   -2.5202626    1.7747812 
C     0.4900759    0.0505345    2.8603370 
C    -1.7251624    3.9682997    0.9671115 
C     0.6108041    3.0080007    1.1584555 
C    -0.1803000    3.8303739   -1.0567585 
C    -3.0296806   -0.1318840   -1.6046091 
C    -2.8672563    2.2619871   -2.3475921 
C    -4.0809170    1.6901921   -0.2009306 
C    -0.5317981    0.8645234    3.3915934 
C     0.6962427   -3.3209231    2.1159480 
C    -1.2604528   -3.1000037    0.5197942 
C    -1.5394226   -2.4932794    2.9770831 
C     1.7246439   -0.0600903    3.5357338 
C    -0.3810593    1.5354612    4.6106196 
C     1.8976944    0.6173229    4.7586832 
C     0.8442618    1.3916397    5.2764996 
C     3.9118033   -1.0594558    3.5896625 
H    -2.5065592   -0.1988826    1.1948342 
H    -3.7594916    2.0522544   -2.9646547 
H    -4.0503015    2.7382427    0.1321086 
H    -1.9788903    2.0956200   -2.9781746 
H    -2.9101757    3.3244787   -2.0584635 
H    -1.2842138    4.9232326    1.3075590 
H    -3.0870720   -0.8515680   -0.7698252 
H    -2.1856727   -0.4194817   -2.2535942 
H    -3.9644800   -0.2298759   -2.1856115 
H    -5.0176912    1.5467028   -0.7701258 
H     0.2593144    4.8110780   -0.7993492 
H    -1.0019407    4.0075739   -1.7647163 
H     0.5940333    3.2334394   -1.5667708 
H     1.0940194    3.9989277    1.2328960 
H     0.3615601    2.6846381    2.1781329 
H     1.3504026    2.3022485    0.7356801 
H    -2.1198189    3.4376906    1.8489355 
H    -2.5608339    4.2149966    0.2920260 
H    -4.1404645    1.0467775    0.6936518 
H    -0.5874688   -3.0647308   -0.3547067 
H    -1.8275190   -3.5301926    3.2300243 
H    -2.4672710   -1.9349474    2.7618259 
H    -1.0626108   -2.0474314    3.8666229 
H     0.4137312   -4.3717383    2.3095691 
H     1.4217202   -3.3092910    1.2875535 
H    -1.5297684   -4.1553872    0.7045301 
H    -2.1896069   -2.5591325    0.2681014 
H     1.1921017   -2.9252661    3.0167109 
H    -1.1891275    2.1548745    5.0061556 
H     2.8386006    0.5526230    5.3090197 
H     0.9941369    1.9106568    6.2287444 
H     4.4760021   -0.1169387    3.7120878 
H     4.4712686   -1.7449569    2.9381043 
H     3.7548876   -1.5325786    4.5760100 
