99
Energy =
C     2.2829016   -0.3754806    1.7515284 
C     2.7618307    0.5154387    0.7227624 
C     2.3200617    1.8346428    0.6066882 
H     3.5170821    0.1418176    0.0199481 
Pd    0.6125142   -0.0258355    0.3265108 
P    -0.3779611    0.1950426   -1.8672176 
P    -1.1996475   -0.8638343    1.6084141 
H     2.0117070    0.0835969    2.7092973 
H     1.6188917    2.2015383    1.3703818 
C     4.0584517   -4.2951268    2.0699035 
C     3.7562956   -3.7620163    0.8062447 
C     3.1798394   -2.4922921    0.6986562 
C     2.8816812   -1.7259467    1.8513203 
C     3.2072940   -2.2718205    3.1139528 
C     3.7873565   -3.5414551    3.2223421 
H     4.5092882   -5.2890391    2.1551159 
H     3.9683636   -4.3408814   -0.0987155 
H     2.9320677   -2.0975444   -0.2921958 
H     3.0169785   -1.6849731    4.0195070 
H     4.0358939   -3.9417277    4.2107063 
C     3.8320231    4.9194706   -1.9514447 
C     2.7657974    5.1742661   -1.0748733 
C     2.2878477    4.1564513   -0.2440392 
C     2.8604615    2.8607184   -0.2771778 
C     3.9490140    2.6254187   -1.1560220 
C     4.4244290    3.6438160   -1.9839713 
H     4.2102732    5.7148945   -2.6016399 
H     2.3107311    6.1690765   -1.0373847 
H     1.4570518    4.3567021    0.4415413 
H     4.4245857    1.6405493   -1.1909805 
H     5.2664629    3.4494584   -2.6558999 
C     0.6561806   -1.0461927   -2.9279428 
C    -0.4293595    1.9310301   -2.6767939 
C    -1.6492573    0.5240217    2.8678556 
C    -0.9907479   -2.5821495    2.4695095 
C    -2.1078231   -0.4963950   -2.1505688 
C    -2.8083410   -1.2366112    0.7001240 
C    -3.2833882    0.1238495   -1.4276893 
C    -3.5876235   -0.2079308   -0.0842161 
C     2.1597115   -0.7030142   -2.8174549 
C     0.2501909   -1.0905382   -4.4139950 
C     0.4455772   -2.4420628   -2.2890119 
C     0.9956928    2.3616566   -3.0701409 
C    -0.9636529    2.8641769   -1.5648116 
C    -1.3283206    2.0391451   -3.9251881 
C    -1.9778395    1.7870835    2.0338392 
C    -0.4456507    0.8916655    3.7633761 
C    -2.8425313    0.1331837    3.7633491 
C    -2.3142020   -3.2771955    2.8680521 
C    -0.1229563   -2.4363699    3.7327786 
C    -0.2634083   -3.4685935    1.4327112 
C    -4.1777418    0.9589053   -2.1303232 
C    -4.7523597    0.3321749    0.5030864 
C    -5.3095041    1.5150041   -1.5249036 
C    -5.5966413    1.2049456   -0.1897054 
H    -2.0227339   -1.5603529   -1.8724431 
H    -2.2838956   -0.4678040   -3.2384685 
H    -3.4790142   -1.6449101    1.4705572 
H    -2.5333921   -2.0875406    0.0496755 
H     2.4573644   -0.5559288   -1.7656573 
H     2.7511083   -1.5427105   -3.2257373 
H     2.4334178    0.2013555   -3.3783467 
H     0.4712114   -0.1425698   -4.9306354 
H    -0.8169678   -1.3301124   -4.5569565 
H     0.8327233   -1.8836464   -4.9186187 
H    -0.5770171   -2.8284293   -2.4350998 
H     1.1357070   -3.1625297   -2.7642499 
H     0.6616528   -2.4265941   -1.2059811 
H     1.3252947    1.8746691   -4.0023362 
H     1.0095357    3.4530343   -3.2416284 
H     1.7267113    2.1439239   -2.2801468 
H    -0.2817752    2.8698645   -0.6980543 
H    -1.9662500    2.5609103   -1.2178550 
H    -1.0331690    3.8964998   -1.9547384 
H    -2.3930106    1.9226551   -3.6865291 
H    -1.2015022    3.0499660   -4.3546076 
H    -1.0591886    1.3126025   -4.7077167 
H    -2.8674136    1.6701537    1.3998346 
H    -2.1603777    2.6298770    2.7257735 
H    -1.1274160    2.0559045    1.3825104 
H     0.4012937    1.2560545    3.1596579 
H    -0.0971793    0.0646668    4.3973293 
H    -0.7533558    1.7169886    4.4308816 
H    -2.5828844   -0.6810299    4.4594852 
H    -3.1339914    1.0083566    4.3728386 
H    -3.7287402   -0.1710191    3.1847685 
H    -2.9021556   -3.6079933    1.9968796 
H    -2.0570615   -4.1850329    3.4437887 
H    -2.9533014   -2.6516797    3.5118531 
H    -0.6914738   -1.9966618    4.5690055 
H     0.2224853   -3.4362491    4.0515824 
H     0.7695942   -1.8254848    3.5479548 
H     0.7323400   -3.0718657    1.1839750 
H    -0.1304964   -4.4827113    1.8517838 
H    -0.8449060   -3.5703785    0.4990374 
H    -4.0016053    1.1540699   -3.1921784 
H    -5.0113796    0.0445570    1.5278314 
H    -5.9763016    2.1621443   -2.1034208 
H    -6.4880558    1.6102669    0.2992070 
