99
Energy =
C     2.8185585   -0.1052730   -1.3328102 
C     2.8209982    0.1049202    0.0427649 
C     2.4289653   -0.9333856    0.9742998 
H     3.2243076    1.0450291    0.4398807 
Pd    0.5251967   -0.0848038    0.2500995 
P    -1.0279111   -1.6840442    1.0855658 
P    -0.8962395    1.6335550   -0.6671399 
H     2.4529726   -1.0793498   -1.6869654 
H     2.5194254   -1.9560066    0.5862275 
C     4.4526400    2.3478569   -4.4318047 
C     3.7432302    1.1776722   -4.7452338 
C     3.2205508    0.3844593   -3.7197392 
C     3.3884041    0.7496026   -2.3598589 
C     4.1223615    1.9276373   -2.0613429 
C     4.6445756    2.7159062   -3.0869409 
H     4.8668043    2.9690955   -5.2325345 
H     3.6032985    0.8831163   -5.7900738 
H     2.6667891   -0.5286709   -3.9636787 
H     4.2871613    2.2217948   -1.0201948 
H     5.2124633    3.6195556   -2.8438124 
C     3.4740210   -0.5250019    5.1364631 
C     3.0073687    0.5886309    4.4183419 
C     2.6706816    0.4626140    3.0668512 
C     2.7850351   -0.7822492    2.4013031 
C     3.2695704   -1.8887003    3.1345642 
C     3.6084396   -1.7619976    4.4870265 
H     3.7370260   -0.4270325    6.1945843 
H     2.9018971    1.5576859    4.9171384 
H     2.2823800    1.3327689    2.5257388 
H     3.3862363   -2.8568776    2.6351210 
H     3.9838529   -2.6314658    5.0366048 
C    -1.3891103   -1.7847488    2.9842808 
C    -0.5419481   -3.4194931    0.3964317 
C    -0.5074167    2.0779922   -2.4931489 
C    -0.6766364    3.1740322    0.4754490 
C    -2.7915007   -1.4300529    0.4745942 
C    -2.7638215    1.3830958   -0.6325806 
C    -3.1634551   -1.1324107   -0.9635117 
C    -3.2721884    0.2041162   -1.4342682 
C    -0.0568344   -1.7496315    3.7539324 
C    -2.1906663   -3.0393457    3.3891733 
C    -2.1956923   -0.5296558    3.3937897 
C    -1.6940593   -4.4480304    0.3661067 
C     0.6121776   -4.0233661    1.2230399 
C    -0.0698245   -3.1627448   -1.0559292 
C    -0.3633659    0.7212915   -3.2253867 
C     0.8356709    2.8308552   -2.5358418 
C    -1.5705425    2.9417252   -3.2012944 
C     0.8277018    3.4883008    0.6565695 
C    -1.2166392    2.7688981    1.8663366 
C    -1.4181158    4.4291743   -0.0234156 
C    -3.6199960   -2.1748033   -1.7967812 
C    -3.9191782    0.4339988   -2.6660735 
C    -4.1810537   -1.9335523   -3.0556499 
C    -4.3586915   -0.6127389   -3.4833116 
H    -3.1508121   -0.5989479    1.1006766 
H    -3.3464327   -2.3229277    0.8096690 
H    -3.2383227    2.3153838   -0.9813810 
H    -3.0178588    1.2713882    0.4354142 
H     0.4810983   -0.8064080    3.5766288 
H    -0.2672124   -1.8224436    4.8364935 
H     0.6136295   -2.5789988    3.4898613 
H    -1.6070352   -3.9654505    3.2674476 
H    -3.1395800   -3.1403345    2.8355471 
H    -2.4464823   -2.9539808    4.4614399 
H    -3.2503931   -0.5729603    3.0752039 
H    -2.1937437   -0.4589118    4.4963114 
H    -1.7415576    0.3931146    3.0011062 
H    -2.5213338   -4.1396177   -0.2870620 
H    -1.2954903   -5.3941244   -0.0440367 
H    -2.1005222   -4.6681449    1.3630891 
H     0.2676800   -4.3862195    2.2050735 
H     1.4271313   -3.3059347    1.3903820 
H     1.0279372   -4.8897991    0.6770240 
H     0.8249803   -2.5168907   -1.0759267 
H     0.1887268   -4.1266484   -1.5319854 
H    -0.8514819   -2.6772693   -1.6651207 
H    -1.3059506    0.1505540   -3.2303403 
H    -0.0659401    0.9055430   -4.2742593 
H     0.4116795    0.0957363   -2.7514285 
H     1.5798857    2.3763408   -1.8675454 
H     0.7164031    3.8915312   -2.2604602 
H     1.2451842    2.7951270   -3.5612877 
H    -1.7707804    3.8863669   -2.6727329 
H    -1.1919321    3.1991460   -4.2078260 
H    -2.5192238    2.4086259   -3.3410806 
H     1.2850635    3.9383722   -0.2348229 
H     0.9444851    4.2047026    1.4902122 
H     1.3938564    2.5749519    0.9135992 
H    -0.6770625    1.8863543    2.2531101 
H    -1.0508173    3.6027297    2.5723929 
H    -2.2978240    2.5529582    1.8653334 
H    -2.4970108    4.2517205   -0.1716026 
H    -1.3188244    5.2293233    0.7333960 
H    -0.9925604    4.8132425   -0.9642788 
H    -3.5755578   -3.2058662   -1.4348296 
H    -4.0999729    1.4646396   -2.9856225 
H    -4.5203346   -2.7714549   -3.6728315 
H    -4.8515653   -0.3944667   -4.4359066 
