99
Energy =
C     2.5417233    1.2109757   -0.4803032 
C     2.7382232    0.4752437    0.7401404 
C     2.8888713   -0.9136461    0.7718498 
H     2.7787430    1.0364332    1.6818281 
Pd    0.7122229   -0.0212536   -0.0849473 
P    -0.9873469   -1.0102191    1.3141658 
P    -0.4200232    0.1936011   -2.1826801 
H     3.0100070    0.8027670   -1.3844209 
H     2.9411464   -1.4388684   -0.1926749 
C     2.3854751    5.5166667   -0.2565303 
C     1.7435905    4.7380371    0.7202785 
C     1.7913432    3.3422644    0.6491958 
C     2.4731572    2.6880405   -0.4054174 
C     3.1269421    3.4875036   -1.3704861 
C     3.0829721    4.8849245   -1.2975442 
H     2.3476933    6.6094052   -0.2024117 
H     1.2001871    5.2220008    1.5384658 
H     1.2700424    2.7486085    1.4079359 
H     3.6886709    3.0060405   -2.1785228 
H     3.6014485    5.4839867   -2.0533183 
C     3.9968162   -3.3676236    4.1065941 
C     3.8218594   -3.9271048    2.8314049 
C     3.4608983   -3.1107130    1.7552519 
C     3.2610316   -1.7188885    1.9314186 
C     3.4645386   -1.1664532    3.2217644 
C     3.8230986   -1.9845540    4.2950307 
H     4.2795885   -4.0038089    4.9514151 
H     3.9714215   -5.0003551    2.6767038 
H     3.3278486   -3.5484912    0.7598120 
H     3.3418374   -0.0921934    3.3866299 
H     3.9760158   -1.5444765    5.2855801 
C    -1.2087412    0.2869125    2.7163867 
C    -0.7327575   -2.7938539    2.0270446 
C     0.3790327   -1.1451971   -3.3328075 
C    -0.4377035    1.9085003   -3.0411564 
C    -2.7110623   -1.2563043    0.5990086 
C    -2.2218374   -0.3578983   -2.2428139 
C    -3.4803005   -0.1211780   -0.0324211 
C    -3.2559715    0.3115507   -1.3627671 
C    -1.5646290    1.6242401    2.0165012 
C     0.1339948    0.5009314    3.4519845 
C    -2.2994527   -0.0962441    3.7341074 
C    -0.1004753   -3.6036006    0.8742399 
C    -2.0352516   -3.4987773    2.4722524 
C     0.2328400   -2.7736431    3.2263847 
C     0.0447533   -2.5299763   -2.7305398 
C     1.9177763   -1.0110314   -3.3229239 
C    -0.1343959   -1.0822833   -4.7860574 
C    -0.8035545    2.9083868   -1.9176224 
C    -1.4476412    2.0451558   -4.2006872 
C     0.9638413    2.2253669   -3.5961858 
C    -4.5435037    0.4481491    0.7009104 
C    -4.1151218    1.2935402   -1.8994026 
C    -5.3571630    1.4522241    0.1680676 
C    -5.1400150    1.8781494   -1.1483079 
H    -3.3192185   -1.6641742    1.4198097 
H    -2.5731035   -2.0815239   -0.1244588 
H    -2.1798937   -1.4315614   -1.9998379 
H    -2.5298129   -0.2873426   -3.2994175 
H    -2.5645829    1.6171442    1.5617707 
H    -1.5361603    2.4360626    2.7663398 
H    -0.8356032    1.8657874    1.2212711 
H     0.9465458    0.7049616    2.7354356 
H     0.4307087   -0.3530720    4.0757310 
H     0.0370769    1.3816451    4.1127414 
H    -2.0267832   -0.9943941    4.3121945 
H    -2.4275554    0.7337496    4.4535820 
H    -3.2781091   -0.2698447    3.2592831 
H     0.8519657   -3.1556806    0.5463899 
H     0.1028629   -4.6349644    1.2163876 
H    -0.7742162   -3.6706192    0.0023257 
H    -2.7064928   -3.7353341    1.6310569 
H    -2.5974245   -2.9183926    3.2222962 
H    -1.7578649   -4.4600897    2.9422802 
H    -0.2476458   -2.3653309    4.1301787 
H     0.5401275   -3.8101267    3.4545270 
H     1.1443731   -2.1984520    3.0194552 
H    -1.0178817   -2.8027346   -2.8410212 
H     0.6332106   -3.3008496   -3.2603879 
H     0.3137226   -2.5716355   -1.6620860 
H     2.3190088   -1.1631854   -2.3068542 
H     2.2718745   -0.0397403   -3.6965244 
H     2.3453243   -1.7957235   -3.9732304 
H     0.1984125   -0.1701583   -5.3062457 
H     0.2754402   -1.9455955   -5.3422570 
H    -1.2337217   -1.1456415   -4.8505029 
H    -0.0465720    2.9081785   -1.1185677 
H    -0.8503455    3.9284908   -2.3412124 
H    -1.7854869    2.6802946   -1.4697243 
H    -2.4902501    1.9724676   -3.8658822 
H    -1.3216367    3.0506665   -4.6422771 
H    -1.2844247    1.3107769   -5.0035124 
H     1.1629315    1.6833883   -4.5356673 
H     1.0305940    3.3068038   -3.8115609 
H     1.7538798    1.9857509   -2.8746169 
H    -4.7440290    0.0819074    1.7137889 
H    -4.0000507    1.5906890   -2.9453687 
H    -6.1695946    1.8765151    0.7662931 
H    -5.7823036    2.6399179   -1.6013275 
