99
Energy =
C     3.0712870    0.0892745   -0.6037428 
C     2.7581991    0.3679794    0.7289355 
C     2.2497574   -0.6262842    1.6364868 
H     2.9130061    1.3850581    1.1099127 
Pd    0.6785421   -0.1996520    0.1012836 
P    -0.8402242   -1.9972162    0.5247855 
P    -0.6066832    1.2202070   -1.3662484 
H     2.9972927   -0.9572824   -0.9327733 
H     2.5815852   -1.6589952    1.4741115 
C     5.0604227    2.6246699   -3.4291957 
C     4.7115432    1.3082749   -3.7684859 
C     4.0640366    0.4954069   -2.8331796 
C     3.7456891    0.9824181   -1.5410181 
C     4.1261557    2.3073959   -1.2071123 
C     4.7710739    3.1174940   -2.1438481 
H     5.5677265    3.2639239   -4.1588905 
H     4.9486257    0.9154306   -4.7622595 
H     3.7949475   -0.5329315   -3.0984675 
H     3.9162409    2.7064183   -0.2104850 
H     5.0586179    4.1382334   -1.8724639 
C     1.6597968    0.5028947    5.7585416 
C     1.3011992    1.3879651    4.7287717 
C     1.4899272    1.0237411    3.3918716 
C     2.0323856   -0.2383966    3.0489400 
C     2.4027213   -1.1096776    4.0984931 
C     2.2177797   -0.7439781    5.4371886 
H     1.5113754    0.7865150    6.8054026 
H     0.8687716    2.3646106    4.9698011 
H     1.1886390    1.7172084    2.5992451 
H     2.8548521   -2.0788500    3.8606751 
H     2.5172327   -1.4328807    6.2338398 
C    -1.2151369   -2.4703291    2.3455337 
C    -0.1235641   -3.5123595   -0.4476419 
C    -0.0139077    1.5036719   -3.1888146 
C    -0.7126645    2.8733617   -0.3895420 
C    -2.5455133   -1.8775832   -0.2700514 
C    -2.3926748    0.7570421   -1.7392575 
C    -3.4685805   -0.7247441    0.0635897 
C    -3.3934873    0.5038206   -0.6381435 
C     0.0121135   -3.1657755    2.9644122 
C    -2.4322335   -3.3999950    2.5388292 
C    -1.4776560   -1.1212013    3.0574698 
C    -0.1781723   -3.1633271   -1.9534593 
C    -0.9041898   -4.8190256   -0.1971519 
C     1.3641525   -3.7236054   -0.0897863 
C     0.4812469    0.1231105   -3.6713402 
C     1.1509941    2.5093682   -3.2367482 
C    -1.1166710    2.0000608   -4.1527661 
C     0.7091158    3.4130706   -0.1118412 
C    -1.3458793    2.5244343    0.9824615 
C    -1.5433657    3.9533946   -1.1078758 
C    -4.5184641   -0.9016908    0.9892638 
C    -4.3632376    1.4970323   -0.3825096 
C    -5.4489646    0.1061516    1.2627330 
C    -5.3715304    1.3205821    0.5695227 
H    -3.0514754   -2.8337207   -0.0557708 
H    -2.3345691   -1.8703965   -1.3513196 
H    -2.2967137   -0.1321664   -2.3901817 
H    -2.7838566    1.5642173   -2.3759456 
H     0.9450377   -2.6444722    2.7194256 
H    -0.0880515   -3.1625437    4.0644871 
H     0.0939973   -4.2158621    2.6379820 
H    -2.3352479   -4.3542926    2.0001313 
H    -3.3785804   -2.9275734    2.2460597 
H    -2.5105630   -3.6350433    3.6161119 
H    -2.3251617   -0.5777957    2.6064260 
H    -1.7212157   -1.3126522    4.1186852 
H    -0.5896504   -0.4715494    3.0261682 
H     0.2906001   -2.1846507   -2.1497092 
H     0.3840209   -3.9294544   -2.5175731 
H    -1.2042302   -3.1538033   -2.3569739 
H    -1.9819283   -4.7165783   -0.4082682 
H    -0.7791817   -5.1876824    0.8332668 
H    -0.5113845   -5.5992699   -0.8749797 
H     1.5284768   -3.9420284    0.9750815 
H     1.7494541   -4.5813189   -0.6706113 
H     1.9634599   -2.8388456   -0.3630027 
H    -0.3318033   -0.6235837   -3.6817106 
H     0.8658659    0.2094035   -4.7041651 
H     1.2950546   -0.2557992   -3.0313372 
H     1.9308516    2.2806109   -2.4990055 
H     0.8042505    3.5434028   -3.0784651 
H     1.6188511    2.4667151   -4.2367255 
H    -1.5928338    2.9334173   -3.8095463 
H    -0.6440453    2.2131053   -5.1291037 
H    -1.9010567    1.2476893   -4.3338827 
H     1.2112089    3.8009825   -1.0084805 
H     0.6352985    4.2411859    0.6164243 
H     1.3473754    2.6306758    0.3308034 
H    -0.8083071    1.6906005    1.4702732 
H    -1.2763997    3.4094449    1.6413714 
H    -2.4044368    2.2405957    0.9061805 
H    -2.5670992    3.6165857   -1.3361878 
H    -1.6291812    4.8377999   -0.4496577 
H    -1.0670096    4.2847607   -2.0451596 
H    -4.6318123   -1.8663581    1.4913946 
H    -4.3308999    2.4288151   -0.9577633 
H    -6.2464468   -0.0704669    1.9913487 
H    -6.1049128    2.1134598    0.7469033 
