99
Energy =
C     2.2953973   -0.0726585    1.9932785 
C     2.7828874    0.4060053    0.7627599 
C     2.4850897    1.6890639    0.2592220 
H     3.4731347   -0.2279810    0.1943131 
Pd    0.5526700    0.2012166    0.2633682 
P    -0.6735467    1.1654410   -1.5755847 
P    -0.9751353   -1.5195848    0.9941504 
H     1.7978186    0.6571420    2.6467159 
H     1.9964307    2.3890673    0.9511214 
C     4.0426553   -3.3989083    4.0893140 
C     3.3046413   -2.4238299    4.7772152 
C     2.7306590   -1.3550754    4.0799157 
C     2.8728181   -1.2391152    2.6757887 
C     3.6408238   -2.2212418    2.0011657 
C     4.2146478   -3.2866320    2.6991686 
H     4.4916636   -4.2359398    4.6334003 
H     3.1827533   -2.4914948    5.8630691 
H     2.1717423   -0.5900804    4.6284160 
H     3.7808490   -2.1630882    0.9174142 
H     4.8001302   -4.0366158    2.1575182 
C     4.8483055    3.6047041   -2.7860072 
C     4.8284302    2.2022915   -2.7018814 
C     4.0554844    1.5648483   -1.7280426 
C     3.2746301    2.3144026   -0.8130444 
C     3.3286058    3.7268096   -0.8949945 
C     4.1016614    4.3637825   -1.8722552 
H     5.4519950    4.1016546   -3.5520615 
H     5.4191431    1.6031131   -3.4024006 
H     4.0491734    0.4710959   -1.6913065 
H     2.7641473    4.3289078   -0.1758105 
H     4.1280749    5.4574140   -1.9154909 
C     0.3031461    0.9959854   -3.2529586 
C    -1.2469281    2.9679037   -1.2450026 
C    -1.7258061   -1.1858221    2.7300016 
C    -0.1619072   -3.2857650    0.8687684 
C    -2.2491672    0.2928985   -2.1343302 
C    -2.4821113   -1.8754688   -0.0830007 
C    -3.4751786    0.1526692   -1.2682066 
C    -3.5879018   -0.8755743   -0.3059493 
C    -0.5881049    0.8241804   -4.5062229 
C     1.1607047   -0.2787067   -3.0844185 
C     1.2075218    2.2175083   -3.5003128 
C    -2.0423669    3.5520370   -2.4302527 
C    -0.0526681    3.8883586   -0.9297209 
C    -2.1130821    2.9152688    0.0367460 
C    -2.4410005    0.1837432    2.6350155 
C    -0.6252350   -1.0302017    3.7965668 
C    -2.7048782   -2.2957244    3.1639780 
C     0.5507206   -3.6676835    2.1792335 
C     0.8646519   -3.1697725   -0.2808319 
C    -1.1482732   -4.4289713    0.5316276 
C    -4.5928215    0.9786699   -1.5146968 
C    -4.8156304   -1.0429881    0.3698268 
C    -5.7897507    0.8296893   -0.8072250 
C    -5.9029496   -0.1932754    0.1442062 
H    -1.8882424   -0.7050686   -2.4434545 
H    -2.5420031    0.8133329   -3.0574364 
H    -2.9257124   -2.7848367    0.3471451 
H    -2.0378130   -2.1754959   -1.0498406 
H    -1.2982131    1.6576073   -4.6404591 
H     0.0770692    0.8189234   -5.3889057 
H    -1.1463621   -0.1252140   -4.5194151 
H     0.5328604   -1.1730268   -2.9217491 
H     1.8542382   -0.1906113   -2.2312991 
H     1.7553287   -0.4479861   -4.0008974 
H     1.8145389    2.4786417   -2.6266556 
H     1.9024137    1.9825273   -4.3265742 
H     0.6212463    3.1005132   -3.8029423 
H    -2.9349948    2.9590387   -2.6799832 
H    -2.3894584    4.5663845   -2.1607341 
H    -1.4209086    3.6457958   -3.3358406 
H     0.6220490    4.0419500   -1.7820063 
H     0.5299364    3.4919455   -0.0847793 
H    -0.4456753    4.8767765   -0.6290270 
H    -1.5140914    2.5551689    0.8909926 
H    -2.4587029    3.9384668    0.2725521 
H    -2.9992488    2.2721617   -0.0584335 
H    -3.2497083    0.2064567    1.8913188 
H    -2.8794196    0.4225170    3.6213215 
H    -1.7177223    0.9788013    2.3847768 
H     0.0869548   -0.2436327    3.5058447 
H    -0.0678599   -1.9552139    3.9932615 
H    -1.1011353   -0.7160320    4.7435242 
H    -2.1967175   -3.2657729    3.2891732 
H    -3.1424204   -2.0226227    4.1417444 
H    -3.5400653   -2.4279431    2.4600623 
H    -0.1698547   -3.9330170    2.9699147 
H     1.1810059   -4.5560693    1.9940410 
H     1.2068756   -2.8728941    2.5502584 
H     1.6275941   -2.4024261   -0.0661124 
H     1.3760502   -4.1400650   -0.4190145 
H     0.3778173   -2.9075686   -1.2372008 
H    -1.5804502   -4.3494010   -0.4783422 
H    -0.5828165   -5.3780050    0.5663086 
H    -1.9679863   -4.5130792    1.2650807 
H    -4.5267092    1.7482576   -2.2909356 
H    -4.9245727   -1.8681558    1.0814786 
H    -6.6362808    1.4908144   -1.0176101 
H    -6.8395979   -0.3456156    0.6895732 
