96
Energy =
C     1.6199963   -2.5998499    0.7488084 
C     2.2467170   -2.0328068   -0.3995975 
C     3.0194132   -0.8494481   -0.3006900 
H     2.0180907   -2.4438095   -1.3912620 
Pd    0.8572449   -0.5401114    0.3952441 
P     0.3992838    1.6437943   -0.3765234 
P    -1.1687834   -0.8405414    1.5487749 
H     2.1115725   -2.4502822    1.7216815 
H     3.4361892   -0.6127494    0.6908577 
C    -1.0500196   -5.9743470    0.5754691 
C    -1.0253872   -5.0490012   -0.4817803 
C    -0.1567801   -3.9529988   -0.4363757 
C     0.7031653   -3.7566822    0.6700952 
C     0.6639413   -4.6923039    1.7258644 
C    -0.2008375   -5.7924908    1.6766569 
H    -1.7307133   -6.8310790    0.5398002 
H    -1.6886904   -5.1801004   -1.3432367 
H    -0.1631906   -3.2270498   -1.2583515 
H     1.3161600   -4.5514093    2.5936843 
H    -0.2161706   -6.5059550    2.5065925 
C     5.1879471    0.9087525   -3.5579449 
C     4.0079470    0.1912473   -3.8197139 
C     3.2659454   -0.3516991   -2.7688910 
C     3.6964378   -0.1977719   -1.4297204 
C     4.8622447    0.5619215   -1.1787689 
C     5.6073939    1.1013795   -2.2338680 
H     5.7691075    1.3283176   -4.3854090 
H     3.6612189    0.0656501   -4.8499821 
H     2.3379520   -0.8907176   -2.9861666 
H     5.1992362    0.7022571   -0.1452127 
H     6.5192086    1.6693278   -2.0224396 
O    -2.4820364    1.1168173   -2.5755550 
O    -2.9536090   -1.0750787   -2.0713097 
C    -2.3961783    0.9583499   -1.1570896 
C    -2.1012901   -0.5500572   -1.0619523 
C    -3.0640322   -0.0891117   -3.1228088 
C    -1.4309176    2.0035230   -0.5723063 
C    -2.4066522   -1.2775281    0.2448082 
C    -4.5442860    0.1191824   -3.4250635 
C    -2.2328502   -0.5093914   -4.3316680 
C     1.1717368    2.2164000   -1.9394456 
C     0.9409389    2.9139291    0.8383336 
C    -1.2660894   -2.1665765    2.8122647 
C    -1.8196107    0.6252034    2.4487771 
C     2.4129077    2.8870613   -1.9090415 
C     0.3515820    4.1922765    0.9040926 
C    -0.2861957   -2.1672395    3.8269662 
C    -0.8908801    1.4255773    3.1440487 
C     0.5337586    1.9867456   -3.1759738 
C     2.0022281    2.5979067    1.7110749 
C    -2.2809972   -3.1407500    2.8264463 
C    -3.1867665    0.9689563    2.4790774 
C     2.9909304    3.3416144   -3.1002788 
C     0.8018722    5.1261471    1.8469594 
C    -0.3269164   -3.1252201    4.8467921 
C    -1.3148337    2.5648321    3.8403485 
C     1.1237302    2.4419259   -4.3630705 
C     2.4583011    3.5377495    2.6458786 
C    -2.3122017   -4.1034526    3.8462713 
C    -3.6065979    2.1143379    3.1701254 
C     2.3493776    3.1223229   -4.3285523 
C     1.8524019    4.8012342    2.7195374 
C    -1.3407687   -4.0967521    4.8566599 
C    -2.6726714    2.9159382    3.8458771 
H    -3.3918564    1.1464764   -0.6995130 
H    -1.0279732   -0.7187123   -1.3246429 
H    -1.7563153    2.2406662    0.4536855 
H    -1.5407842    2.9214535   -1.1747594 
H    -2.2820257   -2.3589608    0.0634822 
H    -3.4490145   -1.1060731    0.5612253 
H    -5.0643122    0.4783918   -2.5222137 
H    -5.0022155   -0.8328918   -3.7390591 
H    -4.6668624    0.8610243   -4.2306215 
H    -1.1966785   -0.7191656   -4.0189189 
H    -2.2219219    0.2960406   -5.0844606 
H    -2.6600230   -1.4175738   -4.7862883 
H     2.9192937    3.0732841   -0.9572390 
H    -0.4591530    4.4690143    0.2232997 
H     0.5122846   -1.4158624    3.8156790 
H     0.1724207    1.1667112    3.1241810 
H    -0.4439340    1.4963078   -3.2064238 
H     2.4629212    1.6038680    1.6598201 
H    -3.0477435   -3.1668422    2.0466862 
H    -3.9308620    0.3521809    1.9656458 
H     3.9496596    3.8682017   -3.0665959 
H     0.3332555    6.1144379    1.8965660 
H     0.4355345   -3.1171269    5.6325643 
H    -0.5786113    3.1845813    4.3617864 
H     0.6128834    2.2742634   -5.3172870 
H     3.2829859    3.2820876    3.3192146 
H    -3.1004885   -4.8630901    3.8460792 
H    -4.6689313    2.3791584    3.1832121 
H     2.8042693    3.4840092   -5.2564955 
H     2.2020764    5.5351899    3.4529670 
H    -1.3709361   -4.8492864    5.6512532 
H    -3.0061672    3.8119212    4.3793517 
