96
Energy =
C     1.8100437   -2.4591189    1.0459637 
C     2.6203339   -1.7543697    0.0991290 
C     3.1672321   -0.4919417    0.4223812 
H     2.6983553   -2.1392242   -0.9262692 
Pd    0.8685090   -0.5189418    0.5831104 
P     0.3313149    1.5756235   -0.3751674 
P    -1.2449912   -1.0383241    1.4464338 
H     2.0532500   -2.3346246    2.1118991 
H     3.2342764   -0.2462972    1.4940333 
C    -0.2525705   -6.1053059    0.0460791 
C    -0.2278067   -5.0418714   -0.8719957 
C     0.4394767   -3.8545306   -0.5521040 
C     1.0941706   -3.7053568    0.6935092 
C     1.0465376   -4.7748134    1.6115034 
C     0.3848067   -5.9660521    1.2872875 
H    -0.7735380   -7.0350834   -0.2044061 
H    -0.7329666   -5.1392126   -1.8388117 
H     0.4341738   -3.0192296   -1.2638529 
H     1.5339864   -4.6700097    2.5861692 
H     0.3610659   -6.7860294    2.0120647 
C     5.6799143    2.0124786   -2.0010936 
C     5.6054591    2.1938255   -0.6127093 
C     4.7626569    1.3825065    0.1556095 
C     3.9998686    0.3532216   -0.4436047 
C     4.0967922    0.1734491   -1.8440816 
C     4.9183746    1.0010435   -2.6135416 
H     6.3310581    2.6513777   -2.6065138 
H     6.1957579    2.9770164   -0.1266750 
H     4.6923400    1.5418597    1.2371023 
H     3.5265731   -0.6171387   -2.3384933 
H     4.9723545    0.8538618   -3.6970076 
O    -2.7684139    1.8045843   -2.0711356 
O    -3.2701226   -0.4389247   -2.0301242 
C    -2.5366486    1.3267563   -0.7483202 
C    -2.3039054   -0.1730772   -1.0224082 
C    -3.4586960    0.7721360   -2.8036782 
C    -1.4188810    2.1708522   -0.1218325 
C    -2.5152450   -1.1757669    0.1077688 
C    -4.9562155    1.0606676   -2.8621798 
C    -2.7909797    0.6401331   -4.1670618 
C     0.5492966    1.5425927   -2.2005361 
C     1.3091748    3.0208412    0.1951799 
C    -1.4437137   -2.5611202    2.4553153 
C    -1.8224294    0.2671396    2.6087524 
C     0.3320238    2.6977005   -2.9794920 
C     2.4137852    3.4863145   -0.5462531 
C    -0.7598945   -2.6094133    3.6895761 
C    -0.8496147    1.0258652    3.2925059 
C     0.9181952    0.3417674   -2.8350415 
C     0.9845869    3.6481171    1.4188527 
C    -2.2289562   -3.6587637    2.0579432 
C    -3.1880706    0.5010350    2.8669929 
C     0.5035862    2.6486924   -4.3681556 
C     3.1615761    4.5781779   -0.0820377 
C    -0.8746600   -3.7313430    4.5179686 
C    -1.2357065    2.0107267    4.2130243 
C     1.0861908    0.2930985   -4.2261702 
C     1.7405627    4.7336424    1.8780617 
C    -2.3390616   -4.7811867    2.8924097 
C    -3.5705243    1.4966914    3.7766104 
C     0.8850519    1.4498255   -4.9928518 
C     2.8287412    5.2048131    1.1261678 
C    -1.6685614   -4.8196722    4.1217422 
C    -2.5973049    2.2525346    4.4494008 
H    -3.4518540    1.4390860   -0.1257103 
H    -1.2777831   -0.3066791   -1.4282966 
H    -1.5651659    2.2347003    0.9677783 
H    -1.4999686    3.1942961   -0.5262705 
H    -2.3953108   -2.1846046   -0.3235251 
H    -3.5395314   -1.1063664    0.5118876 
H    -5.3521882    1.1997831   -1.8429334 
H    -5.4855547    0.2158807   -3.3323792 
H    -5.1438216    1.9741842   -3.4492753 
H    -1.7296629    0.3789315   -4.0339055 
H    -2.8521920    1.5965937   -4.7112192 
H    -3.2894131   -0.1439930   -4.7594317 
H     0.0345370    3.6373138   -2.5027488 
H     2.6928814    3.0011838   -1.4868389 
H    -0.1461485   -1.7595091    4.0104572 
H     0.2143977    0.8506306    3.0876140 
H     1.0665267   -0.5593790   -2.2273577 
H     0.1364024    3.2982126    2.0158235 
H    -2.7555516   -3.6592240    1.1001204 
H    -3.9597513   -0.0919342    2.3656450 
H     0.3344184    3.5493358   -4.9671475 
H     4.0125577    4.9334530   -0.6719197 
H    -0.3468142   -3.7547696    5.4769507 
H    -0.4724337    2.5926115    4.7401454 
H     1.3729587   -0.6465662   -4.7095186 
H     1.4734872    5.2186154    2.8228961 
H    -2.9510758   -5.6302508    2.5718609 
H    -4.6335092    1.6783766    3.9655265 
H     1.0161164    1.4170516   -6.0793546 
H     3.4137059    6.0588583    1.4827306 
H    -1.7606317   -5.6967986    4.7703815 
H    -2.9016025    3.0267505    5.1610725 
