96
Energy =
C     2.1008060   -2.1662709    0.9807887 
C     2.1776746   -2.0910325   -0.4301051 
C     2.7420484   -0.9482477   -1.0749580 
H     1.6656532   -2.8477337   -1.0373910 
Pd    1.0061228   -0.3344836    0.1672750 
P     0.7605777    1.7926080   -0.8219708 
P    -0.9760098   -0.3478704    1.4204429 
H     2.7853462   -1.5157744    1.5483512 
H     3.5573495   -0.4186366   -0.5614641 
C     0.6244659   -5.4589462    3.3054181 
C     1.3649842   -4.4315299    3.9077518 
C     1.8106318   -3.3498500    3.1397061 
C     1.5303550   -3.2759370    1.7549827 
C     0.7547411   -4.3046217    1.1696861 
C     0.3154285   -5.3860443    1.9364683 
H     0.2814355   -6.3114493    3.9004550 
H     1.6049475   -4.4782586    4.9748973 
H     2.4075573   -2.5588871    3.6086003 
H     0.4951873   -4.2627451    0.1075776 
H    -0.2784029   -6.1760584    1.4668345 
C     2.5341490   -0.3026202   -5.3283039 
C     1.5079664   -1.0096445   -4.6775179 
C     1.5726471   -1.2283502   -3.2979297 
C     2.6635912   -0.7427645   -2.5356376 
C     3.6799458   -0.0254042   -3.2018425 
C     3.6181210    0.1861972   -4.5852771 
H     2.4845606   -0.1327740   -6.4087005 
H     0.6520680   -1.3857907   -5.2477984 
H     0.7556661   -1.7622541   -2.7980948 
H     4.5203256    0.3761868   -2.6255969 
H     4.4183311    0.7438120   -5.0825718 
O    -2.4547868    1.0840299   -3.2351789 
O    -3.3524289   -0.2489561   -1.5952250 
C    -1.8356229    1.4460366   -2.0051038 
C    -2.1115002    0.2314672   -1.0947300 
C    -3.3618602   -0.0230611   -3.0162081 
C    -0.3608337    1.7591587   -2.2945715 
C    -2.2601425    0.5391316    0.4111113 
C    -4.7738298    0.3773684   -3.4196223 
C    -2.8208395   -1.2435931   -3.7649053 
C     2.3459696    2.4940797   -1.4357073 
C     0.1279845    3.1134120    0.2887777 
C    -1.7426246   -1.9887431    1.7393213 
C    -0.9542575    0.4605639    3.0614107 
C     3.4274173    2.5186280   -0.5288891 
C     0.4821769    3.0537968    1.6509869 
C    -2.4021655   -2.6773289    0.6962746 
C    -2.0720974    1.1408047    3.5830501 
C     2.5248817    2.9993123   -2.7362710 
C    -0.6617548    4.1867446   -0.1738832 
C    -1.6819039   -2.5702729    3.0219502 
C     0.2297948    0.3823911    3.8236594 
C     4.6633834    3.0502011   -0.9142589 
C     0.0375009    4.0359174    2.5455453 
C    -3.0108856   -3.9141950    0.9475173 
C    -1.9961516    1.7493426    4.8435412 
C     3.7665838    3.5298827   -3.1189545 
C    -1.1120310    5.1634006    0.7253261 
C    -2.2920636   -3.8081479    3.2621524 
C     0.2977328    0.9810236    5.0887879 
C     4.8349346    3.5579358   -2.2130908 
C    -0.7683942    5.0869142    2.0846003 
C    -2.9604514   -4.4809716    2.2296709 
C    -0.8145659    1.6707414    5.5968140 
H    -2.3411936    2.3355161   -1.5753829 
H    -1.3049805   -0.5238889   -1.2622533 
H    -0.2934662    2.7116213   -2.8470685 
H     0.0430274    0.9668158   -2.9503350 
H    -3.2728179    0.2432613    0.7307025 
H    -2.1377063    1.6183690    0.6109434 
H    -5.0756582    1.2704790   -2.8503104 
H    -5.4784687   -0.4425637   -3.2049198 
H    -4.8062314    0.6058386   -4.4968132 
H    -1.8207340   -1.5100200   -3.3834875 
H    -2.7305552   -1.0139838   -4.8390021 
H    -3.4966857   -2.1048678   -3.6362827 
H     3.2984435    2.1203482    0.4849538 
H     1.0992171    2.2260070    2.0152557 
H    -2.4873540   -2.2413659   -0.3038123 
H    -3.0033863    1.2020880    3.0115048 
H     1.7142107    2.9696021   -3.4692161 
H    -0.9252072    4.2726380   -1.2329655 
H    -1.1733186   -2.0515817    3.8398406 
H     1.1007096   -0.1435501    3.4146434 
H     5.4943140    3.0691260   -0.2015309 
H     0.3099431    3.9670195    3.6033710 
H    -3.5368557   -4.4303196    0.1375380 
H    -2.8651515    2.2842461    5.2402130 
H     3.8967540    3.9147622   -4.1355574 
H    -1.7306478    5.9900354    0.3609873 
H    -2.2430806   -4.2462490    4.2639455 
H     1.2195829    0.9148417    5.6758913 
H     5.8017244    3.9724707   -2.5163899 
H    -1.1268409    5.8505963    2.7824448 
H    -3.4420001   -5.4449879    2.4233086 
H    -0.7610267    2.1458563    6.5818102 
