96
Energy =
C     2.3865877   -1.5541023    1.6650740 
C     2.7564450   -1.6822201    0.3076541 
C     3.1927905   -0.5486638   -0.4440916 
H     2.5929082   -2.6359345   -0.2111218 
Pd    1.1131945   -0.2194415    0.2829268 
P     0.5920673    1.5862578   -1.1117696 
P    -0.9768317   -0.4983202    1.3334663 
H     2.7702772   -0.6721072    2.2015806 
H     3.7077530    0.2537676    0.1054247 
C     1.1124795   -4.7070115    4.2911005 
C     1.7428688   -3.5609162    4.7973792 
C     2.1311909   -2.5330754    3.9295524 
C     1.9274519   -2.6466017    2.5348552 
C     1.3065796   -3.8162751    2.0369824 
C     0.8925918   -4.8283081    2.9071518 
H     0.7950507   -5.5058769    4.9691312 
H     1.9212673   -3.4603862    5.8727882 
H     2.6030190   -1.6302342    4.3320421 
H     1.1262966   -3.9277813    0.9646203 
H     0.3971131   -5.7179157    2.5053083 
C     4.2581588   -0.9164608   -4.5967396 
C     5.0153905   -0.1094952   -3.7353283 
C     4.6461325    0.0292050   -2.3916680 
C     3.5206268   -0.6506808   -1.8811587 
C     2.7550951   -1.4480122   -2.7639570 
C     3.1202779   -1.5797902   -4.1077778 
H     4.5468909   -1.0229103   -5.6474345 
H     5.8959368    0.4206199   -4.1120530 
H     5.2398335    0.6638126   -1.7256422 
H     1.8560316   -1.9548507   -2.3924884 
H     2.5164511   -2.2001329   -4.7785047 
O    -3.1574924    1.3614711   -2.7624895 
O    -4.1364112    0.5030486   -0.8674711 
C    -2.2356973    1.4851121   -1.6833200 
C    -2.7226258    0.3896842   -0.7218087 
C    -4.4117012    0.8632738   -2.2356735 
C    -0.8374562    1.3562287   -2.2847836 
C    -2.3955322    0.5669051    0.7644177 
C    -5.4600422    1.9701476   -2.2264352 
C    -4.8057763   -0.3675266   -3.0489496 
C     1.9187775    2.2224513   -2.2127272 
C     0.1718774    3.0715374   -0.1113232 
C    -1.6147265   -2.1787845    0.9443689 
C    -1.0571164   -0.3191815    3.1565838 
C     2.9091121    3.0625864   -1.6609643 
C    -0.3102530    4.2470004   -0.7262174 
C    -1.0782714   -2.8636033   -0.1651234 
C    -1.2596703    0.9575358    3.7281739 
C     1.9794282    1.8849778   -3.5792644 
C     0.3762917    3.0524570    1.2815576 
C    -2.6858069   -2.7529436    1.6589318 
C    -0.8683093   -1.4297441    4.0053873 
C     3.9230984    3.5844182   -2.4744777 
C    -0.6091862    5.3725868    0.0511792 
C    -1.5885914   -4.1124254   -0.5450109 
C    -1.2785606    1.1146039    5.1197013 
C     2.9962580    2.4126631   -4.3873161 
C     0.0840653    4.1853608    2.0567731 
C    -3.1868029   -4.0066224    1.2835474 
C    -0.8956050   -1.2644396    5.3975025 
C     3.9629671    3.2681137   -3.8410776 
C    -0.4150547    5.3426126    1.4426565 
C    -2.6386846   -4.6884270    0.1854489 
C    -1.0976587    0.0037852    5.9586073 
H    -2.3484292    2.4718788   -1.1860349 
H    -2.3765585   -0.6003900   -1.0921638 
H    -0.7435430    2.1122936   -3.0831464 
H    -0.7293204    0.3631438   -2.7546827 
H    -3.2776338    0.2580839    1.3510230 
H    -2.1830742    1.6236102    1.0006998 
H    -5.0793296    2.8345750   -1.6588125 
H    -6.3857857    1.6112782   -1.7475660 
H    -5.6875601    2.2852808   -3.2574969 
H    -4.0289380   -1.1439485   -2.9525562 
H    -4.9070525   -0.1009387   -4.1136961 
H    -5.7646601   -0.7716769   -2.6860117 
H     2.8722129    3.3310851   -0.5990883 
H    -0.4455330    4.2871140   -1.8127521 
H    -0.2529068   -2.4072618   -0.7278623 
H    -1.4127921    1.8352603    3.0931235 
H     1.2439339    1.2095188   -4.0254073 
H     0.7677731    2.1443227    1.7576901 
H    -3.1259326   -2.2260741    2.5123259 
H    -0.7120719   -2.4272476    3.5845220 
H     4.6773332    4.2492852   -2.0408393 
H    -0.9898157    6.2791952   -0.4301828 
H    -1.1652480   -4.6363662   -1.4082807 
H    -1.4448204    2.1079756    5.5494384 
H     3.0326474    2.1459419   -5.4481046 
H     0.2495179    4.1611803    3.1389476 
H    -4.0132790   -4.4505111    1.8479404 
H    -0.7548586   -2.1380424    6.0419308 
H     4.7511427    3.6828988   -4.4776851 
H    -0.6467615    6.2266969    2.0454840 
H    -3.0359044   -5.6666118   -0.1046898 
H    -1.1195217    0.1274287    7.0462274 
