96
Energy =
C     1.8354908   -2.4219642    1.1357007 
C     2.6231047   -1.7559451    0.1475148 
C     3.1066129   -0.4453097    0.3671637 
H     2.7451344   -2.2209126   -0.8394445 
Pd    0.8176746   -0.5501118    0.4994965 
P     0.3214300    1.5640334   -0.4341327 
P    -1.3036099   -1.0309774    1.3834968 
H     2.0259514   -2.1643439    2.1885542 
H     3.1694363   -0.1096976    1.4141404 
C     0.2661846   -6.3737263    0.4805283 
C     0.2629831   -5.4401945   -0.5694338 
C     0.7490509   -4.1455667   -0.3590853 
C     1.2519578   -3.7590579    0.9054524 
C     1.2214557   -4.6977429    1.9584155 
C     0.7407843   -5.9955187    1.7448014 
H    -0.1099550   -7.3884340    0.3145613 
H    -0.1218248   -5.7240016   -1.5546376 
H     0.7250025   -3.4163569   -1.1780211 
H     1.5888624   -4.4086790    2.9486497 
H     0.7326057   -6.7127623    2.5716836 
C     5.5895704    1.8622880   -2.2743527 
C     5.5812537    2.1096690   -0.8944835 
C     4.7439171    1.3669453   -0.0537136 
C     3.9224618    0.3397749   -0.5712344 
C     3.9493643    0.0949382   -1.9644838 
C     4.7654224    0.8547034   -2.8063545 
H     6.2357019    2.4486872   -2.9357236 
H     6.2185867    2.8925113   -0.4712105 
H     4.7245101    1.5799812    1.0205969 
H     3.3235307   -0.6908426   -2.3961706 
H     4.7640592    0.6587468   -3.8834552 
O    -2.8409537    2.0735808   -1.9362806 
O    -3.5013807   -0.1297434   -1.9311892 
C    -2.5722321    1.5329684   -0.6448773 
C    -2.4584776    0.0336101   -0.9785670 
C    -3.6324900    1.1116930   -2.6658804 
C    -1.3644509    2.2682134   -0.0533089 
C    -2.6726106   -0.9867147    0.1318378 
C    -5.1058005    1.5082594   -2.6543275 
C    -3.0307381    0.9688453   -4.0587556 
C     0.4351155    1.5498967   -2.2666648 
C     1.4108333    2.9382551    0.1147076 
C    -1.5942059   -2.6049093    2.2894358 
C    -1.7127012    0.2440882    2.6476249 
C     0.2107913    2.7188131   -3.0229570 
C     1.2484419    3.4609812    1.4174699 
C    -1.2576624   -2.6764175    3.6584168 
C    -3.0393962    0.5697510    2.9950613 
C     0.7371821    0.3449507   -2.9291996 
C     2.4211725    3.4612257   -0.7157503 
C    -2.1086958   -3.7493660    1.6476309 
C    -0.6484762    0.8868310    3.3146085 
C     0.3158244    2.6802016   -4.4186472 
C     2.0668793    4.5036738    1.8679731 
C    -1.4629543   -3.8621879    4.3757889 
C    -3.2926236    1.5418276    3.9728442 
C     0.8363506    0.3071886   -4.3271837 
C     3.2314645    4.5119342   -0.2600109 
C    -2.3175107   -4.9299281    2.3729546 
C    -0.9048552    1.8489627    4.3021416 
C     0.6336756    1.4781505   -5.0719189 
C     3.0573016    5.0368338    1.0269646 
C    -2.0025277   -4.9886315    3.7375093 
C    -2.2282882    2.1837360    4.6255364 
H    -3.4427700    1.6844678    0.0311787 
H    -1.4713208   -0.1537204   -1.4534820 
H    -1.4397175    2.2903033    1.0457731 
H    -1.3933466    3.3133470   -0.4058027 
H    -2.6990567   -1.9824706   -0.3407357 
H    -3.6480948   -0.8389176    0.6251986 
H    -5.4489231    1.6459097   -1.6159553 
H    -5.7135895    0.7174433   -3.1235461 
H    -5.2495725    2.4493918   -3.2092528 
H    -1.9887495    0.6221455   -3.9769163 
H    -3.0379044    1.9423415   -4.5752949 
H    -3.6117149    0.2427452   -4.6498758 
H    -0.0418611    3.6598670   -2.5242875 
H     0.4758065    3.0622538    2.0828309 
H    -0.8553351   -1.7977592    4.1736902 
H    -3.8817601    0.0664345    2.5102399 
H     0.8854333   -0.5675368   -2.3377270 
H     2.5840349    3.0493459   -1.7163422 
H    -2.3483097   -3.7379730    0.5807710 
H     0.3857365    0.6345135    3.0463043 
H     0.1426693    3.5912891   -5.0004372 
H     1.9250196    4.9072961    2.8760393 
H    -1.2106821   -3.9001547    5.4405897 
H    -4.3263172    1.7944352    4.2301987 
H     1.0709554   -0.6349263   -4.8332673 
H     4.0091403    4.9120472   -0.9183569 
H    -2.7217851   -5.8090598    1.8617440 
H    -0.0707465    2.3394175    4.8146934 
H     0.7122554    1.4535950   -6.1636939 
H     3.6909981    5.8581809    1.3770217 
H    -2.1713963   -5.9117855    4.3012014 
H    -2.4318076    2.9408264    5.3896920 
