96
Energy =
C     3.0327244   -0.7385177   -0.4665490 
C     2.5972564   -1.3362940    0.7497833 
C     1.7727607   -2.4870609    0.7339032 
H     2.8061364   -0.8410367    1.7061798 
Pd    0.7758749   -0.7253599   -0.3297006 
P    -1.4296070   -1.3172604    0.2685733 
P     0.5304426    1.1353696   -1.7480408 
H     3.0935341   -1.4027106   -1.3406522 
H     1.7909799   -3.1000911   -0.1808001 
C     5.6579606    2.6552677   -0.7302543 
C     5.4788846    1.8022664   -1.8288764 
C     4.5981897    0.7172759   -1.7384309 
C     3.8828910    0.4617045   -0.5462014 
C     4.0479443    1.3516920    0.5412349 
C     4.9323875    2.4294702    0.4516810 
H     6.3528320    3.4988000   -0.7953622 
H     6.0340352    1.9752549   -2.7566106 
H     4.4717019    0.0467425   -2.5953004 
H     3.4774090    1.2047966    1.4636931 
H     5.0510080    3.1044540    1.3049279 
C     0.4056095   -4.6419290    4.1922187 
C     0.6079493   -3.2539443    4.2785626 
C     1.0485819   -2.5365768    3.1627452 
C     1.2822522   -3.1903244    1.9312924 
C     1.0621839   -4.5834264    1.8555955 
C     0.6388440   -5.3038448    2.9782172 
H     0.0649484   -5.2026270    5.0687575 
H     0.4215017   -2.7290710    5.2211566 
H     1.1993124   -1.4565470    3.2463802 
H     1.2242966   -5.1024741    0.9052206 
H     0.4791845   -6.3838828    2.9003361 
O    -4.1409071    0.9188288   -0.0875863 
O    -2.9319448    2.7638618   -0.7694453 
C    -3.2255409    0.5244641   -1.1039142 
C    -2.1418692    1.5974595   -0.9540717 
C    -4.0860179    2.3677848    0.0081503 
C    -2.8206324   -0.9377214   -0.9233874 
C    -1.1878106    1.7661244   -2.1345713 
C    -5.3200574    2.9876237   -0.6363084 
C    -3.8883332    2.7365063    1.4746027 
C    -1.9313791   -0.5813304    1.8704880 
C    -1.6563971   -3.1376946    0.4067873 
C     1.2999996    2.6133073   -0.9691269 
C     1.2394567    0.9485422   -3.4290525 
C    -3.2324128   -0.7365847    2.3927161 
C    -1.2930965   -3.9115103   -0.7171170 
C     0.8570096    2.9661924    0.3255635 
C     1.1812236    2.0038320   -4.3666972 
C    -0.9849538    0.1767245    2.5885058 
C    -2.1841080   -3.7745820    1.5441537 
C     2.2856421    3.3970284   -1.5970736 
C     1.7820653   -0.2903098   -3.8229234 
C    -3.5613738   -0.1704731    3.6308565 
C    -1.4898204   -5.2980550   -0.7144811 
C     1.3664645    4.1044433    0.9618676 
C     1.6915302    1.8262230   -5.6592633 
C    -1.3211371    0.7530804    3.8213080 
C    -2.3757120   -5.1644668    1.5419487 
C     2.7950570    4.5328574   -0.9515223 
C     2.2881885   -0.4662366   -5.1186291 
C    -2.6082671    0.5700674    4.3480244 
C    -2.0394397   -5.9262892    0.4148229 
C     2.3338488    4.8942003    0.3215025 
C     2.2510701    0.5945998   -6.0349285 
H    -3.6933990    0.6368021   -2.1072729 
H    -1.5746141    1.3778609   -0.0214942 
H    -2.4851902   -1.3541062   -1.8895392 
H    -3.7072564   -1.5192986   -0.6175796 
H    -1.1093637    2.8363355   -2.3874066 
H    -1.5492516    1.2317103   -3.0309020 
H    -5.4161711    2.6331158   -1.6751854 
H    -5.2300676    4.0861995   -0.6447419 
H    -6.2237845    2.7050667   -0.0727267 
H    -2.9474592    2.3000640    1.8471667 
H    -4.7188078    2.3411616    2.0812277 
H    -3.8498634    3.8322748    1.5851833 
H    -3.9945628   -1.2845672    1.8315329 
H    -0.8516788   -3.4267324   -1.5974001 
H     0.1080481    2.3533698    0.8387927 
H     0.7395492    2.9672525   -4.0905301 
H     0.0186349    0.3153182    2.1666848 
H    -2.4254529   -3.1971618    2.4409862 
H     2.6768400    3.1158440   -2.5781204 
H     1.7948747   -1.1232377   -3.1117207 
H    -4.5721771   -0.2969412    4.0318492 
H    -1.2132635   -5.8893575   -1.5936624 
H     1.0065358    4.3740113    1.9602582 
H     1.6481287    2.6517090   -6.3771852 
H    -0.5787947    1.3423464    4.3695297 
H    -2.7800779   -5.6523863    2.4345998 
H     3.5669515    5.1300943   -1.4472335 
H     2.7075297   -1.4337992   -5.4131394 
H    -2.8742226    1.0151010    5.3123447 
H    -2.1939366   -7.0101667    0.4180197 
H     2.7338278    5.7836383    0.8190746 
H     2.6481194    0.4598651   -7.0462882 
