96
Energy =
C     2.9578683   -1.3544754   -1.1024068 
C     2.6873501   -1.7728524    0.2217612 
C     1.6710720   -2.7287144    0.5002070 
H     3.1824282   -1.2721598    1.0639150 
Pd    0.7823586   -0.9140088   -0.4829272 
P    -1.4096343   -1.3148804    0.3122922 
P     0.5158276    1.1450802   -1.5911864 
H     2.6095433   -2.0143011   -1.9119456 
H     1.4357158   -3.4609072   -0.2869571 
C     6.0680242    1.3326721   -2.3644738 
C     5.7135922    1.2775464   -1.0060968 
C     4.7006374    0.4151627   -0.5767674 
C     4.0084974   -0.4051894   -1.4993171 
C     4.3816332   -0.3404797   -2.8612286 
C     5.4020200    0.5153965   -3.2889604 
H     6.8653335    2.0051284   -2.6969854 
H     6.2389306    1.9027316   -0.2767408 
H     4.4625309    0.3679708    0.4910435 
H     3.8663228   -0.9765062   -3.5878863 
H     5.6751478    0.5459161   -4.3481013 
C     0.7717600   -4.0073108    4.5076514 
C     0.9756212   -2.6429077    4.2409189 
C     1.2639765   -2.2183886    2.9400958 
C     1.3416031   -3.1479893    1.8783668 
C     1.1190210   -4.5127162    2.1561845 
C     0.8472864   -4.9390456    3.4621563 
H     0.5486924   -4.3402312    5.5265702 
H     0.9041570   -1.9077401    5.0492689 
H     1.4042462   -1.1514284    2.7349828 
H     1.1585309   -5.2424141    1.3408548 
H     0.6818129   -6.0027648    3.6609832 
O    -4.2563603    0.7281768   -0.4678977 
O    -3.1001197    2.5369176   -1.3105527 
C    -3.2421924    0.2605805   -1.3558401 
C    -2.2347197    1.4059043   -1.2530252 
C    -4.2861092    2.1776949   -0.5599882 
C    -2.7905687   -1.1416835   -0.9476471 
C    -1.1491391    1.5216146   -2.3209978 
C    -5.5010878    2.6321711   -1.3587884 
C    -4.2076596    2.7474346    0.8522472 
C    -1.8999432   -0.3056816    1.7605526 
C    -1.6948819   -3.0705584    0.7912413 
C     0.7584241    2.4500646   -0.3185300 
C     1.6200546    1.5731451   -2.9913703 
C    -3.1917298   -0.4005783    2.3208179 
C    -1.5378132   -4.0540845   -0.2098677 
C     1.8522856    2.2955624    0.5609962 
C     1.5362454    0.7898443   -4.1625402 
C    -0.9652409    0.5898639    2.3169321 
C    -2.0656791   -3.4619568    2.0905395 
C    -0.1156219    3.5428240   -0.1441070 
C     2.4926104    2.6766990   -2.9531909 
C    -3.5244435    0.3701903    3.4415482 
C    -1.7852613   -5.4021856    0.0772526 
C     2.0749502    3.2163531    1.5914951 
C     2.2874976    1.1315894   -5.2939532 
C    -1.3095452    1.3731534    3.4272832 
C    -2.3107202   -4.8143427    2.3722045 
C     0.1029386    4.4529671    0.9014336 
C     3.2547031    3.0028790   -4.0842464 
C    -2.5858894    1.2550733    3.9969453 
C    -2.1814059   -5.7839261    1.3691441 
C     1.1939215    4.2954950    1.7679106 
C     3.1458084    2.2417328   -5.2566442 
H    -3.6316817    0.2182486   -2.3969156 
H    -1.7739572    1.3494989   -0.2418177 
H    -2.4287876   -1.6874942   -1.8362398 
H    -3.6662244   -1.6954071   -0.5684410 
H    -1.1334355    2.5431217   -2.7372012 
H    -1.3155779    0.8316017   -3.1661278 
H    -5.5061890    2.1385427   -2.3437619 
H    -5.4684689    3.7236372   -1.5096190 
H    -6.4258290    2.3717443   -0.8191822 
H    -3.2557603    2.4545039    1.3239804 
H    -5.0359813    2.3577920    1.4654321 
H    -4.2714813    3.8472291    0.8181443 
H    -3.9399811   -1.0660966    1.8805691 
H    -1.2203904   -3.7681222   -1.2204269 
H     2.5313790    1.4480181    0.4290766 
H     0.8796604   -0.0886897   -4.1932756 
H     0.0278998    0.6871896    1.8650152 
H    -2.1469201   -2.7207430    2.8902509 
H    -0.9865716    3.6863573   -0.7901568 
H     2.5747366    3.2833299   -2.0460796 
H    -4.5266236    0.2903008    3.8749048 
H    -1.6700913   -6.1557016   -0.7089083 
H     2.9328367    3.0888244    2.2600809 
H     2.2067593    0.5278121   -6.2038364 
H    -0.5784918    2.0744480    3.8418994 
H    -2.5929898   -5.1078682    3.3882789 
H    -0.5887880    5.2909695    1.0356918 
H     3.9345624    3.8601058   -4.0468643 
H    -2.8558613    1.8611329    4.8679765 
H    -2.3769512   -6.8374414    1.5936877 
H     1.3585652    5.0122106    2.5791813 
H     3.7354203    2.5078182   -6.1399438 
