96
Energy =
C     2.1197767   -2.2662220    0.9654278 
C     2.3769539   -2.0582642   -0.4094379 
C     2.9583077   -0.8548776   -0.9014499 
H     1.9753092   -2.7750048   -1.1373529 
Pd    1.0531948   -0.3895713    0.1613312 
P     0.6846017    1.6723913   -0.9008827 
P    -0.8782160   -0.3728653    1.5011559 
H     2.6685980   -1.6389010    1.6854221 
H     3.6528600   -0.3120899   -0.2426809 
C     0.3700917   -5.8229844    2.6356955 
C     0.8181878   -5.8250820    1.3056352 
C     1.3819603   -4.6721648    0.7502493 
C     1.5209229   -3.4927732    1.5190279 
C     1.0847557   -3.5147985    2.8635604 
C     0.5070847   -4.6628086    3.4132434 
H    -0.0775600   -6.7240971    3.0668363 
H     0.7320311   -6.7324352    0.6989842 
H     1.7417608   -4.7012513   -0.2831174 
H     1.1808258   -2.6127081    3.4766418 
H     0.1594339   -4.6523181    4.4509146 
C     3.5261467   -0.1986820   -5.1175044 
C     2.3357213   -0.7862804   -4.6572030 
C     2.1395164   -0.9925648   -3.2874151 
C     3.1278557   -0.6108893   -2.3501521 
C     4.3098557   -0.0057022   -2.8246747 
C     4.5099540    0.1902356   -4.1969681 
H     3.6813520   -0.0401235   -6.1896113 
H     1.5589228   -1.0834551   -5.3696391 
H     1.2028629   -1.4404971   -2.9328738 
H     5.0772600    0.3106643   -2.1107876 
H     5.4358043    0.6574565   -4.5473446 
O    -2.8351697    1.0584418   -2.8984381 
O    -3.7877803    0.0364756   -1.0723030 
C    -2.0598998    1.3836346   -1.7497955 
C    -2.4107696    0.2396183   -0.7796307 
C    -3.9919839    0.2961350   -2.4747148 
C    -0.6115525    1.5354954   -2.2208929 
C    -2.2778633    0.5662700    0.7169722 
C    -5.2589077    1.1313833   -2.6167567 
C    -4.0093038   -1.0087388   -3.2683122 
C     2.1318189    2.4248917   -1.7506105 
C     0.1505793    3.0347625    0.2118131 
C    -1.6522384   -2.0150495    1.7798566 
C    -0.6913961    0.3739096    3.1658143 
C     3.2210781    2.8091895   -0.9391799 
C    -0.5805186    4.1456166   -0.2602438 
C    -2.3584811   -2.3115701    2.9627336 
C    -1.7375328    1.0744956    3.8006585 
C     2.1939376    2.6402191   -3.1393272 
C     0.5296398    2.9820580    1.5667420 
C    -1.5863684   -2.9740066    0.7493526 
C     0.5526019    0.2552862    3.8204906 
C     4.3434903    3.4219180   -1.5075338 
C    -0.9554780    5.1637556    0.6260179 
C    -3.0053096   -3.5468062    3.1001346 
C    -1.5389990    1.6412184    5.0681074 
C     3.3218228    3.2560143   -3.7028238 
C     0.1584646    4.0056581    2.4499163 
C    -2.2398421   -4.2043463    0.8900368 
C     0.7472461    0.8194450    5.0877442 
C     4.3928334    3.6529111   -2.8920337 
C    -0.5931211    5.0923270    1.9816459 
C    -2.9507773   -4.4914786    2.0644563 
C    -0.2998634    1.5148127    5.7132808 
H    -2.4125894    2.3351589   -1.2976430 
H    -1.8160389   -0.6642322   -1.0490043 
H    -0.5539835    2.4188192   -2.8796251 
H    -0.3395167    0.6556770   -2.8297244 
H    -3.2170641    0.2738786    1.2144101 
H    -2.1162609    1.6458150    0.8834704 
H    -5.1479820    2.0693198   -2.0492073 
H    -6.1251925    0.5765184   -2.2208429 
H    -5.4384837    1.3688435   -3.6775822 
H    -3.0884083   -1.5810280   -3.0674835 
H    -4.0609383   -0.7941282   -4.3482645 
H    -4.8809620   -1.6181384   -2.9796834 
H     3.1831356    2.6428376    0.1439377 
H    -0.8538853    4.2259096   -1.3175526 
H    -2.3997256   -1.5830286    3.7788613 
H    -2.7104577    1.1864765    3.3129574 
H     1.3826463    2.3194970   -3.7980002 
H     1.1113836    2.1308966    1.9345449 
H    -1.0045306   -2.7623763   -0.1555835 
H     1.3788831   -0.2625830    3.3208416 
H     5.1788246    3.7260326   -0.8683010 
H    -1.5294816    6.0194691    0.2559093 
H    -3.5516880   -3.7723486    4.0218161 
H    -2.3570145    2.1851930    5.5514872 
H     3.3614966    3.4152821   -4.7850728 
H     0.4492781    3.9422411    3.5033321 
H    -2.1787068   -4.9465628    0.0881724 
H     1.7180172    0.7222882    5.5845214 
H     5.2688000    4.1360407   -3.3367515 
H    -0.8928585    5.8897852    2.6693595 
H    -3.4546315   -5.4569605    2.1765426 
H    -0.1485539    1.9601240    6.7019513 
