124
Energy =
C     0.6398456    3.2139140    0.9029258 
C     1.1260719    3.4209023   -0.4278135 
C     0.2728018    3.5447220   -1.5382017 
H     2.2089516    3.3621282   -0.5953900 
Pd    0.0201211    1.4998449   -0.3394829 
P    -0.5354577   -0.0030314   -2.1040173 
P    -0.3872915    0.0270394    1.4216720 
H    -0.3369716    3.6468009    1.1640146 
H    -0.7954979    3.7273049   -1.3487506 
C     3.4059199    2.7714301    4.1755802 
C     2.2120756    3.4875116    4.3456662 
C     1.3084420    3.6158486    3.2833374 
C     1.5835590    3.0337759    2.0284504 
C     2.7840057    2.3022604    1.8744409 
C     3.6857031    2.1728615    2.9358263 
H     4.1140444    2.6762915    5.0052810 
H     1.9801244    3.9469993    5.3116954 
H     0.3798746    4.1785272    3.4230994 
H     2.9970185    1.8099281    0.9189059 
H     4.6094520    1.6006386    2.7976713 
C     1.4796363    4.1904032   -5.6145494 
C     0.1259286    4.0368615   -5.2820621 
C    -0.2539726    3.8445602   -3.9491862 
C     0.7131571    3.7851913   -2.9196184 
C     2.0752042    3.9679435   -3.2676735 
C     2.4513723    4.1661926   -4.5989491 
H     1.7779982    4.3431584   -6.6567672 
H    -0.6406282    4.0672341   -6.0629830 
H    -1.3124448    3.7256037   -3.6973325 
H     2.8485352    3.9605550   -2.4930795 
H     3.5078837    4.3110011   -4.8476713 
C    -3.0726940   -0.5361532    0.6794895 
C    -4.2861886   -1.2443208    0.7624252 
C    -5.4226874   -0.9520987   -0.1912902 
C    -4.3989849   -2.2593205    1.7283510 
C    -3.3439739   -2.5810945    2.6062487 
C    -3.5020068   -3.6881348    3.6250804 
C    -2.1433907   -1.8612993    2.4970474 
C    -2.0025982   -0.8514190    1.5259836 
C    -0.2547081    0.6395418    3.1463205 
C     0.7016818    0.2274856    4.0831431 
C     0.6529144    0.7014361    5.4117978 
C     1.7004317    0.2548723    6.4059151 
C    -0.3699516    1.5910443    5.7717796 
C    -1.3389751    2.0303403    4.8444840 
C    -1.2677483    1.5456362    3.5315062 
C    -2.4069737    3.0178109    5.2584345 
C     0.8356553   -1.2562077    1.0608680 
C     2.2697614   -1.3932999    1.5678011 
C     2.2703913   -2.7003410    2.4282876 
C     2.0776967   -3.8058498    1.3553194 
C     3.0068084   -1.8522453    0.2692087 
C     4.4518869   -2.3396646    0.4916053 
C     3.0597878   -0.7555385   -0.8047017 
C     1.9572746   -3.0099839    0.0017351 
C     2.1386207   -3.8548043   -1.2519676 
C     0.6353481   -2.2148046    0.1067798 
C    -0.6172735   -2.5006436   -0.6457834 
C    -1.3625060   -3.6536440   -0.4215300 
C    -1.1656070   -4.7464253    0.5904942 
S    -2.7589490   -3.7055402   -1.4461681 
C    -2.3960424   -2.1888943   -2.2047234 
C    -3.3409062   -1.7392781   -3.2899199 
C    -1.2343489   -1.6424479   -1.6598440 
C    -1.7762602    0.8787554   -3.1476729 
C    -1.7195204    0.8627006   -4.5544774 
C    -2.6732347    1.5638053   -5.3070996 
C    -3.6869617    2.2915314   -4.6666881 
C    -3.7336636    2.3355072   -3.2631611 
C    -2.7761150    1.6435900   -2.5099594 
C     0.7840309   -0.4371260   -3.3096711 
C     1.7459266    0.5334514   -3.6466717 
C     2.7288132    0.2526784   -4.6022132 
C     2.7667977   -1.0074073   -5.2210473 
C     1.8122487   -1.9797010   -4.8868317 
C     0.8187802   -1.6980164   -3.9364386 
H    -2.9539570    0.2508732   -0.0702155 
H    -6.3849032   -0.8609506    0.3417427 
H    -5.5309355   -1.7739749   -0.9234567 
H    -5.2491339   -0.0208801   -0.7558238 
H    -5.3382490   -2.8215715    1.8000326 
H    -3.6369156   -4.6654046    3.1256516 
H    -2.6206487   -3.7617818    4.2828724 
H    -4.3910762   -3.5228744    4.2590762 
H    -1.3097892   -2.0891135    3.1719598 
H     1.4934420   -0.4694163    3.8047637 
H     1.7414863   -0.8470244    6.4744614 
H     2.7022851    0.6001270    6.0911137 
H     1.5019707    0.6544302    7.4135006 
H    -0.4157104    1.9594986    6.8038215 
H    -2.0217244    1.8604984    2.7989790 
H    -2.8815708    2.7184634    6.2090693 
H    -1.9704942    4.0221447    5.4164801 
H    -3.1951269    3.1087434    4.4929751 
H     2.6876895   -0.5061240    2.0658298 
H     1.4619095   -2.6916939    3.1777486 
H     3.2238209   -2.8086715    2.9723274 
H     2.9441649   -4.4867458    1.3066172 
H     1.1942882   -4.4280186    1.5418825 
H     5.0703832   -1.5072236    0.8724596 
H     4.8917787   -2.6646089   -0.4676647 
H     4.5443098   -3.1759974    1.2005201 
H     3.8405083   -0.0165936   -0.5498774 
H     3.3123134   -1.1733249   -1.7940696 
H     2.1050474   -0.2128907   -0.8974875 
H     2.1165761   -3.2290046   -2.1592450 
H     3.1030140   -4.3905946   -1.2231758 
H     1.3355173   -4.6065677   -1.3447438 
H    -2.0900533   -5.3312325    0.7221161 
H    -0.3650411   -5.4471506    0.2931344 
H    -0.9004067   -4.3102766    1.5685988 
H    -3.8489344   -0.7960395   -3.0307970 
H    -4.1153786   -2.5059696   -3.4554552 
H    -2.8133852   -1.5815285   -4.2444027 
H    -0.9313775    0.3005467   -5.0644883 
H    -2.6199493    1.5424708   -6.4005532 
H    -4.4310752    2.8353457   -5.2576235 
H    -4.5095026    2.9179202   -2.7554287 
H    -2.7979755    1.7069679   -1.4158803 
H     1.7242305    1.5108331   -3.1591704 
H     3.4670002    1.0195275   -4.8585623 
H     3.5399738   -1.2317585   -5.9632840 
H     1.8383235   -2.9636184   -5.3667010 
H     0.0752324   -2.4586507   -3.6769123 
