124
Energy =
C     0.6187660    3.2203526    0.8926436 
C     1.1202888    3.4219101   -0.4333183 
C     0.2800189    3.5368960   -1.5544708 
H     2.2053102    3.3658724   -0.5875121 
Pd    0.0196592    1.4979099   -0.3474766 
P    -0.5080792   -0.0172287   -2.1106022 
P    -0.4055733    0.0345011    1.4172228 
H    -0.3622077    3.6519838    1.1399018 
H    -0.7911134    3.7167419   -1.3788065 
C     3.3486185    2.8038729    4.1989674 
C     3.6431399    2.1976283    2.9663834 
C     2.7531360    2.3186713    1.8942010 
C     1.5499347    3.0492187    2.0300272 
C     1.2598718    3.6390238    3.2779021 
C     2.1518410    3.5191233    4.3510279 
H     4.0475839    2.7153155    5.0371172 
H     4.5692409    1.6259708    2.8423039 
H     2.9774180    1.8203801    0.9443270 
H     0.3289065    4.2010588    3.4036320 
H     1.9084515    3.9845572    5.3113862 
C     1.5330621    4.1665643   -5.6194080 
C     0.1760340    4.0101197   -5.3022007 
C    -0.2189832    3.8229227   -3.9729979 
C     0.7360439    3.7716837   -2.9317844 
C     2.1015358    3.9571539   -3.2646184 
C     2.4927874    4.1503074   -4.5922896 
H     1.8432238    4.3154584   -6.6587374 
H    -0.5813422    4.0342720   -6.0922459 
H    -1.2799754    3.7017104   -3.7331057 
H     2.8656795    3.9560180   -2.4809260 
H     3.5516954    4.2974215   -4.8291874 
C    -2.1717575   -1.8504014    2.4822970 
C    -3.3715046   -2.5734106    2.5791702 
C    -3.5405183   -3.6739323    3.6032875 
C    -4.4145002   -2.2617326    1.6834675 
C    -4.2909072   -1.2532624    0.7119863 
C    -5.4143609   -0.9714025   -0.2601205 
C    -3.0787116   -0.5415786    0.6418169 
C    -2.0200225   -0.8471822    1.5060032 
C    -0.2959158    0.6577689    3.1396232 
C     0.6505311    0.2546636    4.0903777 
C     0.5846399    0.7370062    5.4152078 
C     1.6213451    0.2997059    6.4246714 
C    -0.4449697    1.6259275    5.7573113 
C    -1.4042384    2.0562317    4.8158329 
C    -1.3160994    1.5632158    3.5069381 
C    -2.4796161    3.0436940    5.2102059 
C     0.8246961   -1.2480613    1.0797445 
C     2.2524797   -1.3789397    1.6058689 
C     2.2448035   -2.6805085    2.4745289 
C     2.0677224   -3.7930795    1.4061605 
C     3.0070684   -1.8444351    0.3197616 
C     4.4501131   -2.3274917    0.5638253 
C     3.0717197   -0.7543171   -0.7602185 
C     1.9634350   -3.0059878    0.0460850 
C     2.1627777   -3.8584216   -1.1996949 
C     0.6386832   -2.2128702    0.1290340 
C    -0.6033125   -2.5061697   -0.6381371 
C    -1.3489221   -3.6594662   -0.4166353 
C    -1.1636709   -4.7451244    0.6052153 
S    -2.7304711   -3.7217740   -1.4607151 
C    -2.3604841   -2.2093766   -2.2242542 
C    -3.2903524   -1.7700082   -3.3264784 
C    -1.2081193   -1.6562043   -1.6664407 
C    -1.7374548    0.8543878   -3.1760974 
C    -1.6613466    0.8308028   -4.5818692 
C    -2.6074667    1.5238045   -5.3513899 
C    -3.6328274    2.2508742   -4.7290103 
C    -3.6989199    2.3024769   -3.3265249 
C    -2.7489816    1.6187086   -2.5564313 
C     0.8291328   -0.4536145   -3.2956200 
C     1.7916250    0.5187307   -3.6257680 
C     2.7886173    0.2358273   -4.5659285 
C     2.8401115   -1.0280640   -5.1759871 
C     1.8848993   -2.0020319   -4.8486391 
C     0.8773977   -1.7182935   -3.9137489 
H    -1.3474332   -2.0705193    3.1710159 
H    -3.6554912   -4.6563387    3.1088671 
H    -4.4442750   -3.5124854    4.2170977 
H    -2.6724729   -3.7340640    4.2799001 
H    -5.3528183   -2.8267131    1.7453732 
H    -5.2327842   -0.0465654   -0.8325709 
H    -5.5132723   -1.8013819   -0.9843700 
H    -6.3835767   -0.8738303    0.2589718 
H    -2.9516805    0.2404861   -0.1116955 
H     1.4476248   -0.4415552    3.8259024 
H     2.6266513    0.6415730    6.1173397 
H     1.4122377    0.7089628    7.4261917 
H     1.6611077   -0.8015117    6.5042796 
H    -0.5038854    2.0009787    6.7862899 
H    -2.0622513    1.8710682    2.7635131 
H    -3.2643882    3.1191702    4.4396056 
H    -2.9571995    2.7558968    6.1628471 
H    -2.0492986    4.0526801    5.3553278 
H     2.6621664   -0.4877158    2.1034950 
H     1.4270503   -2.6687821    3.2137825 
H     3.1916265   -2.7834982    3.0310237 
H     2.9358020   -4.4728459    1.3729453 
H     1.1829136   -4.4154592    1.5852176 
H     5.0617364   -1.4916999    0.9484361 
H     4.9033954   -2.6565141   -0.3877962 
H     4.5349170   -3.1599011    1.2782967 
H     3.8480465   -0.0125143   -0.5003266 
H     3.3372245   -1.1778102   -1.7437615 
H     2.1173744   -0.2138495   -0.8683085 
H     2.1513392   -3.2384973   -2.1111794 
H     3.1278158   -4.3919186   -1.1548298 
H     1.3624992   -4.6124892   -1.2980795 
H    -2.0887034   -5.3308895    0.7281483 
H    -0.3578445   -5.4462637    0.3233799 
H    -0.9125844   -4.3019522    1.5838826 
H    -3.8052364   -0.8267371   -3.0814120 
H    -4.0598111   -2.5403135   -3.4985090 
H    -2.7489685   -1.6168976   -4.2739193 
H    -0.8640734    0.2689913   -5.0778775 
H    -2.5391145    1.4966291   -6.4438730 
H    -4.3709750    2.7883118   -5.3331188 
H    -4.4839812    2.8845070   -2.8327212 
H    -2.7861705    1.6880395   -1.4631347 
H     1.7592365    1.4992314   -3.1451093 
H     3.5271634    1.0040146   -4.8172144 
H     3.6242805   -1.2540191   -5.9061065 
H     1.9214298   -2.9888727   -5.3217737 
H     0.1333308   -2.4802110   -3.6595105 
