99
Energy =
C    -2.8061489   -0.0043081   -0.5220983 
C    -2.2350415   -0.5439216   -1.7273846 
C    -1.7497911   -1.8512033   -1.8167791 
H    -2.1901369    0.1019908   -2.6129073 
Pd   -0.6124598   -0.3158587   -0.1942997 
P     1.7120900   -0.2913582   -0.8413074 
P    -0.4822082   -0.0243327    2.1769880 
H    -3.3294717   -0.7088199    0.1358156 
H    -1.8952300   -2.5054868   -0.9451925 
C    -4.4576740    3.9789448   -0.6608301 
C    -3.2527223    3.6937614   -1.3235395 
C    -2.7146540    2.4038023   -1.2789434 
C    -3.3614131    1.3675791   -0.5626647 
C    -4.5814972    1.6686302    0.0843288 
C    -5.1226613    2.9589144    0.0367827 
H    -4.8790006    4.9887759   -0.6940159 
H    -2.7288042    4.4820914   -1.8739913 
H    -1.7649759    2.2010737   -1.7854679 
H    -5.1185119    0.8767950    0.6180143 
H    -6.0719692    3.1676288    0.5408729 
C    -0.4730326   -3.9536404   -5.3265529 
C    -0.5203877   -4.5994285   -4.0813642 
C    -0.9397434   -3.8973949   -2.9472572 
C    -1.3154043   -2.5336483   -3.0320617 
C    -1.2828841   -1.9028943   -4.3020083 
C    -0.8616204   -2.6058828   -5.4325116 
H    -0.1455860   -4.5004144   -6.2166395 
H    -0.2336873   -5.6524290   -3.9969553 
H    -0.9789857   -4.4036537   -1.9765172 
H    -1.5877736   -0.8576010   -4.4058939 
H    -0.8412264   -2.1061346   -6.4061847 
C    -0.9625859   -1.7445308    2.9286645 
C    -1.5042823    1.3831218    2.9855758 
C     1.8146088    1.2042198   -2.0457954 
C     2.5144774   -1.8798831   -1.6067602 
C     1.2386041    0.1861185    2.9180831 
C     3.0119662    0.0515112    0.4762145 
C     2.1133046    1.3503159    2.5034757 
C     2.9456806    1.2739905    1.3594700 
C    -1.0558777   -1.7299799    4.4683088 
C     0.1194998   -2.7587236    2.4899421 
C    -2.3023473   -2.2333194    2.3354351 
C    -3.0003101    1.0164139    2.9644663 
C    -1.2473863    2.6207528    2.0921754 
C    -1.1188705    1.7117689    4.4439206 
C     0.8559073    0.9857212   -3.2388401 
C     3.2387964    1.4681496   -2.5698439 
C     1.2903968    2.4315328   -1.2560566 
C     2.1076707   -2.0432607   -3.0828428 
C     1.9434624   -3.0562868   -0.7856805 
C     4.0582403   -1.9216703   -1.5265928 
C     2.2195203    2.4873135    3.3318953 
C     3.8382609    2.3342720    1.0923107 
C     3.0798664    3.5489927    3.0338155 
C     3.8988778    3.4733472    1.9003509 
H     1.7513593   -0.7573958    2.6722414 
H     1.1030587    0.1936770    4.0125289 
H     3.9765088    0.0653747   -0.0525785 
H     3.0070296   -0.8704332    1.0873653 
H    -1.9048397   -1.1274127    4.8281639 
H    -1.2152574   -2.7656299    4.8214326 
H    -0.1324057   -1.3616417    4.9459373 
H     1.0890959   -2.5977473    2.9895170 
H     0.2718545   -2.7266228    1.3984014 
H    -0.2168451   -3.7768590    2.7573069 
H    -2.2276414   -2.3520830    1.2414425 
H    -2.5388729   -3.2239348    2.7645718 
H    -3.1457548   -1.5642361    2.5576071 
H    -3.2538613    0.2900581    3.7544348 
H    -3.5976604    1.9284123    3.1420901 
H    -3.3081058    0.6073983    1.9948735 
H    -1.6068313    2.4556016    1.0649612 
H    -0.1761496    2.8807793    2.0507667 
H    -1.7931874    3.4874825    2.5080134 
H    -0.1037113    2.1190384    4.5329746 
H    -1.8111093    2.4923985    4.8091405 
H    -1.2110058    0.8481978    5.1192876 
H    -0.1530654    0.7126872   -2.8881872 
H     0.7730413    1.9329395   -3.8023495 
H     1.1990956    0.2106721   -3.9372873 
H     3.6009938    0.6476225   -3.2108296 
H     3.9660553    1.6241724   -1.7571386 
H     3.2316852    2.3883481   -3.1831224 
H     1.9678308    2.7431056   -0.4493515 
H     1.1770509    3.2813931   -1.9540351 
H     0.3028784    2.2243319   -0.8042276 
H     2.6411383   -1.3324036   -3.7343851 
H     2.3747134   -3.0622615   -3.4159394 
H     1.0273973   -1.9206087   -3.2345072 
H     0.8430069   -3.0870016   -0.8438560 
H     2.3371170   -4.0093788   -1.1840544 
H     2.2360542   -2.9951916    0.2770170 
H     4.4335220   -2.0104811   -0.4944633 
H     4.4028240   -2.8190472   -2.0724233 
H     4.5324248   -1.0475249   -2.0024757 
H     1.6343538    2.5331314    4.2544040 
H     4.5126741    2.2546287    0.2326456 
H     3.1295749    4.4150070    3.7013622 
H     4.5990981    4.2799731    1.6615980 
