99
Energy =
C    -2.7562397   -0.6963229   -0.2778371 
C    -2.2386097   -0.8160347   -1.6144906 
C    -1.4468232   -1.8907257   -2.0281108 
H    -2.4866737   -0.0293982   -2.3377509 
Pd   -0.5309099   -0.4348094   -0.2089035 
P     1.5942958    0.3648765   -1.0229102 
P    -0.1502645   -0.5698319    2.1503299 
H    -2.9818189   -1.6303534    0.2510563 
H    -1.2944402   -2.7118494   -1.3129487 
C    -5.3803182    2.6135795    0.6007291 
C    -4.2482069    2.8088530   -0.2071244 
C    -3.3954639    1.7378733   -0.4924641 
C    -3.6464958    0.4458677    0.0298912 
C    -4.7997028    0.2641259    0.8267808 
C    -5.6556197    1.3351978    1.1099984 
H    -6.0476135    3.4516790    0.8259240 
H    -4.0276170    3.8017847   -0.6125156 
H    -2.5062298    1.9096926   -1.1084452 
H    -5.0343664   -0.7326110    1.2162668 
H    -6.5457679    1.1698761    1.7257711 
C    -0.1725619   -2.8446184   -6.0075627 
C     0.1238062   -3.7002764   -4.9352765 
C    -0.3004678   -3.3726749   -3.6439175 
C    -1.0247252   -2.1802901   -3.3954286 
C    -1.3349214   -1.3383566   -4.4938748 
C    -0.9082373   -1.6671061   -5.7821195 
H     0.1574909   -3.0982025   -7.0200808 
H     0.6827925   -4.6253268   -5.1083029 
H    -0.0710963   -4.0432262   -2.8084290 
H    -1.9121739   -0.4221775   -4.3398855 
H    -1.1547410   -1.0077508   -6.6204244 
C    -0.0638552   -2.4651572    2.5444461 
C    -1.3775991    0.3169647    3.3276851 
C     1.1375781    2.0281758   -1.8727074 
C     2.6654682   -0.7586220   -2.1824211 
C     1.5441924   -0.0289060    2.7756297 
C     2.9320544    0.8052583    0.2258252 
C     2.0227127    1.3908141    2.5569416 
C     2.6769345    1.7698659    1.3586565 
C     0.0499363   -2.7676708    4.0528204 
C     1.1748350   -3.0335384    1.8130196 
C    -1.2990001   -3.1893733    1.9649918 
C    -1.5738341    1.7217188    2.7078888 
C    -0.8918885    0.4609240    4.7858909 
C    -2.7165955   -0.4439502    3.3491130 
C     0.4299333    2.8860074   -0.7918255 
C     0.1107905    1.7779351   -3.0008998 
C     2.3575239    2.7767286   -2.4418320 
C     2.1147660   -0.7462585   -3.6204157 
C     2.5369080   -2.1817409   -1.5971185 
C     4.1635343   -0.3788898   -2.2393893 
C     1.9480100    2.3336855    3.6038049 
C     3.2186740    3.0693463    1.2577294 
C     2.4537755    3.6314363    3.4756569 
C     3.0959594    4.0054717    2.2886380 
H     2.2435440   -0.7262553    2.2873396 
H     1.5644430   -0.2673674    3.8521122 
H     3.7762581    1.1900639   -0.3651535 
H     3.2515254   -0.1785053    0.6178021 
H    -0.8697085   -2.5071892    4.6002241 
H     0.2132444   -3.8534955    4.1830781 
H     0.9019417   -2.2510729    4.5259010 
H     2.1276275   -2.7081787    2.2625253 
H     1.1690176   -2.7510569    0.7472204 
H     1.1490933   -4.1367416    1.8731137 
H    -1.3411982   -3.0779700    0.8685171 
H    -1.2142162   -4.2682670    2.1892470 
H    -2.2492658   -2.8349226    2.3892045 
H    -2.0151196    1.6581312    1.7013577 
H    -2.2631391    2.3058934    3.3447914 
H    -0.6223450    2.2756306    2.6385346 
H    -0.0112274    1.1092840    4.8777437 
H    -0.6682270   -0.5048990    5.2628894 
H    -1.7028626    0.9364961    5.3673962 
H    -3.4985356    0.2132317    3.7699078 
H    -3.0390225   -0.7330330    2.3417422 
H    -2.6629823   -1.3474779    3.9790248 
H    -0.3962104    2.3269775   -0.3151809 
H     1.1103027    3.2195470    0.0035488 
H     0.0026769    3.7840673   -1.2746729 
H    -0.7344040    1.1712727   -2.6359826 
H     0.5410443    1.2766737   -3.8783669 
H    -0.2911315    2.7521516   -3.3340660 
H     2.8265092    2.2274266   -3.2746086 
H     2.0269437    3.7555634   -2.8359142 
H     3.1253813    2.9757212   -1.6774402 
H     2.3500078    0.1970206   -4.1395330 
H     2.5886463   -1.5650170   -4.1912418 
H     1.0295650   -0.9077788   -3.6537692 
H     1.4843726   -2.5087728   -1.5685909 
H     3.1022312   -2.8923602   -2.2276386 
H     2.9502931   -2.2438944   -0.5753240 
H     4.6883698   -0.5515679   -1.2861226 
H     4.6489750   -1.0233206   -2.9950613 
H     4.3255537    0.6668603   -2.5490654 
H     1.5075690    2.0375892    4.5598225 
H     3.7629043    3.3467823    0.3483438 
H     2.3716912    4.3341306    4.3108570 
H     3.5227708    5.0069408    2.1754146 
