99
Energy =
C    -2.7471127   -1.2733303   -0.3451560 
C    -2.1868133   -1.0554327   -1.6173511 
C    -1.1175988   -1.8181301   -2.1317433 
H    -2.6400787   -0.2938040   -2.2624668 
Pd   -0.4435704   -0.3699151   -0.2934103 
P     1.8706054   -0.0491357   -0.8893697 
P    -0.5582217    0.8363149    1.7963712 
H    -2.4298628   -2.1806486    0.1872611 
H    -0.8454407   -2.7240947   -1.5725784 
C    -6.6270605    0.1766532    0.8177005 
C    -6.0499674   -0.9279838    1.4623392 
C    -4.7822865   -1.3809970    1.0806444 
C    -4.0554841   -0.7347653    0.0513382 
C    -4.6651390    0.3638851   -0.6051784 
C    -5.9317971    0.8134385   -0.2243469 
H    -7.6179297    0.5333120    1.1163816 
H    -6.5931459   -1.4437952    2.2607043 
H    -4.3482118   -2.2542929    1.5780954 
H    -4.1401974    0.8843721   -1.4119977 
H    -6.3819187    1.6670369   -0.7414558 
C    -0.2042010   -2.0176423   -6.3334609 
C    -0.8726557   -0.8931989   -5.8205743 
C    -1.1646821   -0.8072933   -4.4569388 
C    -0.7899539   -1.8436010   -3.5657548 
C    -0.1425427   -2.9815759   -4.1046710 
C     0.1512727   -3.0651934   -5.4703531 
H     0.0268358   -2.0807689   -7.4016001 
H    -1.1659547   -0.0779153   -6.4898840 
H    -1.6760623    0.0844112   -4.0814795 
H     0.1234676   -3.8121928   -3.4431094 
H     0.6528521   -3.9551334   -5.8640150 
C    -0.8414585   -0.2987935    3.3191917 
C    -1.8587540    2.2844348    1.7028497 
C     2.0478294    0.8899156   -2.5870759 
C     2.9009310   -1.6685188   -0.8414299 
C     0.9285660    1.8858052    2.2916187 
C     2.8854161    1.1553679    0.1472311 
C     2.2772023    1.2972876    2.6187403 
C     3.1971510    0.9433348    1.6067762 
C    -0.9025655    0.4994500    4.6372997 
C     0.3333317   -1.3068822    3.3314490 
C    -2.1288257   -1.1308923    3.1651965 
C    -1.8883496    2.6961163    0.2133986 
C    -1.5015683    3.5301197    2.5482432 
C    -3.2547819    1.8128840    2.1500629 
C     2.1065150   -0.0957313   -3.7688216 
C     3.2899365    1.8065612   -2.6935930 
C     0.7812364    1.7699606   -2.6862469 
C     4.3789581   -1.4291480   -1.2114122 
C     2.3078271   -2.7391615   -1.7768950 
C     2.7687041   -2.2192019    0.5990428 
C     2.6843411    1.2137067    3.9675139 
C     4.4877429    0.5122715    1.9814703 
C     3.9532491    0.7489238    4.3267252 
C     4.8641178    0.3924452    3.3228664 
H     0.5870814    2.4615703    3.1635718 
H     1.0182187    2.6079209    1.4592815 
H     2.3546512    2.1151715    0.0092794 
H     3.8378804    1.2511929   -0.3934568 
H    -1.7677365    1.1818382    4.6648552 
H    -1.0132467   -0.2093975    5.4783967 
H     0.0097342    1.0852883    4.8240642 
H     1.3192213   -0.8311350    3.4278058 
H     0.3296393   -1.9133732    2.4094853 
H     0.2014324   -1.9926268    4.1883871 
H    -2.1081298   -1.7065941    2.2276019 
H    -2.1769652   -1.8542035    3.9996795 
H    -3.0475867   -0.5304369    3.1898596 
H    -2.1948272    1.8561213   -0.4324871 
H    -2.6077482    3.5238238    0.0730831 
H    -0.8999831    3.0478947   -0.1325017 
H    -0.6055567    4.0603098    2.1883011 
H    -1.3713441    3.2946517    3.6180081 
H    -2.3468165    4.2381754    2.4719023 
H    -3.3088668    1.6863517    3.2436404 
H    -3.9959066    2.5825525    1.8687640 
H    -3.5581868    0.8758322    1.6703412 
H     1.3156722   -0.8524847   -3.7286790 
H     1.9748467    0.4697695   -4.7087433 
H     3.0831629   -0.6040241   -3.8235343 
H     4.2357064    1.2609698   -2.5371093 
H     3.2578782    2.6681981   -2.0081846 
H     3.3157528    2.2132816   -3.7210001 
H     0.7260211    2.4983959   -1.8574581 
H     0.7997529    2.3396799   -3.6335179 
H    -0.1380244    1.1606997   -2.6648474 
H     4.8724903   -0.7005236   -0.5508595 
H     4.9291470   -2.3830005   -1.1139660 
H     4.4918026   -1.0881942   -2.2534824 
H     2.3826115   -2.4836483   -2.8419444 
H     2.8592345   -3.6838037   -1.6174819 
H     1.2515894   -2.9258151   -1.5318880 
H     1.7134566   -2.4472268    0.8280765 
H     3.3425754   -3.1611170    0.6719478 
H     3.1477764   -1.5316211    1.3682330 
H     1.9926482    1.5327506    4.7542453 
H     5.2197151    0.2787044    1.2012322 
H     4.2363377    0.6898949    5.3823359 
H     5.8709923    0.0493481    3.5806205 
