99
Energy =
C    -2.2151821   -2.0313856   -0.3133660 
C    -2.1628684   -1.2543294   -1.4720259 
C    -1.0432381   -1.2897022   -2.3809952 
H    -3.0122874   -0.6043495   -1.7168302 
Pd   -0.3656893   -0.2981323   -0.5095890 
P     1.9825321   -0.3568249   -0.8439590 
P    -0.5721973    1.2260470    1.3548896 
H    -1.3830090   -2.7276623   -0.1337020 
H    -0.5123572   -2.2448486   -2.4672896 
C    -5.5202340   -2.5886177    2.3538270 
C    -4.2970026   -3.2374158    2.5836939 
C    -3.2301537   -3.0473074    1.7002669 
C    -3.3612548   -2.1993716    0.5725170 
C    -4.6102315   -1.5661568    0.3449636 
C    -5.6735878   -1.7579176    1.2287839 
H    -6.3581995   -2.7367699    3.0425828 
H    -4.1779647   -3.8950516    3.4505692 
H    -2.2762578   -3.5556452    1.8792278 
H    -4.7486893   -0.9206015   -0.5276466 
H    -6.6324943   -1.2646810    1.0404557 
C    -1.2951972    0.9722487   -6.0467609 
C    -1.7579134    1.5306956   -4.8441236 
C    -1.6774855    0.8011333   -3.6536403 
C    -1.1241496   -0.5019668   -3.6321373 
C    -0.6786331   -1.0542556   -4.8546772 
C    -0.7616289   -0.3257547   -6.0473793 
H    -1.3571546    1.5429124   -6.9789102 
H    -2.1801618    2.5409774   -4.8347430 
H    -2.0240382    1.2569212   -2.7202644 
H    -0.2770020   -2.0736021   -4.8703145 
H    -0.4148879   -0.7760469   -6.9832445 
C    -1.3821951    0.5895456    2.9708448 
C    -1.5753313    2.6935946    0.5955234 
C     2.6745280    0.2060930   -2.5593460 
C     2.5395260   -2.1463507   -0.3938243 
C     0.9618054    2.1490079    1.9429673 
C     3.0433975    0.7691043    0.2324994 
C     2.1101751    1.3726613    2.5494679 
C     3.0660177    0.7089447    1.7412114 
C    -2.8888135    0.3689746    2.7428712 
C    -1.2093382    1.5152373    4.1920140 
C    -0.6950074   -0.7691972    3.2428269 
C    -2.8963114    2.1659871   -0.0104405 
C    -0.7157152    3.2506675   -0.5671708 
C    -1.8872850    3.8234144    1.5962103 
C     4.1710686    0.5983738   -2.5623329 
C     1.8402136    1.4492673   -2.9438213 
C     2.4657363   -0.9070262   -3.6021207 
C     4.0634410   -2.3349311   -0.5380857 
C     1.8162087   -3.2017166   -1.2592809 
C     2.0899646   -2.3947269    1.0674023 
C     2.3187973    1.4037857    3.9445648 
C     4.1684524    0.0848436    2.3643965 
C     3.3966597    0.7506692    4.5514777 
C     4.3291461    0.0765032    3.7531671 
H     0.6140763    2.9149061    2.6555379 
H     1.3132271    2.6882522    1.0471452 
H     2.7540733    1.7806851   -0.1075447 
H     4.0725150    0.6098865   -0.1218501 
H    -3.0934357   -0.1361858    1.7895797 
H    -3.2868740   -0.2729164    3.5491843 
H    -3.4476655    1.3188611    2.7682090 
H    -1.5822692    2.5350421    4.0091321 
H    -0.1664531    1.5759649    4.5276673 
H    -1.7951775    1.0939081    5.0296487 
H     0.3966302   -0.6626183    3.3638018 
H    -1.1025174   -1.2062264    4.1731219 
H    -0.8869939   -1.4764930    2.4186203 
H    -3.6354156    1.8877860    0.7534991 
H    -3.3447143    2.9570296   -0.6387532 
H    -2.7163644    1.2847869   -0.6488022 
H    -0.4154177    2.4502921   -1.2667332 
H     0.1935452    3.7667915   -0.2161692 
H    -1.3115289    3.9907099   -1.1315829 
H    -0.9796904    4.2407358    2.0640693 
H    -2.3847095    4.6501703    1.0558152 
H    -2.5740791    3.4920320    2.3918657 
H     4.8272854   -0.1991668   -2.1781491 
H     4.4662051    0.7898836   -3.6101639 
H     4.3708642    1.5249755   -2.0004989 
H     1.9456995    2.2606548   -2.2015869 
H     0.7722238    1.2067625   -3.0489889 
H     2.1974199    1.8404831   -3.9139400 
H     1.4542303   -1.3295534   -3.5529464 
H     2.5967342   -0.4837990   -4.6142456 
H     3.2003638   -1.7205211   -3.4822048 
H     4.6414613   -1.5906105    0.0314616 
H     4.3387226   -3.3320043   -0.1477687 
H     4.3833826   -2.2943356   -1.5921713 
H     2.0363430   -3.1199738   -2.3326475 
H     2.1450756   -4.2030306   -0.9266183 
H     0.7245987   -3.1504994   -1.1172293 
H     1.0007497   -2.2435387    1.1709154 
H     2.3176262   -3.4433770    1.3334911 
H     2.5942895   -1.7432681    1.7941908 
H     1.6361332    1.9836994    4.5725041 
H     4.9298929   -0.3932324    1.7387622 
H     3.5205557    0.7948276    5.6381235 
H     5.1928591   -0.4230412    4.2030482 
