99
Energy =
C    -1.0817649   -0.6490604   -2.6125686 
C    -2.2329016   -0.6235243   -1.7437685 
C    -2.7239584    0.5553482   -1.1796026 
H    -2.7505538   -1.5688582   -1.5378202 
Pd   -0.3710742   -0.1746657   -0.5587232 
P    -0.2847762   -0.4462083    1.8411358 
P     1.8240463    0.5803968   -1.0508917 
H    -0.9200174    0.2369230   -3.2376353 
H    -2.2298392    1.4958518   -1.4639023 
C     0.0146075   -4.3891013   -4.4643748 
C    -0.3843292   -4.3627303   -3.1180933 
C    -0.7397636   -3.1524819   -2.5139804 
C    -0.6966250   -1.9355265   -3.2364210 
C    -0.3080425   -1.9834287   -4.5946642 
C     0.0444870   -3.1950501   -5.2012115 
H     0.2933491   -5.3358327   -4.9380380 
H    -0.4149512   -5.2898980   -2.5362905 
H    -1.0304503   -3.1447686   -1.4582831 
H    -0.2982340   -1.0602882   -5.1849067 
H     0.3368490   -3.2086104   -6.2562986 
C    -6.3600660    1.1251941    1.0117743 
C    -5.4940047    2.2026161    0.7684619 
C    -4.3132452    1.9990954    0.0479330 
C    -3.9695723    0.7131384   -0.4379096 
C    -4.8647701   -0.3610351   -0.1982905 
C    -6.0433041   -0.1546233    0.5208032 
H    -7.2866290    1.2816332    1.5734826 
H    -5.7431539    3.2024322    1.1378166 
H    -3.6390692    2.8411291   -0.1438980 
H    -4.6363842   -1.3620439   -0.5765838 
H    -6.7264320   -0.9917210    0.6965142 
C     1.6332382    2.3965584   -1.6668047 
C     2.9072931   -0.4805988   -2.2503008 
C    -0.5677539   -2.3453027    2.0607260 
C    -1.4963752    0.5706586    2.9232673 
C     3.0525473    0.6740359    0.3755993 
C     1.3739181   -0.2601367    2.7147629 
C     2.8387671    1.5202412    1.6078918 
C     2.0702757    1.0831985    2.7150524 
C     0.7127604    2.4838130   -2.9040983 
C     2.9923116    3.0428497   -2.0036975 
C     0.9191454    3.1746354   -0.5337593 
C     2.4629195   -0.2477443   -3.7057594 
C     2.6377234   -1.9482601   -1.8471893 
C     4.4291918   -0.2177130   -2.1602542 
C    -0.5872116   -2.8104363    3.5299072 
C     0.5914043   -3.0455716    1.3079483 
C    -1.8892729   -2.7602438    1.3737838 
C    -1.1825177    0.5607067    4.4331368 
C    -2.9311909    0.0480212    2.7258779 
C    -1.3907471    2.0138480    2.3767294 
C     3.5505678    2.7351676    1.7105024 
C     2.0680770    1.8746967    3.8830594 
C     3.4934629    3.5341788    2.8562268 
C     2.7477073    3.0950409    3.9572887 
H     3.9981473    0.9927813   -0.0869275 
H     3.1888135   -0.3870901    0.6549756 
H     2.0209932   -1.0100577    2.2295035 
H     1.2222080   -0.5995797    3.7525237 
H    -0.2959512    2.1029576   -2.6756802 
H     0.6077524    3.5488237   -3.1800161 
H     1.1010411    1.9503427   -3.7826603 
H     3.4533632    2.5858441   -2.8944587 
H     3.7098748    2.9860166   -1.1706598 
H     2.8332212    4.1139461   -2.2268214 
H     1.5116208    3.2404907    0.3891469 
H     0.7185431    4.2038694   -0.8841681 
H    -0.0479422    2.7018959   -0.2865810 
H     2.8328537    0.7151091   -4.0952070 
H     2.8778507   -1.0489756   -4.3434400 
H     1.3710145   -0.2789427   -3.8104825 
H     1.5799362   -2.2197346   -1.9811720 
H     2.9213929   -2.1450040   -0.7978966 
H     3.2441522   -2.6173014   -2.4846576 
H     4.9185387   -0.7969116   -2.9644758 
H     4.6941062    0.8410986   -2.3119924 
H     4.8662870   -0.5610970   -1.2088621 
H     0.3331592   -2.5401294    4.0743774 
H    -1.4533135   -2.4071160    4.0792981 
H    -0.6677996   -3.9131674    3.5531982 
H     1.5670097   -2.9083319    1.8036164 
H     0.6738239   -2.6827023    0.2677540 
H     0.3941415   -4.1324105    1.2752707 
H    -1.9538645   -2.3450081    0.3538629 
H    -1.9239449   -3.8622046    1.2970352 
H    -2.7798137   -2.4365231    1.9301031 
H    -0.2478124    1.0841157    4.6708061 
H    -1.9954873    1.0956208    4.9578043 
H    -1.1343697   -0.4569511    4.8510902 
H    -3.1090180   -0.8775581    3.2974344 
H    -3.6465573    0.8069720    3.0903152 
H    -3.1615345   -0.1400613    1.6687694 
H    -1.7006678    2.0551253    1.3192169 
H    -2.0595870    2.6754479    2.9576504 
H    -0.3640843    2.4108643    2.4545075 
H     4.1795860    3.0533335    0.8721129 
H     1.5459798    1.5104349    4.7725771 
H     4.0531060    4.4738343    2.8988488 
H     2.7175628    3.6819889    4.8806978 
