99
Energy =
C    -2.7250941   -0.9225242   -0.3327209 
C    -2.1131893   -1.1360786   -1.6219237 
C    -1.1355764   -2.1091779   -1.8372154 
H    -2.4493915   -0.5218582   -2.4667434 
Pd   -0.6187380   -0.2253218   -0.2058968 
P     1.3516601    0.9288813   -0.9968022 
P    -0.3889088   -0.0488518    2.1487768 
H    -2.8295565   -1.8032352    0.3113202 
H    -0.8721625   -2.7570317   -0.9885082 
C    -5.9551802    1.9224678   -0.0314040 
C    -4.8275457    2.2210385   -0.8134522 
C    -3.7778536    1.3022059   -0.9130108 
C    -3.8234420    0.0646519   -0.2265945 
C    -4.9736016   -0.2259142    0.5421592 
C    -6.0260740    0.6921066    0.6399935 
H    -6.7767375    2.6416122    0.0479790 
H    -4.7660791    3.1758955   -1.3459243 
H    -2.8970959    1.5565367   -1.5117319 
H    -5.0483142   -1.1909723    1.0556333 
H    -6.9094484    0.4429994    1.2370504 
C     0.5438643   -3.3977652   -5.5607394 
C     0.9641987   -3.9692034   -4.3495926 
C     0.4023542   -3.5390981   -3.1437919 
C    -0.5855954   -2.5235234   -3.1224907 
C    -1.0116782   -1.9694519   -4.3570562 
C    -0.4494919   -2.4015581   -5.5594605 
H     0.9798756   -3.7341351   -6.5069212 
H     1.7272203   -4.7540312   -4.3476357 
H     0.7288905   -3.9875373   -2.1990722 
H    -1.7875414   -1.1980264   -4.3748966 
H    -0.7893851   -1.9677074   -6.5052340 
C    -0.0991118   -1.8434532    2.7904088 
C    -1.7819073    0.8562936    3.1380517 
C     0.6062847    2.4348722   -1.9521217 
C     2.6010680   -0.0381553   -2.0809110 
C     1.0703921    0.9475953    2.8055418 
C     2.4333556    1.8349181    0.2514098 
C     2.5117074    0.6172158    2.4995273 
C     3.1627099    1.0441887    1.3156862 
C     1.1559623   -2.3788758    2.0572551 
C    -1.2641248   -2.7808234    2.4024532 
C     0.0975989   -1.8902636    4.3194064 
C    -1.3653987    1.3546267    4.5422093 
C    -3.0022980   -0.0685667    3.2970873 
C    -2.1615037    2.0810434    2.2746554 
C     1.6624254    3.3547286   -2.5954012 
C    -0.2212368    3.2367123   -0.9164002 
C    -0.3685203    1.9333761   -3.0428470 
C     2.8229981   -1.3701774   -1.3262548 
C     3.9540935    0.6683809   -2.3008098 
C     1.9761730   -0.3241559   -3.4590292 
C     3.2726288   -0.0238395    3.5011824 
C     4.5519228    0.8262806    1.1992854 
C     4.6383822   -0.2791420    3.3464848 
C     5.2860159    0.1562023    2.1835378 
H     0.9514588    0.9361685    3.8989648 
H     0.8328665    1.9774707    2.4807293 
H     1.7487071    2.5545307    0.7310109 
H     3.1572026    2.4286736   -0.3307348 
H     2.0753486   -1.8357425    2.3154537 
H     1.2985569   -3.4405401    2.3308693 
H     1.0213971   -2.3221342    0.9624730 
H    -1.3756736   -2.8424273    1.3078511 
H    -2.2296761   -2.4914734    2.8395945 
H    -1.0239044   -3.7963357    2.7665248 
H    -0.8312082   -1.6446320    4.8596826 
H     0.3878084   -2.9164158    4.6110337 
H     0.8937187   -1.2142969    4.6679350 
H    -0.6368326    2.1803449    4.5035706 
H    -2.2694894    1.7490614    5.0409626 
H    -0.9617912    0.5535825    5.1823783 
H    -2.8351580   -0.8349113    4.0719596 
H    -3.2648771   -0.5654180    2.3545347 
H    -3.8751227    0.5347709    3.6050865 
H    -2.9454113    2.6622753    2.7938108 
H    -1.3007471    2.7548477    2.1161314 
H    -2.5569813    1.7807709    1.2927400 
H     2.3874376    3.7485599   -1.8632020 
H     2.2160066    2.8467917   -3.4017290 
H     1.1496478    4.2247342   -3.0462018 
H     0.4081461    3.7334212   -0.1592823 
H    -0.9497620    2.5906993   -0.3949321 
H    -0.7834655    4.0295297   -1.4422896 
H    -1.0614949    1.1756657   -2.6399857 
H    -0.9695905    2.7861684   -3.4074824 
H     0.1484948    1.4958233   -3.9080415 
H     1.8781573   -1.9320269   -1.2382283 
H     3.5432505   -1.9936949   -1.8875597 
H     3.2271528   -1.2080107   -0.3123851 
H     4.5400839    0.7509726   -1.3766047 
H     4.5489864    0.0615332   -3.0080532 
H     3.8431289    1.6721469   -2.7396267 
H     2.0137338    0.5613970   -4.1143614 
H     2.5460886   -1.1300850   -3.9552261 
H     0.9336974   -0.6600007   -3.3789492 
H     2.7799807   -0.3164250    4.4346686 
H     5.0818599    1.2205102    0.3272653 
H     5.1962105   -0.7837221    4.1415837 
H     6.3620581    0.0034678    2.0535601 
