99
Energy =
C    -2.8221186   -0.4997514   -0.4411189 
C    -2.1698552   -1.0950725   -1.5820021 
C    -1.3776927   -2.2401686   -1.4808885 
H    -2.3224911   -0.6372283   -2.5674040 
Pd   -0.6358192   -0.1606207   -0.2236738 
P     1.5712105    0.4354951   -1.0073703 
P    -0.5500670    0.4985446    2.0537372 
H    -3.1375213   -1.1842370    0.3547909 
H    -1.3037995   -2.7172871   -0.4928346 
C    -5.4660927    2.8466686   -1.0948382 
C    -4.2468502    2.7696447   -1.7875864 
C    -3.3866448    1.6869501   -1.5781028 
C    -3.7181126    0.6577760   -0.6639324 
C    -4.9564716    0.7437121    0.0122281 
C    -5.8195670    1.8255426   -0.1993682 
H    -6.1397635    3.6940362   -1.2577508 
H    -3.9648604    3.5593177   -2.4918465 
H    -2.4305347    1.6498636   -2.1104281 
H    -5.2511459   -0.0567944    0.6999569 
H    -6.7761214    1.8682685    0.3316945 
C     0.2975821   -4.5898944   -4.6460804 
C     0.5056120   -4.9438256   -3.3038794 
C    -0.0516949   -4.1671262   -2.2836579 
C    -0.8224245   -3.0164463   -2.5832679 
C    -1.0372176   -2.6830147   -3.9453565 
C    -0.4798116   -3.4606425   -4.9618221 
H     0.7303321   -5.1974589   -5.4474001 
H     1.0992775   -5.8289981   -3.0545249 
H     0.1089287   -4.4453472   -1.2362652 
H    -1.6435027   -1.8111147   -4.2090387 
H    -0.6550859   -3.1935083   -6.0088037 
C    -0.6510753   -1.1292175    3.0814385 
C    -1.8166831    1.8224945    2.6705150 
C     1.1969250    1.7863222   -2.3382562 
C     2.6975641   -0.9460347   -1.7117890 
C     1.0178751    1.3577876    2.6508206 
C     2.7058369    1.4105437    0.1380685 
C     2.3913873    0.7335746    2.5846174 
C     3.1965634    0.7725475    1.4193538 
C     0.5297954   -2.0177196    2.6176750 
C    -1.9414359   -1.9196598    2.7711394 
C    -0.5754576   -0.8652764    4.5990825 
C    -1.4193136    2.5448224    3.9797009 
C    -3.1975365    1.1740950    2.8777280 
C    -1.8935138    2.8695260    1.5359981 
C     0.4644808    2.9328617   -1.5967786 
C     0.2261688    1.2199445   -3.4001620 
C     2.4527162    2.3410829   -3.0385574 
C     4.1717752   -0.5409643   -1.9141984 
C     2.1410334   -1.4300672   -3.0635096 
C     2.6067716   -2.0903408   -0.6749737 
C     2.9438182    0.2167991    3.7766404 
C     4.5275511    0.3130065    1.5094358 
C     4.2471776   -0.2855564    3.8338572 
C     5.0500097   -0.2304628    2.6876946 
H     0.8182534    1.6109371    3.7024433 
H     1.0017647    2.3139660    2.0957519 
H     2.1320550    2.3219122    0.3761095 
H     3.5675005    1.7308819   -0.4705079 
H     1.5143607   -1.5879392    2.8481573 
H     0.4572448   -2.9962002    3.1271782 
H     0.4803686   -2.1936467    1.5284110 
H    -1.9913775   -2.1962231    1.7056325 
H    -2.8627407   -1.3851628    3.0406302 
H    -1.9179392   -2.8584498    3.3539676 
H    -1.4749391   -0.3474296    4.9702970 
H    -0.5104492   -1.8341988    5.1275568 
H     0.3099110   -0.2770092    4.8864382 
H    -0.5477696    3.2072480    3.8543041 
H    -2.2676763    3.1862245    4.2806096 
H    -1.2220556    1.8510763    4.8128542 
H    -3.2355545    0.5857728    3.8094225 
H    -3.4768737    0.5276550    2.0361951 
H    -3.9624530    1.9680393    2.9510733 
H    -2.2623385    2.4278494    0.5981756 
H    -2.5919714    3.6738524    1.8308549 
H    -0.9123402    3.3384727    1.3424050 
H     1.1232997    3.4820349   -0.9035063 
H     0.0944680    3.6625564   -2.3395687 
H    -0.4038551    2.5552608   -1.0279527 
H    -0.6313772    0.7143193   -2.9254142 
H     0.7083210    0.5050015   -4.0812585 
H    -0.1643729    2.0538073   -4.0114236 
H     2.9540825    1.5764083   -3.6537905 
H     2.1497944    3.1611928   -3.7158501 
H     3.1863185    2.7598583   -2.3291863 
H     4.6900131   -0.3535865   -0.9653039 
H     4.6951547   -1.3801143   -2.4084378 
H     4.2846527    0.3439211   -2.5597274 
H     2.3914843   -0.7330282   -3.8798849 
H     2.5912269   -2.4081496   -3.3111547 
H     1.0518481   -1.5669147   -3.0375693 
H     1.5701043   -2.4558338   -0.5858965 
H     3.2420384   -2.9336201   -1.0035016 
H     2.9507024   -1.7711463    0.3236731 
H     2.3372538    0.2249734    4.6886360 
H     5.1858026    0.4128384    0.6414369 
H     4.6410186   -0.6848950    4.7737110 
H     6.0869311   -0.5799034    2.7153040 
