99
Energy =
C    -2.3357219   -2.0671739   -0.0874480 
C    -2.2125898   -1.2613883   -1.2151590 
C    -1.0989597   -1.3985539   -2.1322930 
H    -3.0276266   -0.5734848   -1.4732964 
Pd   -0.3021834   -0.1959109   -0.4639650 
P     2.0269643   -0.2344963   -0.9538082 
P    -0.4466039    1.3240595    1.4022414 
H    -1.5205868   -2.7783660    0.1073635 
H    -0.6085036   -2.3801534   -2.1135807 
C    -5.6643482   -2.5054731    2.5619727 
C    -4.4582061   -3.1792991    2.8110449 
C    -3.3824238   -3.0297011    1.9310340 
C    -3.4872385   -2.1961543    0.7886172 
C    -4.7199835   -1.5358092    0.5437396 
C    -5.7923034   -1.6886588    1.4228489 
H    -6.5099343   -2.6233828    3.2473270 
H    -4.3604108   -3.8247161    3.6896162 
H    -2.4408834   -3.5548817    2.1251064 
H    -4.8370640   -0.9038289   -0.3420918 
H    -6.7388299   -1.1772279    1.2211252 
C    -1.3907234    0.3513202   -6.0612572 
C    -1.8499442    1.0637603   -4.9409130 
C    -1.7603126    0.4998561   -3.6642898 
C    -1.2024474   -0.7879982   -3.4749518 
C    -0.7576244   -1.4962707   -4.6138973 
C    -0.8491962   -0.9325370   -5.8921318 
H    -1.4605786    0.7923088   -7.0607664 
H    -2.2757280    2.0649628   -5.0646055 
H    -2.0974378    1.0773859   -2.7962818 
H    -0.3414116   -2.5026948   -4.4941632 
H    -0.5009866   -1.4993521   -6.7618549 
C    -1.3533486    0.6016127    2.9315042 
C    -1.3582151    2.8930429    0.7429040 
C     2.7140541    0.7632654   -2.4630618 
C     2.6011058   -2.0747067   -1.0410570 
C     1.1426165    2.0581403    2.1003716 
C     3.1056779    0.5139581    0.3965483 
C     2.1110374    1.0556229    2.6904669 
C     2.9388073    0.2360170    1.8762995 
C    -1.2047622    1.4174318    4.2315026 
C    -0.7596919   -0.8142893    3.1318539 
C    -2.8528619    0.4877471    2.5985858 
C    -2.6641073    2.4808863    0.0220879 
C    -0.4368353    3.5173045   -0.3300798 
C    -1.6675119    3.9375046    1.8325917 
C     4.1769330    0.4177943   -2.8110947 
C     2.6283126    2.2713801   -2.1286373 
C     1.8156679    0.5094306   -3.6866208 
C     4.1118010   -2.2914916   -0.8018527 
C     2.2449536   -2.6861390   -2.4118425 
C     1.8142897   -2.8001425    0.0781631 
C     2.2368085    0.9587849    4.0917030 
C     3.7754704   -0.7074500    2.5080913 
C     3.0664706    0.0117636    4.7013080 
C     3.8227586   -0.8505514    3.8991487 
H     0.8657972    2.8127054    2.8553859 
H     1.6027581    2.5992844    1.2560356 
H     2.9854619    1.5961835    0.2356038 
H     4.1428014    0.2778515    0.1036634 
H    -1.5387932    2.4602690    4.1190875 
H    -1.8376468    0.9486127    5.0076074 
H    -0.1756298    1.4164105    4.6117504 
H     0.3128900   -0.7828015    3.3824038 
H    -0.8799980   -1.4263604    2.2222242 
H    -1.2930738   -1.3165989    3.9599469 
H    -3.0167029    0.1078497    1.5808127 
H    -3.3328624   -0.2201341    3.2980185 
H    -3.3670692    1.4574251    2.6993795 
H    -3.4562746    2.1618444    0.7126846 
H    -3.0458265    3.3477552   -0.5476254 
H    -2.4774474    1.6607266   -0.6945458 
H    -0.2255578    2.7902626   -1.1339466 
H     0.5189703    3.8837053    0.0794333 
H    -0.9511807    4.3834203   -0.7843682 
H    -0.7640713    4.2581137    2.3789133 
H    -2.0981014    4.8372462    1.3552538 
H    -2.4064235    3.5679387    2.5614800 
H     4.2819316   -0.6042995   -3.2080359 
H     4.5159207    1.1109880   -3.6029040 
H     4.8629597    0.5405645   -1.9557760 
H     3.4025865    2.5986951   -1.4150699 
H     1.6384161    2.5456550   -1.7324225 
H     2.7844750    2.8443081   -3.0601984 
H     0.7889711    0.8617294   -3.5068885 
H     2.2207088    1.0686993   -4.5494633 
H     1.7671036   -0.5506047   -3.9714013 
H     4.4330759   -1.9739205    0.1992971 
H     4.3163060   -3.3753275   -0.8767045 
H     4.7421471   -1.7863431   -1.5469222 
H     2.9132198   -2.3231102   -3.2094212 
H     2.3621220   -3.7837956   -2.3551912 
H     1.2095305   -2.4713395   -2.7095678 
H     0.7274509   -2.7646143   -0.1107307 
H     2.1244520   -3.8607933    0.1142880 
H     1.9996246   -2.3534322    1.0700125 
H     1.6812663    1.6583259    4.7234306 
H     4.4435693   -1.3215556    1.8976865 
H     3.1326856   -0.0370895    5.7927671 
H     4.4838549   -1.5975073    4.3498514 
