99
Energy =
C    -2.7833550   -1.2341456   -0.7319022 
C    -2.2023324   -0.5150360   -1.7794248 
C    -1.0291046   -0.9653628   -2.4802029 
H    -2.6601014    0.4313379   -2.0926377 
Pd   -0.4385878   -0.4068287   -0.3939256 
P     1.7688625   -1.3228276   -0.3068528 
P    -0.5073877    0.9495729    1.6001517 
H    -2.3615743   -2.2231232   -0.5015987 
H    -0.8936462   -2.0501369   -2.5710325 
C    -6.5205508   -0.4789716    1.2256001 
C    -5.7525615   -1.6060374    1.5569367 
C    -4.5362919   -1.8366662    0.9069622 
C    -4.0583537   -0.9427740   -0.0833078 
C    -4.8578874    0.1788801   -0.4218081 
C    -6.0714073    0.4074564    0.2300059 
H    -7.4734394   -0.2954457    1.7323129 
H    -6.1056401   -2.3069298    2.3199814 
H    -3.9394271   -2.7185866    1.1643749 
H    -4.5288667    0.8757868   -1.1980165 
H    -6.6781688    1.2771557   -0.0414487 
C     0.3494521    1.3633795   -5.8403930 
C    -0.1062404    2.0069318   -4.6782253 
C    -0.5525405    1.2541974   -3.5874854 
C    -0.5459946   -0.1612841   -3.6257681 
C    -0.1000990   -0.7916471   -4.8097189 
C     0.3434280   -0.0385376   -5.9034410 
H     0.7005383    1.9517411   -6.6941865 
H    -0.1093067    3.1004270   -4.6213332 
H    -0.8871412    1.7699835   -2.6810069 
H    -0.1158217   -1.8850372   -4.8773512 
H     0.6796455   -0.5483817   -6.8122244 
C    -1.7403408    0.5018194    3.0258015 
C    -0.8306116    2.7156480    0.9121287 
C     2.9048437   -1.1235385   -1.8393900 
C     1.5269916   -3.1942287    0.1330007 
C     1.0528653    1.1068959    2.6412770 
C     2.8594820   -0.7873058    1.1344661 
C     2.3655416    1.5490441    2.0413791 
C     3.2166772    0.6716957    1.3248509 
C    -1.3766808    1.1050452    4.4025213 
C    -1.6933095   -1.0379309    3.1311968 
C    -3.1717537    0.9460743    2.6727197 
C    -0.8725975    3.7978126    2.0074705 
C    -2.1545226    2.7341954    0.1142636 
C     0.3136877    3.0045064   -0.0938459 
C     2.4092493   -2.0386782   -2.9750655 
C     4.3945929   -1.4427860   -1.5908934 
C     2.7563798    0.3615086   -2.2497719 
C     0.5073301   -3.8419234   -0.8295870 
C     0.9124325   -3.2608678    1.5508814 
C     2.8424893   -3.9992736    0.1085181 
C     2.8065739    2.8632652    2.3071893 
C     4.4759024    1.1539220    0.9097899 
C     4.0400498    3.3373076    1.8509841 
C     4.8838014    2.4711706    1.1442981 
H     1.1535544    0.1079596    3.1054189 
H     0.7997063    1.8013908    3.4558829 
H     3.7802601   -1.3901552    1.0632342 
H     2.3187647   -1.1463208    2.0246713 
H    -1.2853638    2.2034839    4.3747024 
H    -2.1934802    0.8619609    5.1066862 
H    -0.4516447    0.6828208    4.8267885 
H    -0.6888910   -1.3992459    3.4128219 
H    -1.9809627   -1.5127002    2.1786355 
H    -2.3988109   -1.3759093    3.9123286 
H    -3.4657079    0.6418118    1.6598637 
H    -3.8772320    0.4715836    3.3783801 
H    -3.2952975    2.0372635    2.7662597 
H     0.0467786    3.8212142    2.6139495 
H    -0.9742977    4.7896788    1.5292982 
H    -1.7340562    3.6676622    2.6830427 
H    -3.0474219    2.6515445    0.7485300 
H    -2.1790148    1.9167482   -0.6249782 
H    -2.2207889    3.6903407   -0.4363360 
H     0.4114998    2.1885358   -0.8335130 
H     0.0795185    3.9364947   -0.6404048 
H     1.2899556    3.1329001    0.3930712 
H     1.3205137   -1.9893462   -3.0948964 
H     2.8612852   -1.7087699   -3.9274790 
H     2.7023433   -3.0889899   -2.8107431 
H     4.5612981   -2.4689478   -1.2309243 
H     4.8672184   -0.7443354   -0.8884667 
H     4.9279589   -1.3397536   -2.5536554 
H     3.0616411    1.0433538   -1.4381245 
H     3.4016432    0.5621647   -3.1246623 
H     1.7191923    0.5976236   -2.5330908 
H     0.8247834   -3.8144458   -1.8817663 
H     0.3774943   -4.9024419   -0.5467552 
H    -0.4767416   -3.3505476   -0.7475698 
H     0.0217930   -2.6152481    1.6269183 
H     0.5981731   -4.3006093    1.7543660 
H     1.6254793   -2.9786263    2.3431587 
H     3.6191111   -3.5624376    0.7585923 
H     2.6383262   -5.0191561    0.4837229 
H     3.2495755   -4.1008864   -0.9099167 
H     2.1670788    3.5263792    2.9000053 
H     5.1725217    0.4725439    0.4137528 
H     4.3492234    4.3641774    2.0697585 
H     5.8678469    2.8067681    0.8022256 
