99
Energy =
C    -2.8287274   -0.4879457   -0.4165457 
C    -2.1897203   -1.0759052   -1.5688450 
C    -1.4009376   -2.2246878   -1.4851991 
H    -2.3502340   -0.6089407   -2.5487027 
Pd   -0.6403776   -0.1566073   -0.2188718 
P     1.5612954    0.4397401   -1.0192716 
P    -0.5299134    0.4813903    2.0635522 
H    -3.1392229   -1.1780393    0.3764383 
H    -1.3195625   -2.7107437   -0.5021123 
C    -5.4677794    2.8726659   -1.0154439 
C    -4.2550502    2.7983639   -1.7198082 
C    -3.3965494    1.7109874   -1.5283266 
C    -3.7230748    0.6743301   -0.6208870 
C    -4.9550748    0.7577327    0.0671228 
C    -5.8165458    1.8442143   -0.1265232 
H    -6.1402093    3.7235871   -1.1644103 
H    -3.9767612    3.5938316   -2.4190060 
H    -2.4454192    1.6759231   -2.0696662 
H    -5.2459765   -0.0481910    0.7501415 
H    -6.7681685    1.8849489    0.4134923 
C     0.2431175   -4.5483030   -4.6857427 
C     0.4628668   -4.9142204   -3.3486179 
C    -0.0850085   -4.1463709   -2.3166659 
C    -0.8574751   -2.9925251   -2.5992662 
C    -1.0846902   -2.6472636   -3.9563830 
C    -0.5369386   -3.4162910   -4.9845907 
H     0.6684576   -5.1489343   -5.4962116 
H     1.0584635   -5.8017017   -3.1123995 
H     0.0849521   -4.4337577   -1.2732235 
H    -1.6930203   -1.7729068   -4.2068865 
H    -0.7219313   -3.1402525   -6.0275868 
C    -0.6285400   -1.1543028    3.0786571 
C    -1.7836879    1.8062298    2.7038964 
C     1.1790295    1.7989539   -2.3393400 
C     2.6781330   -0.9398434   -1.7417095 
C     1.0476261    1.3273670    2.6534757 
C     2.7069849    1.4064508    0.1225494 
C     2.4192030    0.7014511    2.5645210 
C     3.2127070    0.7564863    1.3919000 
C    -1.9251877   -1.9365147    2.7737405 
C    -0.5375770   -0.9035308    4.5977237 
C     0.5442745   -2.0437470    2.5966564 
C    -1.8660883    2.8630520    1.5788093 
C    -1.3700263    2.5154234    4.0152031 
C    -3.1658591    1.1631867    2.9190202 
C     0.4603744    2.9455697   -1.5844613 
C     0.1941210    1.2421698   -3.3932358 
C     2.4296864    2.3511059   -3.0508154 
C     2.5931512   -2.0907784   -0.7117339 
C     4.1516785   -0.5371434   -1.9535361 
C     2.1088925   -1.4135738   -3.0918447 
C     2.9838704    0.1691269    3.7439387 
C     4.5460613    0.3004660    1.4635381 
C     4.2887997   -0.3310221    3.7819235 
C     5.0811262   -0.2570620    2.6295015 
H     0.8604016    1.5678718    3.7103787 
H     1.0286858    2.2906290    2.1109279 
H     2.1338106    2.3141670    0.3756364 
H     3.5613356    1.7342328   -0.4923968 
H    -1.9846472   -2.2062030    1.7069636 
H    -1.9018645   -2.8790015    3.3505744 
H    -2.8417395   -1.3991411    3.0536246 
H    -1.4313855   -0.3852720    4.9818765 
H     0.3528811   -0.3212673    4.8817703 
H    -0.4715209   -1.8771847    5.1172977 
H     1.5326775   -1.6203311    2.8226024 
H     0.4717720   -3.0265472    3.0977886 
H     0.4848354   -2.2094470    1.5062822 
H    -2.2472050    2.4311896    0.6413235 
H    -2.5566995    3.6690040    1.8874281 
H    -0.8842107    3.3278955    1.3788106 
H    -0.4958648    3.1739150    3.8873643 
H    -1.1692617    1.8135724    4.8406963 
H    -2.2118665    3.1591666    4.3291712 
H    -3.1976247    0.5661964    3.8454366 
H    -3.9256973    1.9604481    3.0078134 
H    -3.4571724    0.5264151    2.0741464 
H     1.1303304    3.4899787   -0.8981666 
H     0.0833943    3.6791262   -2.3199260 
H    -0.4019254    2.5692793   -1.0056616 
H    -0.6618656    0.7406226   -2.9114660 
H     0.6647271    0.5261308   -4.0812505 
H    -0.1971099    2.0804158   -3.9980272 
H     2.9200636    1.5873451   -3.6759547 
H     2.1233683    3.1765818   -3.7200178 
H     3.1734691    2.7621142   -2.3475100 
H     1.5563461   -2.4543558   -0.6164502 
H     3.2235957   -2.9333902   -1.0510895 
H     2.9461925   -1.7789288    0.2860644 
H     4.6779731   -0.3593247   -1.0072810 
H     4.6684704   -1.3736339   -2.4590962 
H     4.2617945    0.3527341   -2.5926378 
H     2.3529713   -0.7111598   -3.9055421 
H     2.5556294   -2.3904171   -3.3503110 
H     1.0197805   -1.5492469   -3.0570647 
H     2.3861303    0.1636962    4.6617849 
H     5.1958201    0.4144162    0.5908696 
H     4.6922885   -0.7425580    4.7123831 
H     6.1193792   -0.6033831    2.6429027 
