79
Energy =
C    -0.0176377    1.4566937   -2.3190793 
C     0.7756821    2.1565801   -1.3685342 
C     2.0109917    1.6087775   -0.9220315 
H     0.3444033    3.0252331   -0.8549302 
Pd    0.3297926    0.1854505   -0.5081233 
P     1.1539596   -1.1598536    1.1936313 
P    -1.5827519   -1.1257077   -0.4289626 
H     0.5149130    0.7923422   -3.0177328 
H     2.5227037    0.9131904   -1.6050970 
C    -3.9745090    2.5272782   -3.6261536 
C    -3.0698152    1.9198491   -4.5094240 
C    -1.7847631    1.5728994   -4.0717904 
C    -1.3723251    1.8525262   -2.7497686 
C    -2.2908961    2.4756285   -1.8732188 
C    -3.5802223    2.8013228   -2.3043306 
H    -4.9837540    2.7856060   -3.9627053 
H    -3.3682290    1.7051644   -5.5407873 
H    -1.0892259    1.0802820   -4.7597847 
H    -2.0047319    2.6722881   -0.8349501 
H    -4.2848125    3.2627711   -1.6048537 
C     4.5375063    3.0921832    2.2314662 
C     4.9377438    2.0086629    1.4352287 
C     4.1115765    1.5524075    0.4016946 
C     2.8609946    2.1616195    0.1481049 
C     2.4770119    3.2615597    0.9503732 
C     3.3071560    3.7207087    1.9780303 
H     5.1836987    3.4528739    3.0380757 
H     5.9012364    1.5202190    1.6154203 
H     4.4308317    0.7075113   -0.2180237 
H     1.5211571    3.7661548    0.7739948 
H     2.9944145    4.5763490    2.5856138 
C     2.7113516   -2.0349004    0.7980086 
C     1.3647156   -0.4307953    2.8553572 
C    -3.0274220   -0.2889004    0.3303610 
C    -2.1621491   -1.9241975   -1.9615432 
C    -0.0729488   -2.5118687    1.4320668 
C    -1.2259313   -2.5051444    0.7340095 
C     3.9336195   -1.6892843    1.4094666 
C     1.0594186    0.9312994    3.0355276 
C    -2.7770780    0.7966800    1.1954728 
C    -3.0233818   -1.2289623   -2.8375002 
C     2.6903652   -3.0048339   -0.2282295 
C     1.8092385   -1.2031589    3.9508456 
C    -4.3523951   -0.7183411    0.1129576 
C    -1.6508934   -3.1852524   -2.3371468 
C     5.1186141   -2.3199322    1.0025997 
C     1.2053497    1.5228483    4.2976667 
C    -3.8406230    1.4561143    1.8239007 
C    -3.3795501   -1.8029255   -4.0650022 
C     3.8775328   -3.6323462   -0.6246935 
C     1.9453005   -0.6079740    5.2107424 
C    -5.4127930   -0.0499905    0.7403326 
C    -2.0142533   -3.7510651   -3.5660634 
C     5.0934006   -3.2897992   -0.0103884 
C     1.6457011    0.7539113    5.3841289 
C    -5.1599687    1.0371251    1.5912706 
C    -2.8789485   -3.0614416   -4.4308121 
H     0.1467866   -3.2974740    2.1681889 
H    -1.9917683   -3.2800339    0.8786401 
H     3.9610656   -0.9300106    2.1967748 
H     0.7261067    1.5268972    2.1792341 
H    -1.7441382    1.1218087    1.3703744 
H    -3.4184454   -0.2459447   -2.5621773 
H     1.7438762   -3.2692982   -0.7147012 
H     2.0586610   -2.2619466    3.8189336 
H    -4.5581997   -1.5661527   -0.5484752 
H    -0.9727928   -3.7280653   -1.6683099 
H     6.0653963   -2.0520245    1.4831384 
H     0.9814308    2.5862812    4.4286317 
H    -3.6403793    2.2990613    2.4932701 
H    -4.0499230   -1.2579720   -4.7373803 
H     3.8550982   -4.3901880   -1.4145177 
H     2.2886499   -1.2070967    6.0602829 
H    -6.4411088   -0.3823923    0.5650622 
H    -1.6235482   -4.7341777   -3.8479266 
H     6.0208796   -3.7810526   -0.3217773 
H     1.7589742    1.2150804    6.3706775 
H    -5.9926380    1.5559432    2.0773687 
H    -3.1623549   -3.5066782   -5.3899995 
