79
Energy =
C    -0.1923704    1.7173167   -2.0687398 
C     0.6827453    2.3004650   -1.1087376 
C     1.9351950    1.6948178   -0.8059398 
H     0.3117586    3.1107069   -0.4691702 
Pd    0.2690166    0.2539779   -0.4486162 
P     1.1176805   -1.1104573    1.2165421 
P    -1.6200253   -1.0815825   -0.4118550 
H     0.2751215    1.1285880   -2.8734260 
H     2.4078655    1.1048081   -1.6066711 
C    -4.1553777    3.0887205   -3.0297817 
C    -3.4552164    2.2483557   -3.9075782 
C    -2.1736042    1.7941025   -3.5718104 
C    -1.5639466    2.1766567   -2.3552412 
C    -2.2974711    2.9949936   -1.4643528 
C    -3.5741498    3.4514097   -1.8032402 
H    -5.1536359    3.4524506   -3.2939384 
H    -3.9037508    1.9529341   -4.8617739 
H    -1.6261704    1.1462686   -4.2660659 
H    -1.8704269    3.2730080   -0.4952266 
H    -4.1247784    4.0873343   -1.1029338 
C     4.7009049    2.9945963    2.2225301 
C     5.1210990    2.1545980    1.1809341 
C     4.2043738    1.7236728    0.2136472 
C     2.8514196    2.1301820    0.2642189 
C     2.4355632    2.9484767    1.3406621 
C     3.3525565    3.3811221    2.3025135 
H     5.4172695    3.3396872    2.9750933 
H     6.1682426    1.8413967    1.1148573 
H     4.5400448    1.0757826   -0.6043115 
H     1.3855878    3.2451934    1.4318066 
H     3.0130432    4.0172285    3.1260143 
C     2.4888591   -2.2351403    0.7674322 
C     1.6083951   -0.2760246    2.7655449 
C    -3.2017096   -0.2247138   -0.0954184 
C    -1.8973890   -2.1883405   -1.8417327 
C    -0.2575221   -2.2302512    1.7116166 
C    -1.4162262   -2.2182632    1.0222782 
C     3.0471349   -3.1271839    1.7085260 
C     0.5994362    0.2939053    3.5724355 
C    -3.4154357    0.3431884    1.1795920 
C    -3.0011408   -3.0673893   -1.8888554 
C     2.9698115   -2.2239324   -0.5566511 
C     2.9628283   -0.0973594    3.1090172 
C    -4.1513785   -0.0277299   -1.1169749 
C    -0.9665011   -2.1771019   -2.8991036 
C     4.0776062   -3.9931103    1.3217645 
C     0.9441918    1.0109832    4.7243640 
C    -4.5804043    1.0765540    1.4344055 
C    -3.1659048   -3.9208153   -2.9869770 
C     4.0027206   -3.0920446   -0.9372354 
C     3.2985818    0.6226352    4.2634159 
C    -5.3141057    0.7086883   -0.8531672 
C    -1.1380142   -3.0323665   -3.9966230 
C     4.5557665   -3.9757613    0.0011468 
C     2.2948330    1.1735438    5.0726076 
C    -5.5325760    1.2578373    0.4182611 
C    -2.2364669   -3.9035358   -4.0400326 
H    -0.1006266   -2.9162777    2.5556037 
H    -2.2431702   -2.8941194    1.2809345 
H     2.6860737   -3.1377852    2.7429246 
H    -0.4555661    0.1690200    3.3021038 
H    -2.6726284    0.2043118    1.9737551 
H    -3.7356798   -3.0776321   -1.0759190 
H     2.5298089   -1.5330724   -1.2853742 
H     3.7538740   -0.5111669    2.4769209 
H    -3.9836986   -0.4400539   -2.1161200 
H    -0.1082499   -1.4962140   -2.8560748 
H     4.5097477   -4.6837608    2.0530992 
H     0.1580562    1.4411157    5.3534429 
H    -4.7474574    1.5050355    2.4279934 
H    -4.0225587   -4.6016328   -3.0219992 
H     4.3754641   -3.0783837   -1.9665177 
H     4.3526271    0.7588320    4.5243562 
H    -6.0477980    0.8591465   -1.6511426 
H    -0.4138665   -3.0185467   -4.8175770 
H     5.3622333   -4.6541050   -0.2957753 
H     2.5633870    1.7333249    5.9743781 
H    -6.4435681    1.8311136    0.6185077 
H    -2.3703573   -4.5722319   -4.8965666 
