79
Energy =
C     0.8404714   -0.4061526   -2.5314526 
C     1.5686200    0.7007363   -2.0095931 
C     2.4770082    0.5258704   -0.9272544 
H     1.2908505    1.7164702   -2.3165868 
Pd    0.4374469   -0.1708943   -0.3493452 
P     0.4091153    0.1713358    1.9383773 
P    -1.6958048   -1.0374020   -0.1253822 
H     1.3121931   -1.3971729   -2.4418185 
H     2.9511895   -0.4635375   -0.8327433 
C    -2.1947889   -0.2226551   -5.5752151 
C    -1.5578824   -1.4343852   -5.2700413 
C    -0.5851949   -1.4818862   -4.2634106 
C    -0.2251273   -0.3178210   -3.5468744 
C    -0.9017869    0.8890052   -3.8420131 
C    -1.8685288    0.9356751   -4.8501972 
H    -2.9495402   -0.1810869   -6.3672025 
H    -1.8115447   -2.3442520   -5.8238827 
H    -0.0823515   -2.4290048   -4.0362874 
H    -0.6766210    1.7982340   -3.2751066 
H    -2.3788610    1.8794042   -5.0668641 
C     4.6245555    3.6497283    1.1073453 
C     5.0336065    2.3122966    1.2126936 
C     4.3127111    1.3045147    0.5598288 
C     3.1729234    1.6145073   -0.2167860 
C     2.7523730    2.9635369   -0.2840059 
C     3.4757453    3.9685235    0.3641185 
H     5.1915167    4.4404338    1.6093029 
H     5.9225669    2.0530537    1.7970584 
H     4.6420749    0.2619401    0.6370870 
H     1.8494590    3.2306846   -0.8426040 
H     3.1374982    5.0073448    0.2971757 
C    -2.9974497   -0.2338010   -1.1237106 
C    -1.9015481   -2.8414828   -0.3480258 
C     1.4807396   -0.8960421    2.9670812 
C     0.6926079    1.8888294    2.4926616 
C    -2.1945167   -0.7258825    1.6195192 
C    -1.3034806   -0.2152167    2.4931756 
C    -3.3598321    1.0949956   -0.8125268 
C    -3.1592393   -3.4631072   -0.1902075 
C     2.2856237   -1.8627954    2.3329738 
C    -0.2850361    2.8624610    2.1922457 
C    -3.5611301   -0.8670303   -2.2487138 
C    -0.7690578   -3.6216321   -0.6537770 
C     1.4936706   -0.7871877    4.3746010 
C     1.8985295    2.2759163    3.1092128 
C    -4.2967626    1.7703862   -1.6036571 
C    -3.2747394   -4.8505068   -0.3418480 
C     3.1008453   -2.7101060    3.0964667 
C    -0.0671159    4.2032823    2.5306535 
C    -4.4974767   -0.1829736   -3.0356097 
C    -0.8914248   -5.0099608   -0.8055500 
C     2.3086060   -1.6378393    5.1319476 
C     2.1086773    3.6206311    3.4431701 
C    -4.8690766    1.1303689   -2.7148850 
C    -2.1430542   -5.6234691   -0.6496937 
C     3.1121206   -2.5975499    4.4945125 
C     1.1297318    4.5833273    3.1592875 
H    -3.2156540   -0.9870985    1.9299848 
H    -1.5678586   -0.0430220    3.5456862 
H    -2.9133968    1.5971120    0.0536984 
H    -4.0477126   -2.8643338    0.0392219 
H     2.2685246   -1.9473004    1.2400713 
H    -1.2194605    2.5683184    1.7002788 
H    -3.2675544   -1.8863390   -2.5157144 
H     0.2064148   -3.1352222   -0.7708079 
H     0.8781819   -0.0328379    4.8772155 
H     2.6743749    1.5349393    3.3224873 
H    -4.5834701    2.7965106   -1.3514162 
H    -4.2510119   -5.3307508   -0.2201306 
H     3.7270791   -3.4580906    2.5995554 
H    -0.8332572    4.9527091    2.3066709 
H    -4.9311995   -0.6800184   -3.9088152 
H    -0.0094321   -5.6125272   -1.0454416 
H     2.3176236   -1.5516894    6.2233375 
H     3.0480191    3.9152289    3.9212228 
H    -5.6029351    1.6586518   -3.3321707 
H    -2.2388915   -6.7077124   -0.7680573 
H     3.7485153   -3.2591961    5.0911379 
H     1.2989966    5.6320083    3.4243606 
