79
Energy =
C     0.9485353   -0.6616098   -2.4648933 
C     1.6683258    0.4715720   -2.0002623 
C     2.5550696    0.3594745   -0.8897647 
H     1.4183547    1.4700079   -2.3816006 
Pd    0.4886438   -0.2660992   -0.3019796 
P     0.4507414    0.0978026    1.9879372 
P    -1.6930482   -1.0169137   -0.0819725 
H     1.3821992   -1.6488433   -2.2394723 
H     3.0435967   -0.6151619   -0.7358325 
C    -2.0581690   -0.8072310   -5.5386005 
C    -1.6131826    0.4389679   -5.0655723 
C    -0.6310878    0.5080324   -4.0735533 
C    -0.0722894   -0.6706928   -3.5262706 
C    -0.5249296   -1.9174039   -4.0172230 
C    -1.5058238   -1.9848622   -5.0138216 
H    -2.8257016   -0.8569167   -6.3176358 
H    -2.0355699    1.3622517   -5.4751754 
H    -0.2976502    1.4900204   -3.7225712 
H    -0.1026338   -2.8407533   -3.6060140 
H    -1.8391947   -2.9610325   -5.3814177 
C     4.5216394    3.6600400    1.0528438 
C     5.1487561    2.4079704    0.9649454 
C     4.5041000    1.3418436    0.3242460 
C     3.2207048    1.5089904   -0.2445235 
C     2.6044030    2.7782448   -0.1517764 
C     3.2477870    3.8408720    0.4895757 
H     5.0221361    4.4916446    1.5592682 
H     6.1456116    2.2617061    1.3937876 
H     4.9996230    0.3668161    0.2546967 
H     1.5966196    2.9234378   -0.5554043 
H     2.7459928    4.8104224    0.5659316 
C    -2.9737953    0.0201443   -0.8781289 
C    -2.0396413   -2.7523246   -0.5323671 
C     1.6413788   -0.8477970    2.9986980 
C     0.5476855    1.8615062    2.4776825 
C    -2.1132472   -0.9055205    1.7070862 
C    -1.2081574   -0.4244737    2.5820261 
C    -2.5836527    1.2516275   -1.4393096 
C    -2.6544444   -3.0845061   -1.7569953 
C     3.0094755   -0.5005361    2.9448488 
C    -0.2569605    2.7611739    1.7442090 
C    -4.3337958   -0.3575521   -0.8931063 
C    -1.5630680   -3.7771748    0.3144255 
C     1.2377156   -1.9736760    3.7461031 
C     1.3789584    2.3450835    3.5051533 
C    -3.5405908    2.0973479   -2.0162912 
C    -2.8036555   -4.4312542   -2.1180898 
C     3.9524075   -1.2574901    3.6505883 
C    -0.2283302    4.1289534    2.0378438 
C    -5.2852897    0.4915404   -1.4720750 
C    -1.7198037   -5.1189789   -0.0535459 
C     2.1897781   -2.7282980    4.4463678 
C     1.4138936    3.7194775    3.7825882 
C    -4.8901635    1.7168949   -2.0339586 
C    -2.3401564   -5.4477313   -1.2701220 
C     3.5453496   -2.3710181    4.4028751 
C     0.6145302    4.6108764    3.0526553 
H    -3.1226830   -1.1996707    2.0266329 
H    -1.4478070   -0.2954482    3.6465993 
H    -1.5247942    1.5348058   -1.4269640 
H    -3.0126033   -2.2979320   -2.4275064 
H     3.3364949    0.3609003    2.3535466 
H    -0.9055644    2.3855396    0.9435271 
H    -4.6475695   -1.3143326   -0.4613596 
H    -1.0702561   -3.5246668    1.2607493 
H     0.1828666   -2.2664126    3.7838687 
H     1.9986345    1.6574597    4.0882813 
H    -3.2310738    3.0501604   -2.4578814 
H    -3.2852871   -4.6841234   -3.0684272 
H     5.0099864   -0.9765994    3.6103466 
H    -0.8596290    4.8210285    1.4709531 
H    -6.3396352    0.1969247   -1.4841954 
H    -1.3570215   -5.9105899    0.6100489 
H     1.8687235   -3.5972032    5.0299460 
H     2.0673441    4.0923889    4.5778580 
H    -5.6384480    2.3755708   -2.4866753 
H    -2.4617491   -6.4976366   -1.5555505 
H     4.2850551   -2.9613682    4.9531516 
H     0.6450362    5.6823129    3.2759942 
