85
Energy =
C     0.8729821   -0.5048839   -3.0076683 
C     2.0358886    0.0026352   -2.3667479 
C     2.7343327   -0.7744280   -1.3974114 
H     2.2715258    1.0690030   -2.4710457 
Pd    0.6041029   -0.5220415   -0.7953082 
P     0.5558803   -0.8735470    1.5036603 
P    -1.6745100   -0.1823063   -0.5108787 
H     0.7987585   -1.5980087   -3.1180999 
H     2.6853166   -1.8697181   -1.4929056 
C    -1.8128021    1.6628345   -5.5763958 
C    -1.7470333    0.2632240   -5.6232341 
C    -0.8712991   -0.4278752   -4.7773752 
C    -0.0345069    0.2673237   -3.8761144 
C    -0.1240143    1.6783712   -3.8274619 
C    -1.0019508    2.3669548   -4.6697955 
H    -2.4978919    2.2050353   -6.2361848 
H    -2.3835000   -0.2948844   -6.3169826 
H    -0.8277231   -1.5216370   -4.8157289 
H     0.4881118    2.2430332   -3.1159617 
H    -1.0567254    3.4594712   -4.6196015 
C     5.8258740    0.6351868    1.2526818 
C     5.4559464   -0.7182383    1.2319166 
C     4.4695645   -1.1655272    0.3454991 
C     3.8166652   -0.2673577   -0.5307178 
C     4.2060134    1.0934197   -0.5039433 
C     5.2018911    1.5362743    0.3735653 
H     6.6008659    0.9856689    1.9418774 
H     5.9373708   -1.4320443    1.9079177 
H     4.1854610   -2.2230227    0.3413368 
H     3.7265347    1.8184127   -1.1692610 
H     5.4927353    2.5920295    0.3729470 
C    -1.1310582   -1.5206739    1.8672497 
C    -2.1566607   -1.2278115    0.9324812 
C     1.7233619   -2.0755541    2.2311531 
C     0.7099098    0.6949314    2.4280247 
C    -1.9765655    1.5346227    0.0639260 
C    -2.8821886   -0.5344553   -1.8309090 
C    -1.4235969   -2.2753861    3.0168934 
C    -3.4613693   -1.7016318    1.1573179 
C    -2.7282996   -2.7440619    3.2320223 
C    -3.7423767   -2.4600072    2.3041342 
C     2.5166436   -1.7859348    3.3570497 
C    -0.3671781    1.2458645    3.1493709 
C    -0.9447675    2.4857654   -0.0613195 
C    -3.5837681    0.4982313   -2.4820879 
C     1.8463295   -3.3263952    1.5877017 
C     1.9148953    1.4196304    2.2964035 
C    -3.1870615    1.8950213    0.6912895 
C    -3.0391133   -1.8703905   -2.2623076 
C     3.4276448   -2.7420488    3.8315659 
C    -0.2357699    2.5117476    3.7372017 
C    -1.1197842    3.7844406    0.4343098 
C    -4.4546924    0.1911778   -3.5371212 
C     2.7501796   -4.2787551    2.0720365 
C     2.0397663    2.6783384    2.8964553 
C    -3.3581564    3.1953241    1.1832285 
C    -3.9173536   -2.1685956   -3.3107159 
C     3.5465174   -3.9844447    3.1923270 
C     0.9641425    3.2277060    3.6134686 
C    -2.3252616    4.1389202    1.0570144 
C    -4.6284273   -1.1379194   -3.9474176 
H    -0.6281490   -2.5082443    3.7331085 
H    -4.2519751   -1.4934632    0.4281187 
H    -2.9513463   -3.3409882    4.1221617 
H    -4.7569584   -2.8365911    2.4696926 
H     2.4306446   -0.8162570    3.8571702 
H    -1.3100822    0.6975089    3.2399324 
H     0.0052028    2.1930241   -0.5240724 
H    -3.4473764    1.5384439   -2.1707368 
H     1.2362123   -3.5477821    0.7033956 
H     2.7506724    1.0031260    1.7243319 
H    -3.9914579    1.1599796    0.8034349 
H    -2.4810137   -2.6760286   -1.7707854 
H     4.0460926   -2.5122251    4.7052956 
H    -1.0776473    2.9400459    4.2903690 
H    -0.3090341    4.5143192    0.3460128 
H    -4.9957201    0.9979113   -4.0417034 
H     2.8402944   -5.2490643    1.5729712 
H     2.9792952    3.2319613    2.7973331 
H    -4.2984018    3.4721846    1.6712079 
H    -4.0462357   -3.2068850   -3.6334845 
H     4.2596703   -4.7265578    3.5657341 
H     1.0616118    4.2157568    4.0751602 
H    -2.4606573    5.1516624    1.4505958 
H    -5.3134467   -1.3728509   -4.7685683 
