85
Energy =
C     0.9093888    0.8347062   -2.7414425 
C     1.9635099    1.3074284   -1.9108491 
C     2.7559606    0.3836606   -1.1689042 
H     2.0630659    2.3834071   -1.7183759 
Pd    0.5907492    0.2041082   -0.6181215 
P     0.6278420   -0.6694030    1.5298654 
P    -1.7060092   -0.0023722   -0.4473476 
H     1.0216136   -0.1876043   -3.1366358 
H     2.8590857   -0.6285032   -1.5900565 
C    -1.8959594    3.2359203   -4.9476463 
C    -1.5613941    1.9455397   -5.3826493 
C    -0.6510076    1.1735917   -4.6504103 
C    -0.0536814    1.6770333   -3.4717458 
C    -0.4147543    2.9734437   -3.0373789 
C    -1.3196495    3.7444978   -3.7717541 
H    -2.6073990    3.8422664   -5.5173471 
H    -2.0044067    1.5412254   -6.2986628 
H    -0.3756586    0.1741668   -5.0075728 
H     0.0023853    3.3722480   -2.1065265 
H    -1.5904313    4.7441294   -3.4180589 
C     5.9088296    1.4903839    1.5367042 
C     5.9582551    0.2735869    0.8414305 
C     4.9099367   -0.0896178   -0.0131244 
C     3.8012130    0.7661650   -0.2036866 
C     3.7507162    1.9753785    0.5290409 
C     4.7953869    2.3339543    1.3847512 
H     6.7274135    1.7766203    2.2049779 
H     6.8179680   -0.3939846    0.9611926 
H     4.9579237   -1.0366408   -0.5627930 
H     2.8776770    2.6310796    0.4382120 
H     4.7384559    3.2716800    1.9464750 
C    -1.0551397   -0.3899520    2.2453408 
C    -2.1073026   -0.0973438    1.3457112 
C     0.8171502   -2.4941276    1.5522415 
C     1.7999091    0.0166914    2.7457976 
C    -2.7874279    1.3187222   -1.0989532 
C    -2.2355075   -1.6005658   -1.1703686 
C    -1.3288523   -0.5067889    3.6214090 
C    -3.4178462    0.0832758    1.8296362 
C    -2.6351990   -0.3252215    4.0951731 
C    -3.6781771   -0.0301413    3.2016426 
C     0.9848703   -3.2094057    2.7570248 
C     3.0513278   -0.5979133    2.9594366 
C    -2.7165439    2.5810162   -0.4682771 
C    -2.8170740   -2.6203716   -0.3922714 
C     0.6986976   -3.1948550    0.3351494 
C     1.5047968    1.2404578    3.3858309 
C    -3.6305663    1.1397706   -2.2115857 
C    -1.9280022   -1.8464806   -2.5273102 
C     1.0372874   -4.6087097    2.7361578 
C     3.9755044   -0.0135463    3.8346156 
C    -3.5046396    3.6407088   -0.9298089 
C    -3.0962505   -3.8675155   -0.9703058 
C     0.7447305   -4.5959229    0.3214088 
C     2.4343636    1.8158823    4.2606628 
C    -4.4038882    2.2124043   -2.6781865 
C    -2.2221229   -3.0895895   -3.1003992 
C     0.9148828   -5.3025410    1.5206234 
C     3.6680571    1.1873620    4.4903021 
C    -4.3479047    3.4581646   -2.0377954 
C    -2.8030526   -4.1036633   -2.3210093 
H    -0.5176180   -0.7224840    4.3244991 
H    -4.2279025    0.3206898    1.1318304 
H    -2.8397801   -0.4081189    5.1674994 
H    -4.6964330    0.1158510    3.5762196 
H     1.0813521   -2.6748006    3.7080304 
H     3.3017855   -1.5324357    2.4480675 
H    -2.0523061    2.7269657    0.3916241 
H    -3.0408173   -2.4491600    0.6652129 
H     0.5591462   -2.6398769   -0.6006817 
H     0.5439146    1.7362160    3.2091040 
H    -3.6950856    0.1669388   -2.7076969 
H    -1.4605142   -1.0614884   -3.1315986 
H     1.1721592   -5.1608178    3.6719911 
H     4.9435904   -0.4969181    3.9972750 
H    -3.4567297    4.6128858   -0.4284235 
H    -3.5437300   -4.6575948   -0.3586904 
H     0.6462053   -5.1325748   -0.6275608 
H     2.1941718    2.7576075    4.7649299 
H    -5.0567825    2.0687593   -3.5449605 
H    -1.9913420   -3.2702679   -4.1554366 
H     0.9540185   -6.3967629    1.5109054 
H     4.3932770    1.6384263    5.1752202 
H    -4.9594861    4.2895252   -2.4030751 
H    -3.0241993   -5.0784608   -2.7677378 
