85
Energy =
C     0.6629717   -0.6166479   -2.8795886 
C     1.8688569   -0.0359779   -2.3896187 
C     2.5994171   -0.6784168   -1.3513235 
H     2.1460168    0.9794553   -2.7006699 
Pd    0.5177851   -0.2006993   -0.6808342 
P     0.7212298    0.0403033    1.6099857 
P    -1.7580907    0.0312241   -0.3019963 
H     0.5743979   -1.7115082   -2.8027275 
H     2.4847799   -1.7718286   -1.2790217 
C    -1.8391902    1.1421988   -5.9014050 
C    -1.7701916   -0.2504822   -5.7527138 
C    -0.9762392   -0.8101937   -4.7439352 
C    -0.2208483    0.0117362   -3.8768226 
C    -0.3264496    1.4155270   -4.0185636 
C    -1.1225067    1.9722525   -5.0228037 
H    -2.4584211    1.5819896   -6.6899059 
H    -2.3330120   -0.9043248   -6.4270987 
H    -0.9166868   -1.8995361   -4.6385186 
H     0.2082836    2.0746423   -3.3258340 
H    -1.1948419    3.0604502   -5.1163342 
C     6.1227768    0.8207329    0.6087023 
C     5.8833234   -0.5582910    0.5243592 
C     4.7284261   -1.0312029   -0.1108402 
C     3.7924781   -0.1359955   -0.6783678 
C     4.0397266    1.2520914   -0.5687615 
C     5.1949713    1.7223501    0.0611805 
H     7.0246469    1.1940621    1.1042744 
H     6.6011196   -1.2685487    0.9476246 
H     4.5577355   -2.1111419   -0.1938380 
H     3.3112117    1.9683923   -0.9634619 
H     5.3676861    2.8002056    0.1398966 
C    -1.9412516    0.8543537    1.3444819 
C    -0.8194661    0.8496185    2.2066564 
C    -2.7514970    1.0256589   -1.4627691 
C    -2.6120397   -1.5781141   -0.0858368 
C     0.7633924   -1.6128678    2.3997908 
C     2.0785756    1.0489333    2.3022975 
C    -3.1506647    1.4288192    1.7794728 
C    -0.9141935    1.4263378    3.4884827 
C    -3.2369697    2.0005645    3.0559840 
C    -2.1210301    2.0004671    3.9091299 
C    -2.7248147    2.4348647   -1.3744852 
C    -1.8254279   -2.7374989    0.0675064 
C     1.7791858   -2.5098424    1.9998806 
C     2.0573403    2.4358790    2.0334975 
C    -3.4451096    0.4064096   -2.5234270 
C    -4.0163202   -1.6673134    0.0201281 
C    -0.2414205   -2.0489723    3.2851224 
C     3.1463148    0.4949513    3.0331947 
C    -3.4202906    3.2091545   -2.3112022 
C    -2.4347214   -3.9731628    0.3263956 
C     1.7987554   -3.8177547    2.4992364 
C     3.0787030    3.2597098    2.5186274 
C    -4.1361132    1.1894194   -3.4566507 
C    -4.6198012   -2.9058945    0.2712996 
C    -0.2224849   -3.3648697    3.7705581 
C     4.1747735    1.3256396    3.5004804 
C    -4.1309954    2.5877196   -3.3497107 
C    -3.8308512   -4.0578839    0.4269524 
C     0.7947103   -4.2484623    3.3821973 
C     4.1407328    2.7046799    3.2508757 
H    -4.0197562    1.4444286    1.1135541 
H    -0.0406816    1.4316374    4.1491326 
H    -4.1774758    2.4543365    3.3847797 
H    -2.1909898    2.4526132    4.9036795 
H    -2.1704141    2.9252553   -0.5667202 
H    -0.7331145   -2.6678345   -0.0057407 
H     2.5534080   -2.1792614    1.2990164 
H     1.2331253    2.8693221    1.4549078 
H    -3.4504543   -0.6838110   -2.6174989 
H    -4.6375715   -0.7734494   -0.1010038 
H    -1.0450046   -1.3700574    3.5867371 
H     3.1733959   -0.5773092    3.2484405 
H    -3.4079303    4.3009224   -2.2290791 
H    -1.8158045   -4.8675874    0.4498500 
H     2.5946619   -4.5048226    2.1935158 
H     3.0499166    4.3361342    2.3202977 
H    -4.6741698    0.7022935   -4.2754851 
H    -5.7099889   -2.9727817    0.3476998 
H    -1.0093712   -3.6991343    4.4543912 
H     5.0039565    0.8896705    4.0666163 
H    -4.6748236    3.1946847   -4.0807194 
H    -4.3082256   -5.0230606    0.6255331 
H     0.8053975   -5.2742769    3.7647171 
H     4.9435311    3.3487262    3.6241732 
