85
Energy =
C     0.6033372   -1.5018453   -2.5974018 
C     1.8424258   -0.9451479   -2.1762461 
C     2.5064957   -1.4394170   -1.0182237 
H     2.1843130   -0.0112553   -2.6401800 
Pd    0.4496997   -0.7338851   -0.4974989 
P     0.6074515   -0.1539433    1.7365031 
P    -1.7888265   -0.1569370   -0.3153776 
H     0.4183264   -2.5588726   -2.3506518 
H     2.3072808   -2.4842937   -0.7343244 
C    -1.8919828    0.0292513   -5.7522898 
C    -1.8263267   -1.3482939   -5.4980572 
C    -1.0166341   -1.8356510   -4.4634566 
C    -0.2356491   -0.9559266   -3.6820475 
C    -0.3080766    0.4309052   -3.9521855 
C    -1.1318543    0.9179389   -4.9710281 
H    -2.5337066    0.4121892   -6.5524317 
H    -2.4157146   -2.0473492   -6.1003851 
H    -0.9841641   -2.9110529   -4.2579496 
H     0.2590931    1.1358174   -3.3356570 
H    -1.1886369    1.9961521   -5.1528374 
C     6.0027628    0.2299650    0.8648127 
C     5.4391272   -0.9707926    1.3257984 
C     4.3146218   -1.5094996    0.6899501 
C     3.7150336   -0.8512730   -0.4100702 
C     4.2928795    0.3588754   -0.8613074 
C     5.4280659    0.8865517   -0.2360695 
H     6.8879155    0.6479516    1.3550089 
H     5.8793713   -1.4937809    2.1808676 
H     3.8822768   -2.4460997    1.0568188 
H     3.8556667    0.8973521   -1.7078869 
H     5.8645668    1.8196867   -0.6069890 
C    -2.1849383   -0.0759560    1.4894038 
C    -1.1086237   -0.0895984    2.4066192 
C    -2.1294914    1.5377063   -0.9312850 
C    -3.0399380   -1.2619909   -1.0516269 
C     1.5430689   -1.2726336    2.8391285 
C     1.2687579    1.5356531    1.9589270 
C    -3.5052018    0.0393852    1.9668332 
C    -1.3613191   -0.0054415    3.7893697 
C    -3.7482850    0.1223729    3.3437047 
C    -2.6783372    0.0960830    4.2544668 
C    -1.0415755    2.4237624   -1.0701443 
C    -3.4532365   -1.0714146   -2.3872722 
C     1.4582835   -2.6563830    2.5754447 
C     0.4003809    2.6389504    2.0974808 
C    -3.4376642    1.9915654   -1.1993126 
C    -3.4953437   -2.3899322   -0.3332892 
C     2.3269434   -0.8131221    3.9157417 
C     2.6600989    1.7491561    1.8425729 
C    -1.2577181    3.7473901   -1.4762657 
C    -4.3363979   -1.9837422   -2.9810738 
C     2.1509933   -3.5697321    3.3791578 
C     0.9223904    3.9394339    2.1269360 
C    -3.6467079    3.3137894   -1.6128093 
C    -4.3756356   -3.2962976   -0.9368717 
C     3.0272611   -1.7326458    4.7104986 
C     3.1713265    3.0522874    1.8789440 
C    -2.5594794    4.1917413   -1.7520501 
C    -4.8011551   -3.0925602   -2.2596691 
C     2.9420772   -3.1072165    4.4438199 
C     2.3057453    4.1486638    2.0184105 
H    -4.3430864    0.0496981    1.2617637 
H    -0.5269922   -0.0257257    4.4988364 
H    -4.7769884    0.2026055    3.7096003 
H    -2.8727830    0.1542221    5.3302126 
H    -0.0249523    2.0731490   -0.8541178 
H    -3.0871219   -0.2164274   -2.9650264 
H     0.8546227   -3.0127682    1.7315999 
H    -0.6806482    2.4859743    2.1791903 
H    -4.2905982    1.3127171   -1.0954297 
H    -3.1690328   -2.5546399    0.6994140 
H     2.3997289    0.2582532    4.1281969 
H     3.3426806    0.9016643    1.7301000 
H    -0.4075158    4.4296323   -1.5779227 
H    -4.6542634   -1.8248584   -4.0163688 
H     2.0812512   -4.6423566    3.1711634 
H     0.2433053    4.7911368    2.2374292 
H    -4.6631329    3.6607072   -1.8255670 
H    -4.7330684   -4.1629948   -0.3713249 
H     3.6413954   -1.3714849    5.5418461 
H     4.2518675    3.2059402    1.7932699 
H    -2.7291378    5.2240391   -2.0752704 
H    -5.4930099   -3.8007226   -2.7271576 
H     3.4925953   -3.8204616    5.0658847 
H     2.7094671    5.1661073    2.0446814 
