85
Energy =
C     0.5416049   -1.8951809   -2.4879830 
C     1.8034246   -1.3170728   -2.1813409 
C     2.5004242   -1.6753852   -0.9910369 
H     2.1389360   -0.4469197   -2.7589920 
Pd    0.4708975   -0.9005433   -0.4940282 
P     0.5941689   -0.1855077    1.7163205 
P    -1.7228196   -0.1621007   -0.3199831 
H     0.3445600   -2.9046069   -2.0942027 
H     2.3275992   -2.6838481   -0.5855689 
C    -2.1306383   -0.7436813   -5.6573139 
C    -2.2185562   -2.0132396   -5.0691424 
C    -1.3439666   -2.3712565   -4.0362931 
C    -0.3556544   -1.4714996   -3.5785095 
C    -0.2890821   -0.1882281   -4.1702779 
C    -1.1657845    0.1694988   -5.1987479 
H    -2.8146445   -0.4612065   -6.4641456 
H    -2.9743250   -2.7272258   -5.4109866 
H    -1.4208435   -3.3629843   -3.5778421 
H     0.4457385    0.5426101   -3.8157878 
H    -1.0987000    1.1667487   -5.6460081 
C     5.9458905    0.3265742    0.6484454 
C     5.4308075   -0.8317801    1.2503616 
C     4.3287027   -1.4866927    0.6889561 
C     3.7031946   -0.9897095   -0.4784016 
C     4.2388872    0.1749619   -1.0788896 
C     5.3497330    0.8203331   -0.5241615 
H     6.8110146    0.8372803    1.0833897 
H     5.8887118   -1.2303363    2.1612796 
H     3.9322102   -2.3871086    1.1694657 
H     3.7848256    0.5879550   -1.9851508 
H     5.7527730    1.7157831   -1.0088438 
C    -2.1818412   -0.3782721    1.4550649 
C    -1.1133819   -0.3608281    2.3874228 
C    -1.7844766    1.6544926   -0.5759811 
C    -3.0762476   -0.8960590   -1.2969052 
C     1.6825348   -1.0888115    2.8724106 
C     1.0041093    1.5917057    1.8262535 
C    -3.5043094   -0.5185045    1.9118342 
C    -1.3805324   -0.4747202    3.7630910 
C    -3.7606800   -0.6385803    3.2862917 
C    -2.7033581   -0.6139805    4.2091168 
C    -0.6760455    2.2968483   -1.1622141 
C    -3.7324899   -0.1715622   -2.3102724 
C     2.5863078   -0.4414482    3.7355949 
C     0.0591879    2.5511903    2.2392219 
C    -2.8821599    2.4206942   -0.1324854 
C    -3.4019079   -2.2535181   -1.0807986 
C     1.6202450   -2.4991534    2.8492971 
C     2.2703791    2.0052558    1.3572069 
C    -0.6638453    3.6904374   -1.3054907 
C    -4.7238766   -0.7946698   -3.0815816 
C     3.4227685   -1.2028370    4.5660955 
C     0.3820081    3.9142207    2.1844439 
C    -2.8662291    3.8136222   -0.2797157 
C    -4.3994353   -2.8647268   -1.8493318 
C     2.4506039   -3.2520129    3.6873207 
C     2.5866378    3.3684654    1.3162268 
C    -1.7577374    4.4486557   -0.8637333 
C    -5.0633271   -2.1347308   -2.8491817 
C     3.3575905   -2.6034316    4.5431061 
C     1.6421989    4.3244130    1.7248559 
H    -4.3302215   -0.5519446    1.1929040 
H    -0.5533816   -0.4703103    4.4812015 
H    -4.7908051   -0.7587203    3.6370930 
H    -2.9079997   -0.7134080    5.2799385 
H     0.1871892    1.6998076   -1.4791876 
H    -3.4676155    0.8731189   -2.5003244 
H     2.6431789    0.6513709    3.7548895 
H    -0.9300229    2.2386420    2.5881000 
H    -3.7439175    1.9321466    0.3350298 
H    -2.8805033   -2.8272119   -0.3054079 
H     0.9240301   -3.0036205    2.1681431 
H     3.0048241    1.2650783    1.0227247 
H     0.2060718    4.1841136   -1.7497521 
H    -5.2289089   -0.2279951   -3.8702356 
H     4.1273994   -0.6963954    5.2337570 
H    -0.3578721    4.6570917    2.4989911 
H    -3.7191775    4.4064021    0.0666559 
H    -4.6582935   -3.9133997   -1.6700743 
H     2.3971440   -4.3454401    3.6695696 
H     3.5727543    3.6822016    0.9582137 
H    -1.7464456    5.5384986   -0.9690057 
H    -5.8415022   -2.6152296   -3.4511143 
H     4.0131980   -3.1929747    5.1922327 
H     1.8890971    5.3903927    1.6839132 
