121
Energy =
C     1.9284187   -0.4250141   -2.5491780 
C     0.6419427   -0.6811535   -3.0794837 
C    -0.3377701    0.3408919   -3.1419865 
H     0.3891106   -1.6926128   -3.4189142 
Pd    0.2444402   -0.2402342   -0.9533003 
P    -1.9317628    0.2051389   -0.0302092 
P     1.5176595   -1.2247372    0.8201709 
H     2.2184007    0.6339690   -2.4918612 
H     0.0323859    1.3729234   -3.0643278 
C     5.3206909   -3.0686940   -2.6109396 
C     5.4865609   -1.6852172   -2.4517550 
C     4.3697648   -0.8442705   -2.4241455 
C     3.0605846   -1.3630185   -2.5583263 
C     2.9136645   -2.7582868   -2.7394470 
C     4.0291041   -3.6000238   -2.7585592 
H     6.1928396   -3.7302859   -2.6266123 
H     6.4887293   -1.2592044   -2.3438818 
H     4.5086956    0.2353005   -2.3068572 
H     1.9211812   -3.1952838   -2.8715215 
H     3.8907287   -4.6776648   -2.8937454 
C    -4.0528177    0.0032804   -5.2836209 
C    -3.5766320    1.2560848   -4.8716611 
C    -2.3783215    1.3495452   -4.1553128 
C    -1.6336257    0.1942089   -3.8219677 
C    -2.1348883   -1.0625322   -4.2371002 
C    -3.3233353   -1.1541347   -4.9647691 
H    -4.9853398   -0.0732564   -5.8521494 
H    -4.1324677    2.1661732   -5.1196171 
H    -2.0023538    2.3345519   -3.8657046 
H    -1.5950966   -1.9804691   -3.9884074 
H    -3.6891070   -2.1365066   -5.2790547 
N    -0.5060515    1.9350217    1.8380041 
N     2.2350554    1.8093106    1.1691007 
C     0.3114025    3.1593932    1.8253045 
C     1.4226292    2.9778081    0.7728281 
C    -0.5360432    4.4221107    1.5811508 
C     2.2395166    4.2714047    0.5663097 
C     0.3205876    5.6803840    1.3832461 
C     1.3419683    5.4778025    0.2575908 
C    -1.6203807    1.9613008    2.7698521 
C     3.2897368    1.4544353    0.2235033 
C    -2.3796017    0.6552165    2.8105015 
C     4.0186102    0.1751354    0.5796515 
C    -2.5562119   -0.2012124    1.6893775 
C     3.3685521   -1.0805586    0.7323646 
C    -2.9823705    0.3103591    4.0355377 
C     5.4211207    0.2284475    0.6841651 
C    -3.2947927   -1.3943246    1.8723376 
C     4.1567183   -2.2382878    0.8886606 
C    -3.7251218   -0.8628074    4.1945213 
C     6.1914136   -0.9236347    0.8842015 
C    -3.8642616   -1.7313658    3.1055140 
C     5.5540135   -2.1661526    0.9596586 
C    -2.6284076    1.8804612   -0.3425311 
C    -3.0431070   -0.9012929   -1.0293571 
C     1.2064757   -0.9795238    2.6295382 
C     1.1935532   -3.0503341    0.6990243 
C    -1.9578228    2.7755159   -1.1932621 
C    -4.2698571   -0.4881704   -1.5812898 
C     0.0336808   -1.5217023    3.1946089 
C     1.4774533   -3.9394972    1.7599282 
C    -3.8553911    2.2730995    0.2324603 
C    -2.6522147   -2.2504782   -1.1726954 
C     2.1382295   -0.3400226    3.4735225 
C     0.6277560   -3.5681878   -0.4800041 
C    -2.5095327    4.0275308   -1.4945602 
C    -5.0990727   -1.4151214   -2.2303029 
C    -0.2039881   -1.4178295    4.5718433 
C     1.2089224   -5.3084530    1.6284524 
C    -4.3998836    3.5335515   -0.0564152 
C    -3.4887514   -3.1774171   -1.8078141 
C     1.8854533   -0.2184906    4.8466018 
C     0.3551309   -4.9369923   -0.6121362 
C    -3.7341645    4.4097987   -0.9265873 
C    -4.7215538   -2.7614773   -2.3326173 
C     0.7125456   -0.7546728    5.3995896 
C     0.6478723   -5.8113648    0.4436033 
H     0.8213522    3.2944153    2.8133619 
H     0.9270630    2.7043052   -0.1809048 
H    -1.1663202    4.2566421    0.6921341 
H    -1.2203580    4.5772709    2.4330583 
H     2.8222503    4.4719239    1.4884570 
H     2.9727515    4.1249005   -0.2464957 
H    -0.3357179    6.5418671    1.1667555 
H     0.8572286    5.9202508    2.3222101 
H     1.9581751    6.3835591    0.1175296 
H     0.8085105    5.3045017   -0.6983638 
H     0.1180010    1.1471945    2.0484884 
H     2.6526588    1.9994200    2.0879727 
H    -1.3108917    2.2220949    3.8071391 
H    -2.3248007    2.7522526    2.4477833 
H     2.7950772    1.3220388   -0.7561974 
H     4.0498237    2.2512556    0.0845028 
H    -2.8431673    0.9820286    4.8900374 
H     5.9163026    1.2013450    0.5849451 
H    -3.4497864   -2.0743084    1.0332202 
H     3.6787807   -3.2184334    0.9501741 
H    -4.1791012   -1.1009445    5.1619986 
H     7.2811149   -0.8502070    0.9597643 
H    -4.4294983   -2.6639507    3.2015878 
H     6.1362998   -3.0854464    1.0786163 
H    -0.9835508    2.4942320   -1.6006083 
H    -4.5827755    0.5570862   -1.5156308 
H    -0.6876600   -2.0501297    2.5653484 
H     1.9029929   -3.5610790    2.6948390 
H    -4.3870955    1.5928554    0.9067872 
H    -1.6981187   -2.5832726   -0.7515245 
H     3.0832976    0.0287775    3.0664045 
H     0.3862348   -2.8764345   -1.2939893 
H    -1.9722579    4.7134650   -2.1583008 
H    -6.0467407   -1.0769850   -2.6618751 
H    -1.1130974   -1.8570784    4.9916770 
H     1.4346444   -5.9854606    2.4589446 
H    -5.3511252    3.8285695    0.3987496 
H    -3.1762827   -4.2242395   -1.8884544 
H     2.6210788    0.2762433    5.4895861 
H    -0.0909441   -5.3166376   -1.5377103 
H    -4.1635772    5.3911223   -1.1529105 
H    -5.3795757   -3.4807455   -2.8312373 
H     0.5235216   -0.6714253    6.4749186 
H     0.4340838   -6.8810228    0.3484754 
