121
Energy =
C     2.1062953    0.4580777   -1.9091560 
C     0.9325115    0.5299334   -2.6924418 
C    -0.0315834    1.5345363   -2.3795736 
H     0.7659559   -0.1689669   -3.5206057 
Pd    0.1796286    0.0589890   -0.6885241 
P    -2.0215000    0.3583541    0.2193060 
P     0.9723524   -1.9843307    0.2816927 
H     2.3169611    1.3326112   -1.2778881 
H     0.3768888    2.4452533   -1.9155676 
C     5.6879130   -1.7382849   -2.7835701 
C     5.7103444   -0.6237519   -1.9317699 
C     4.5226971    0.0482342   -1.6268348 
C     3.2898715   -0.3642143   -2.1839415 
C     3.2832068   -1.4887902   -3.0415812 
C     4.4683928   -2.1714625   -3.3306192 
H     6.6158454   -2.2687475   -3.0210467 
H     6.6547674   -0.2832270   -1.4956751 
H     4.5415063    0.9103637   -0.9513093 
H     2.3484323   -1.8342112   -3.4888971 
H     4.4428616   -3.0417495   -3.9945773 
C    -3.5278965    2.2527987   -4.7781115 
C    -2.9379189    3.2918432   -4.0434880 
C    -1.8202940    3.0386236   -3.2405235 
C    -1.2603940    1.7438708   -3.1624699 
C    -1.8780532    0.7029407   -3.8942462 
C    -2.9971249    0.9551550   -4.6938779 
H    -4.4016764    2.4501313   -5.4074542 
H    -3.3514156    4.3039684   -4.0932874 
H    -1.3607058    3.8581509   -2.6765888 
H    -1.4749584   -0.3138374   -3.8401801 
H    -3.4578675    0.1366508   -5.2568123 
N    -0.6002412    2.9606276    0.6697752 
N     1.3224690    1.1382586    1.4562310 
C     0.5761616    3.4836597    1.3843871 
C     1.7726599    2.5205490    1.1733647 
C     0.9688826    4.9237937    0.9885862 
C     2.9974434    3.0074330    1.9683438 
C     2.2129639    5.4090654    1.7491018 
C     3.3871339    4.4375223    1.5590171 
C    -1.8849308    3.5910765    0.9570134 
C     2.1111662    0.2395623    2.3137116 
C    -2.9676111    3.0897238    0.0149838 
C     3.1161622   -0.6833372    1.6294941 
C    -3.1088049    1.7317580   -0.3960020 
C     2.7440896   -1.7462175    0.7561121 
C    -3.9090159    4.0304276   -0.4441587 
C     4.4724437   -0.5610744    1.9849498 
C    -4.1607839    1.3898732   -1.2716191 
C     3.7335532   -2.6164646    0.2601755 
C    -4.9649485    3.6720620   -1.2904165 
C     5.4490322   -1.4437684    1.5036246 
C    -5.0814611    2.3451671   -1.7172720 
C     5.0763793   -2.4736318    0.6339563 
C    -2.2502324    0.5023784    2.0492673 
C    -3.0170673   -1.1599951   -0.1568255 
C     0.2548507   -2.8314544    1.7626456 
C     0.9126150   -3.3857395   -0.9191116 
C    -3.3678617    1.1586042    2.6110032 
C    -4.0351804   -1.6403345    0.6911500 
C    -1.0647356   -3.3234353    1.6602306 
C     1.2405886   -4.7008912   -0.5232717 
C    -1.3425118   -0.1377379    2.9108290 
C    -2.6844077   -1.8957050   -1.3112722 
C     0.9553173   -2.9870906    2.9759103 
C     0.4538703   -3.1609150   -2.2291870 
C    -3.5450691    1.1884549    4.0021886 
C    -4.6920335   -2.8423800    0.3907401 
C    -1.6823215   -3.9237349    2.7626093 
C     1.1391778   -5.7577400   -1.4369810 
C    -1.5189140   -0.1090672    4.3004434 
C    -3.3425555   -3.0950029   -1.6128598 
C     0.3287903   -3.5883321    4.0792792 
C     0.3455383   -4.2197710   -3.1417885 
C    -2.6200831    0.5615993    4.8512507 
C    -4.3453632   -3.5743646   -0.7560940 
C    -0.9924561   -4.0469063    3.9794963 
C     0.6936456   -5.5196778   -2.7475351 
H     0.3245505    3.4642622    2.4647868 
H     2.0540985    2.5888309    0.0975699 
H     1.1668620    4.9419902   -0.1025604 
H     0.1198930    5.6064647    1.1692722 
H     2.7712083    2.9834300    3.0520778 
H     3.8468520    2.3223904    1.7973623 
H     2.4908561    6.4239151    1.4141090 
H     1.9725509    5.4869020    2.8273733 
H     4.2630082    4.7681260    2.1443558 
H     3.6983522    4.4399060    0.4956792 
H    -0.4264206    3.0032178   -0.3384840 
H     0.3694868    1.2037259    1.8259818 
H    -2.1508993    3.3535155    2.0061254 
H    -1.8586682    4.6988226    0.8841292 
H     2.6453385    0.7843932    3.1137724 
H     1.3774638   -0.3962769    2.8371144 
H    -3.8046964    5.0737410   -0.1245434 
H     4.7633188    0.2375585    2.6776467 
H    -4.2703901    0.3549768   -1.6051143 
H     3.4579919   -3.4137749   -0.4348742 
H    -5.6807163    4.4300796   -1.6244802 
H     6.4941838   -1.3221347    1.8061365 
H    -5.8832159    2.0459628   -2.3993744 
H     5.8250420   -3.1641049    0.2336776 
H    -4.1066834    1.6414394    1.9632987 
H    -4.3017455   -1.0917602    1.5993093 
H    -1.6077239   -3.2402299    0.7147966 
H     1.5650426   -4.8986320    0.5039886 
H    -0.5063911   -0.6944053    2.4864016 
H    -1.8807464   -1.5283395   -1.9554920 
H     1.9955188   -2.6553556    3.0588256 
H     0.1704092   -2.1438449   -2.5189596 
H    -4.4157053    1.7025967    4.4228504 
H    -5.4734034   -3.2135965    1.0623809 
H    -2.7086400   -4.2929029    2.6679815 
H     1.3999038   -6.7735570   -1.1222065 
H    -0.7988761   -0.6239298    4.9447339 
H    -3.0575757   -3.6626571   -2.5046101 
H     0.8829446   -3.7057511    5.0166168 
H    -0.0155024   -4.0296366   -4.1582701 
H    -2.7638756    0.5889152    5.9363536 
H    -4.8534114   -4.5184833   -0.9785951 
H    -1.4793043   -4.5114667    4.8432115 
H     0.6083270   -6.3500623   -3.4562114 
