121
Energy =
C     1.9649570    0.3334602   -2.1130493 
C     0.8091445    0.8785990   -2.7356413 
C     0.0328624    1.8599291   -2.0834379 
H     0.4809733    0.4814182   -3.7044450 
Pd    0.1226058   -0.1002267   -0.8448847 
P    -2.2089847   -0.2371519   -0.4432036 
P     1.1598656   -1.7005410    0.5816932 
H     2.4484252    0.9429578   -1.3382767 
H     0.5049588    2.3754543   -1.2357299 
C     4.4727439   -2.5528297   -4.0844827 
C     5.0162956   -1.6272114   -3.1828345 
C     4.1848884   -0.7119404   -2.5261671 
C     2.7949693   -0.6895701   -2.7709345 
C     2.2620513   -1.6261965   -3.6890542 
C     3.0890482   -2.5505754   -4.3326880 
H     5.1208761   -3.2735505   -4.5936257 
H     6.0924208   -1.6219192   -2.9814881 
H     4.6125807   -0.0013563   -1.8109478 
H     1.1858679   -1.6364142   -3.8953122 
H     2.6568156   -3.2731530   -5.0328451 
C    -3.2674883    4.0892572   -3.6580420 
C    -2.5988301    4.5069097   -2.4975135 
C    -1.5508639    3.7409731   -1.9783655 
C    -1.1363996    2.5532725   -2.6275796 
C    -1.8290695    2.1346956   -3.7884034 
C    -2.8865209    2.8954027   -4.2943879 
H    -4.0893138    4.6878845   -4.0646306 
H    -2.9025586    5.4271902   -1.9891386 
H    -1.0418751    4.0407972   -1.0558552 
H    -1.5398009    1.2147965   -4.3042111 
H    -3.4120244    2.5624181   -5.1953379 
N    -0.2281659    2.5084696    1.1853553 
N     2.5625822    1.9206427    0.8373545 
C     0.7424244    3.0303739    2.1562207 
C     2.1134037    3.1907880    1.4605377 
C     0.2779845    4.3929357    2.7096736 
C     3.1490062    3.8211494    2.4192184 
C     1.3042971    5.0125027    3.6693532 
C     2.6675497    5.1689307    2.9791526 
C    -1.4803992    1.9704825    1.7402272 
C     2.7520590    0.7857055    1.7610292 
C    -2.6805106    2.2437664    0.8426145 
C     3.5710075   -0.3342953    1.1379667 
C    -3.0974951    1.3607759   -0.1897437 
C     2.9957187   -1.5058222    0.5742375 
C    -3.4055401    3.4338012    1.0374872 
C     4.9740736   -0.2294649    1.1658777 
C    -4.1913111    1.7084217   -1.0081087 
C     3.8240558   -2.5237383    0.0675021 
C    -4.5099138    3.7603386    0.2412158 
C     5.7980493   -1.2497943    0.6670954 
C    -4.8969045    2.8980215   -0.7924958 
C     5.2200831   -2.4016177    0.1205141 
C    -2.9607256   -1.0380732   -1.9296548 
C    -2.8836864   -1.3431370    0.8701994 
C     0.8785245   -1.8280394    2.4104824 
C     0.8236733   -3.4002427   -0.0424900 
C    -2.1854008   -1.2666579   -3.0811469 
C    -2.5321325   -2.7091865    0.8083845 
C     1.8847735   -2.3739305    3.2404948 
C     0.4044625   -3.5361538   -1.3811586 
C    -4.2960151   -1.4963270   -1.9001457 
C    -3.6824051   -0.8782258    1.9326258 
C    -0.3182306   -1.3845343    2.9974113 
C     0.9136617   -4.5475345    0.7716270 
C    -2.7326675   -1.9184125   -4.1952490 
C    -2.9513015   -3.5899761    1.8109171 
C     1.6787146   -2.4809917    4.6225033 
C     0.0879029   -4.7955271   -1.9053001 
C    -4.8448101   -2.1402680   -3.0165065 
C    -4.0998966   -1.7683646    2.9353537 
C    -0.5200997   -1.4872658    4.3803976 
C     0.5943432   -5.8072350    0.2449304 
C    -4.0661240   -2.3508250   -4.1661640 
C    -3.7291805   -3.1196370    2.8818922 
C     0.4771051   -2.0377583    5.1970406 
C     0.1820896   -5.9343880   -1.0910672 
H     0.8762539    2.3393675    3.0235852 
H     1.9558196    3.8898477    0.6155789 
H     0.1021782    5.0651057    1.8480054 
H    -0.6946947    4.2723769    3.2205245 
H     3.3448885    3.1291370    3.2607866 
H     4.1060378    3.9456558    1.8780109 
H     0.9390116    5.9892235    4.0328239 
H     1.4151274    4.3642708    4.5608664 
H     3.4164870    5.5783705    3.6799763 
H     2.5760879    5.8976001    2.1500659 
H     0.2355049    1.7720808    0.6316781 
H     3.4487361    2.1031545    0.3535903 
H    -1.4018536    0.8853836    1.9468700 
H    -1.6698925    2.4482362    2.7156240 
H     3.2562261    1.0817764    2.7054219 
H     1.7557375    0.4146711    2.0529525 
H    -3.0909955    4.1160555    1.8354841 
H     5.4291740    0.6605413    1.6175199 
H    -4.4907898    1.0522908   -1.8292808 
H     3.3752430   -3.4200576   -0.3713452 
H    -5.0593481    4.6902207    0.4209866 
H     6.8868705   -1.1465120    0.7166415 
H    -5.7423334    3.1502430   -1.4402429 
H     5.8495531   -3.2056096   -0.2735775 
H    -1.1401233   -0.9412097   -3.0896695 
H    -1.9246372   -3.0820755   -0.0225025 
H     2.8348074   -2.7071509    2.8107319 
H     0.3070823   -2.6398162   -2.0011409 
H    -4.9029863   -1.3577086   -0.9990274 
H    -3.9793821    0.1744646    1.9789011 
H    -1.1019281   -0.9598561    2.3713785 
H     1.2153276   -4.4593664    1.8195750 
H    -2.1155170   -2.0913198   -5.0834296 
H    -2.6637247   -4.6449739    1.7573272 
H     2.4652744   -2.9083919    5.2532284 
H    -0.2437348   -4.8835806   -2.9450046 
H    -5.8827168   -2.4876048   -2.9855250 
H    -4.7214700   -1.4011099    3.7588320 
H    -1.4624865   -1.1353603    4.8121463 
H     0.6623246   -6.6933799    0.8846501 
H    -4.4973153   -2.8609133   -5.0337887 
H    -4.0514809   -3.8081458    3.6697775 
H     0.3230969   -2.1182656    6.2781508 
H    -0.0726902   -6.9201270   -1.4939996 
