121
Energy =
C    -0.4792863    0.3166789   -3.1916138 
C     0.8715038    0.4930165   -2.7996492 
C     1.7041082   -0.6235389   -2.5554602 
H     1.2432595    1.5060685   -2.6066844 
Pd   -0.0860906   -0.5079475   -1.0677669 
P     0.8080677   -2.0265588    0.6063771 
P    -2.2187287   -0.1830435   -0.0939999 
H    -0.7472744   -0.6755724   -3.5859950 
H     1.3701605   -1.5847592   -2.9689714 
C    -3.0456771    3.4361428   -4.6471464 
C    -2.0690612    3.7382141   -3.6828039 
C    -1.2298338    2.7381383   -3.1828924 
C    -1.3683262    1.4023742   -3.6296325 
C    -2.3557540    1.1117351   -4.5994984 
C    -3.1799431    2.1196145   -5.1106094 
H    -3.6974651    4.2251534   -5.0363883 
H    -1.9606658    4.7646807   -3.3165460 
H    -0.4859994    2.9894465   -2.4159588 
H    -2.4657912    0.0837807   -4.9633134 
H    -3.9340953    1.8759523   -5.8658817 
C     5.9362760   -0.5059662   -1.7932842 
C     5.2319681   -1.7176839   -1.7461675 
C     3.8541850   -1.7417851   -1.9869953 
C     3.1461543   -0.5540900   -2.2767705 
C     3.8758920    0.6580622   -2.3495908 
C     5.2530599    0.6812745   -2.1052014 
H     7.0144749   -0.4873260   -1.6048717 
H     5.7580748   -2.6488992   -1.5145874 
H     3.3097579   -2.6913621   -1.9410703 
H     3.3667655    1.5875842   -2.6226860 
H     5.7995279    1.6278287   -2.1731111 
N     2.3889635    1.5368380    0.2358522 
N     0.0110969    2.8658254   -0.2033876 
C     2.3716410    3.0045308    0.3218137 
C     0.9620056    3.4817959    0.7217436 
C     3.4488112    3.6305662    1.2331145 
C     0.8853907    5.0178990    0.7014427 
C     3.3616799    5.1664660    1.2287273 
C     1.9517336    5.6422352    1.6160995 
C     2.1385758    0.7670061    1.4606357 
C    -1.4090793    2.8883148    0.1585884 
C     3.0234124   -0.4646685    1.4696585 
C    -1.7455427    2.1482950    1.4466424 
C     2.5821290   -1.7510243    1.0730400 
C    -2.0681307    0.7607627    1.4845671 
C     4.3689701   -0.2978731    1.8537133 
C    -1.6635259    2.8486145    2.6656640 
C     3.4931860   -2.8287201    1.0898591 
C    -2.2446822    0.1237418    2.7288863 
C     5.2645742   -1.3718161    1.8716640 
C    -1.8519458    2.2101619    3.8988325 
C     4.8200965   -2.6451100    1.4920481 
C    -2.1330040    0.8399576    3.9280656 
C     0.0365517   -2.2773128    2.2796186 
C     0.7759169   -3.7488822   -0.0724956 
C    -3.6496985    0.5828723   -0.9860271 
C    -3.0293243   -1.8051228    0.2401886 
C    -1.0651369   -3.1481445    2.4328099 
C     0.9423110   -4.8744074    0.7655051 
C    -4.0446771   -0.0228236   -2.1947774 
C    -4.1344750   -1.9441171    1.1050647 
C     0.5505089   -1.6328772    3.4236336 
C     0.5830224   -3.9570016   -1.4519550 
C    -4.4281962    1.6275011   -0.4501900 
C    -2.6156403   -2.9085492   -0.5300951 
C    -1.6427530   -3.3540917    3.6926729 
C     0.9176241   -6.1683348    0.2286491 
C    -5.1967509    0.4107050   -2.8604084 
C    -4.7575377   -3.1902719    1.2481067 
C    -0.0319889   -1.8394509    4.6816846 
C     0.5587159   -5.2516631   -1.9893311 
C    -5.5750295    2.0656457   -1.1273131 
C    -3.2518414   -4.1513700   -0.3993277 
C    -1.1330063   -2.6958639    4.8219366 
C     0.7259960   -6.3611684   -1.1484401 
C    -5.9616030    1.4603606   -2.3316135 
C    -4.3133302   -4.2975004    0.5050151 
H     2.5498002    3.3596633   -0.7129794 
H     0.7901761    3.1489120    1.7739448 
H     3.3192320    3.2600236    2.2689489 
H     4.4464585    3.2936428    0.8945047 
H     1.0256421    5.3576034   -0.3426250 
H    -0.1220814    5.3518153    1.0102293 
H     4.1170653    5.5933171    1.9122380 
H     3.6051131    5.5401729    0.2147761 
H     1.8912794    6.7440012    1.5707741 
H     1.7451791    5.3577770    2.6669574 
H     3.2545339    1.2169751   -0.2052030 
H     0.3222974    1.8933825   -0.3618390 
H     2.3543916    1.3544385    2.3766740 
H     1.0644627    0.4932819    1.5195123 
H    -1.7374673    3.9386089    0.2472131 
H    -1.9629691    2.4677609   -0.6967236 
H     4.7092236    0.7003509    2.1529391 
H    -1.4548928    3.9242172    2.6398633 
H     3.1705911   -3.8236602    0.7736206 
H    -2.4655961   -0.9444068    2.7731495 
H     6.3021914   -1.2161596    2.1837504 
H    -1.7808135    2.7827001    4.8294673 
H     5.5070534   -3.4975542    1.4975799 
H    -2.2741971    0.3175538    4.8789961 
H    -1.4695552   -3.6849846    1.5727174 
H     1.0866628   -4.7405389    1.8422019 
H    -3.4562986   -0.8504219   -2.6066304 
H    -4.5132551   -1.0812928    1.6620045 
H     1.4266693   -0.9844240    3.3513022 
H     0.4291731   -3.0942434   -2.1075577 
H    -4.1532524    2.0908096    0.5024573 
H    -1.7803553   -2.7925666   -1.2279300 
H    -2.4938630   -4.0365227    3.7846977 
H     1.0476982   -7.0302143    0.8912975 
H    -5.4929009   -0.0677267   -3.7994850 
H    -5.6042168   -3.2957397    1.9345116 
H     0.3859143   -1.3307017    5.5563865 
H     0.4035259   -5.3914322   -3.0641722 
H    -6.1741246    2.8779251   -0.7026160 
H    -2.9068781   -5.0021025   -0.9958891 
H    -1.5829258   -2.8598325    5.8066089 
H     0.7039832   -7.3740880   -1.5634706 
H    -6.8605933    1.8023175   -2.8545676 
H    -4.8073388   -5.2677807    0.6209525 
