121
Energy =
C     1.9532715    0.3955115   -2.1411684 
C     0.7729643    0.9282904   -2.7165407 
C    -0.0103738    1.8875972   -2.0377306 
H     0.4218588    0.5420907   -3.6810700 
Pd    0.1130591   -0.0658376   -0.8178588 
P    -2.2045965   -0.1719710   -0.3678446 
P     1.1174381   -1.7433071    0.5330488 
H     2.4241576    0.9737818   -1.3355188 
H     0.4672031    2.4220198   -1.2050489 
C     4.5270201   -2.3648702   -4.2095565 
C     3.1762808   -2.2606792   -4.5852874 
C     2.3257375   -1.3779295   -3.9144302 
C     2.8011089   -0.5807671   -2.8426325 
C     4.1599690   -0.7010316   -2.4779000 
C     5.0141691   -1.5783766   -3.1565925 
H     5.1934417   -3.0531957   -4.7393639 
H     2.7882698   -2.8693023   -5.4088840 
H     1.2769303   -1.3124360   -4.2249587 
H     4.5462002   -0.0954126   -1.6512009 
H     6.0643060   -1.6503429   -2.8558328 
C    -3.3181194    4.0684955   -3.6682708 
C    -2.6189321    4.5445967   -2.5489609 
C    -1.5731478    3.7935620   -2.0033026 
C    -1.1908984    2.5622912   -2.5861553 
C    -1.9188511    2.0817286   -3.7002861 
C    -2.9732016    2.8286659   -4.2330125 
H    -4.1375970    4.6559084   -4.0953910 
H    -2.8963484    5.5002452   -2.0933383 
H    -1.0385139    4.1443924   -1.1141501 
H    -1.6637592    1.1194568   -4.1538258 
H    -3.5262672    2.4467109   -5.0973358 
N    -0.2007818    2.5540504    1.2240108 
N     2.5698377    1.8482048    0.8754694 
C     0.7935475    3.0250181    2.1983368 
C     2.1704365    3.1318808    1.5047767 
C     0.3881642    4.4022619    2.7625648 
C     3.2313726    3.7129653    2.4672522 
C     1.4392361    4.9711428    3.7266973 
C     2.8075561    5.0756772    3.0371105 
C    -1.4699003    2.0679540    1.7853836 
C     2.7141994    0.6989666    1.7906919 
C    -2.6621261    2.3340368    0.8762387 
C     3.5324532   -0.4236939    1.1727119 
C    -3.0857902    1.4343586   -0.1391693 
C     2.9576128   -1.5746739    0.5684327 
C    -3.3775596    3.5332699    1.0490641 
C     4.9356765   -0.3358334    1.2374064 
C    -4.1760882    1.7775899   -0.9641146 
C     3.7874875   -2.5938340    0.0655539 
C    -4.4797194    3.8541794    0.2477986 
C     5.7605692   -1.3545621    0.7372030 
C    -4.8728119    2.9760494   -0.7697854 
C     5.1830359   -2.4893822    0.1555235 
C    -2.9555577   -1.0164723   -1.8291367 
C    -2.8671924   -1.2521191    0.9724355 
C     0.8092044   -1.9591578    2.3440522 
C     0.7711706   -3.4017605   -0.1882968 
C    -2.1490832   -1.3799341   -2.9237983 
C    -2.5417928   -2.6238448    0.9073992 
C     1.6999565   -2.7482188    3.1063205 
C     0.4063131   -4.5202587    0.5878440 
C    -4.3146723   -1.3997041   -1.8195698 
C    -3.6346008   -0.7695084    2.0494529 
C    -0.2690393   -1.3327623    2.9879933 
C     0.8037938   -3.5185782   -1.5934992 
C    -2.6925858   -2.0817656   -4.0090305 
C    -2.9581541   -3.4948371    1.9195232 
C     1.4881946   -2.9191708    4.4806116 
C     0.0834383   -5.7332995   -0.0387530 
C    -4.8586107   -2.0910948   -2.9092730 
C    -4.0476970   -1.6492792    3.0627925 
C    -0.4764680   -1.4985566    4.3638661 
C     0.4945797   -4.7348686   -2.2132973 
C    -4.0507083   -2.4292867   -4.0073691 
C    -3.7047200   -3.0077685    3.0048901 
C     0.3996930   -2.2962644    5.1125221 
C     0.1278749   -5.8450131   -1.4364068 
H     0.8971879    2.3213498    3.0597873 
H     2.0428229    3.8410835    0.6633313 
H     0.2416570    5.0871015    1.9054663 
H    -0.5889285    4.3205150    3.2725851 
H     3.3987416    3.0077195    3.3040246 
H     4.1924684    3.8008171    1.9259828 
H     1.1147647    5.9595015    4.0973356 
H     1.5229407    4.3123407    4.6134161 
H     3.5733552    5.4479137    3.7404313 
H     2.7464170    5.8136491    2.2135391 
H     0.2287560    1.7999038    0.6660826 
H     3.4646016    1.9994341    0.3968127 
H    -1.4241903    0.9893912    2.0340787 
H    -1.6524478    2.5860963    2.7409031 
H     3.1994055    0.9760263    2.7503442 
H     1.7049454    0.3409509    2.0523842 
H    -3.0568918    4.2271084    1.8345515 
H     5.3890426    0.5401222    1.7173411 
H    -4.4786574    1.1131346   -1.7769889 
H     3.3409053   -3.4785764   -0.3981525 
H    -5.0214860    4.7916665    0.4102551 
H     6.8489180   -1.2645399    0.8147138 
H    -5.7150699    3.2230471   -1.4235535 
H     5.8129032   -3.2944410   -0.2359794 
H    -1.0824405   -1.1285376   -2.9051796 
H    -1.9619761   -3.0093698    0.0618473 
H     2.5620709   -3.2244340    2.6274989 
H     0.3543920   -4.4433098    1.6777060 
H    -4.9433775   -1.1688725   -0.9529294 
H    -3.9152141    0.2876987    2.0964919 
H    -0.9511984   -0.7106468    2.4090209 
H     1.0837623   -2.6532424   -2.2012765 
H    -2.0519839   -2.3635590   -4.8514070 
H    -2.6950485   -4.5560796    1.8610524 
H     2.1815657   -3.5364094    5.0613885 
H    -0.2046098   -6.5955486    0.5718522 
H    -5.9152385   -2.3778861   -2.8963130 
H    -4.6459627   -1.2688157    3.8974428 
H    -1.3266392   -1.0035064    4.8436488 
H     0.5349593   -4.8120182   -3.3048470 
H    -4.4786161   -2.9769345   -4.8534724 
H    -4.0254880   -3.6885873    3.8000094 
H     0.2415269   -2.4286544    6.1879216 
H    -0.1251693   -6.7945902   -1.9191777 
