121
Energy =
C     1.9549899    0.6483871   -1.8101981 
C     0.8415495    0.7315729   -2.6750041 
C    -0.2486672    1.5883399   -2.3658770 
H     0.7948180    0.0936462   -3.5671336 
Pd    0.0196751    0.0021152   -0.7464602 
P    -2.1445079    0.3142933    0.1872575 
P     0.9162508   -1.9870136    0.1999240 
H     2.0552676    1.4566528   -1.0718746 
H    -0.0551461    2.4524033   -1.7111054 
C     5.7070110   -1.2206599   -2.7283783 
C     5.6277108   -0.1824469   -1.7884490 
C     4.3876115    0.3789717   -1.4674371 
C     3.2032810   -0.0692852   -2.0966761 
C     3.2971277   -1.1249890   -3.0339023 
C     4.5354128   -1.6958889   -3.3415456 
H     6.6766813   -1.6624996   -2.9800422 
H     6.5341125    0.1861940   -1.2979413 
H     4.3296634    1.1854606   -0.7287635 
H     2.3978842   -1.5062780   -3.5249418 
H     4.5892305   -2.5121378   -4.0693566 
C    -3.5929760    1.9839305   -5.0398010 
C    -3.0872964    3.0975102   -4.3534993 
C    -2.0176074    2.9507226   -3.4625577 
C    -1.4199472    1.6891790   -3.2547646 
C    -1.9343903    0.5765760   -3.9598684 
C    -3.0139296    0.7198477   -4.8367695 
H    -4.4354382    2.0975160   -5.7299127 
H    -3.5340577    4.0853796   -4.5049507 
H    -1.6306653    3.8203479   -2.9223682 
H    -1.4868620   -0.4123736   -3.8102961 
H    -3.4058694   -0.1546785   -5.3667171 
N    -0.1657529    2.9748124    0.5374877 
N     1.3221117    1.0135871    1.9007750 
C     0.8844998    3.3875917    1.4840786 
C     1.9840075    2.3048157    1.6134541 
C     1.4945218    4.7413834    1.0783289 
C     3.0356616    2.7700545    2.6428569 
C     2.5644217    5.2021099    2.0785427 
C     3.6467812    4.1261126    2.2505478 
C    -1.4874858    3.5148614    0.8781743 
C     2.0764359   -0.0616895    2.5626596 
C    -2.6316355    3.1473927   -0.0609861 
C     3.0627318   -0.8594321    1.7165086 
C    -3.0408909    1.8223530   -0.4006597 
C     2.6832446   -1.7895130    0.7049135 
C    -3.4214905    4.2140702   -0.5353824 
C     4.4269973   -0.7713892    2.0544968 
C    -4.1798325    1.6303411   -1.2097377 
C     3.6741760   -2.5627084    0.0675025 
C    -4.5676397    4.0131038   -1.3149241 
C     5.4040672   -1.5556617    1.4278554 
C    -4.9441780    2.7122514   -1.6622734 
C     5.0236250   -2.4541751    0.4266687 
C    -3.2506253   -1.1021060   -0.2188887 
C    -2.3176518    0.4710285    2.0195500 
C     0.1591008   -2.9431096    1.5922278 
C     0.8792105   -3.3024248   -1.0992781 
C    -2.9802462   -1.8420076   -1.3875230 
C    -1.4620694   -0.2628943    2.8610800 
C    -1.1814905   -3.3584714    1.4397120 
C     0.4199173   -2.9920177   -2.3922868 
C    -4.3020180   -1.5055794    0.6280547 
C    -3.3393291    1.2549356    2.5992548 
C     0.8545957   -3.2782728    2.7707036 
C     1.2255658   -4.6370660   -0.7961376 
C    -3.7471121   -2.9690153   -1.7090759 
C    -1.6068080   -0.2112252    4.2537257 
C    -1.8247436   -4.0615467    2.4637244 
C     0.3285032   -3.9855889   -3.3775862 
C    -5.0652679   -2.6369943    0.3057655 
C    -3.4816776    1.3077046    3.9936070 
C     0.2024139   -3.9807271    3.7970806 
C     1.1413514   -5.6279913   -1.7824301 
C    -4.7895120   -3.3705609   -0.8591438 
C    -2.6158240    0.5794047    4.8238155 
C    -1.1383537   -4.3639811    3.6511727 
C     0.6948371   -5.3047033   -3.0744558 
H     0.4510532    3.4999188    2.5100303 
H     2.4991019    2.2102321    0.6355703 
H     1.9315961    4.6305087    0.0677053 
H     0.6919159    5.4958496    0.9947640 
H     2.5589697    2.8432578    3.6406478 
H     3.8380706    2.0167055    2.7242430 
H     3.0144703    6.1534262    1.7441269 
H     2.0892211    5.4038613    3.0584414 
H     4.3881301    4.4358442    3.0082642 
H     4.2002994    4.0088756    1.2977331 
H    -0.2011340    1.9437034    0.5507977 
H     0.5032385    1.1976092    2.4915304 
H    -1.7837847    3.2331730    1.9169112 
H    -1.4079594    4.6147992    0.8790178 
H     2.6278770    0.3003127    3.4538077 
H     1.3134474   -0.7578131    2.9495091 
H    -3.1268151    5.2365524   -0.2729104 
H     4.7243204   -0.0825835    2.8536382 
H    -4.4795758    0.6154886   -1.4856251 
H     3.3930584   -3.2593035   -0.7258971 
H    -5.1532776    4.8727135   -1.6564307 
H     6.4541299   -1.4618477    1.7228977 
H    -5.8236446    2.5312451   -2.2877640 
H     5.7697937   -3.0687503   -0.0859830 
H    -2.1464268   -1.5410885   -2.0274239 
H    -0.6888495   -0.8915608    2.4185937 
H    -1.7229923   -3.1295815    0.5176764 
H     0.1229444   -1.9603675   -2.6129445 
H    -4.5145067   -0.9497537    1.5464132 
H    -4.0239529    1.8243369    1.9621287 
H     1.9091016   -3.0060722    2.8854888 
H     1.5540817   -4.9014030    0.2148017 
H    -3.5189308   -3.5415824   -2.6138874 
H    -0.9333105   -0.7974151    4.8875688 
H    -2.8670353   -4.3695826    2.3321820 
H    -0.0323501   -3.7291480   -4.3794150 
H    -5.8760019   -2.9500177    0.9720020 
H    -4.2753323    1.9218764    4.4317020 
H     0.7515233   -4.2358181    4.7096325 
H     1.4166519   -6.6595319   -1.5394546 
H    -5.3838012   -4.2578140   -1.1010551 
H    -2.7312164    0.6253969    5.9117050 
H    -1.6441727   -4.9083166    4.4553342 
H     0.6240127   -6.0841926   -3.8402201 
