121
Energy =
C     2.1149162    0.5384822   -1.9030281 
C     0.9543839    0.5676526   -2.7126972 
C    -0.0255626    1.5683967   -2.4434843 
H     0.8167976   -0.1543026   -3.5255913 
Pd    0.1872744    0.1191976   -0.7129797 
P    -2.0172081    0.3882012    0.1828201 
P     0.9236296   -2.0081824    0.1662543 
H     2.2991629    1.4358853   -1.2957692 
H     0.3574742    2.5005044   -2.0047168 
C     5.7350642   -1.6556194   -2.6164748 
C     5.7207183   -0.5385600   -1.7675682 
C     4.5213779    0.1351436   -1.5180743 
C     3.3129324   -0.2791170   -2.1250706 
C     3.3436723   -1.4067213   -2.9784137 
C     4.5404024   -2.0895751   -3.2149838 
H     6.6723008   -2.1869229   -2.8117805 
H     6.6453442   -0.1963249   -1.2922523 
H     4.5123801    1.0016897   -0.8485564 
H     2.4292813   -1.7545735   -3.4642329 
H     4.5430473   -2.9612003   -3.8776446 
C    -3.6740533    2.0512709   -4.6738349 
C    -3.0650176    0.7875984   -4.5987477 
C    -1.8787882    0.6210634   -3.8785939 
C    -1.2745463    1.7107107   -3.2096010 
C    -1.8946108    2.9766880   -3.3049405 
C    -3.0804120    3.1456826   -4.0285104 
H    -4.6051079    2.1806751   -5.2350094 
H    -3.5190550   -0.0711910   -5.1041316 
H    -1.4143684   -0.3693646   -3.8321439 
H    -1.4338952    3.8379115   -2.8106273 
H    -3.5446732    4.1352089   -4.0841486 
N    -0.7273960    3.0970003    1.5585549 
N     1.1664266    1.1008353    1.3948335 
C     0.6569120    3.4511588    1.9488802 
C     1.6534526    2.4958669    1.2372857 
C     1.0657521    4.9241819    1.7411623 
C     3.0939156    2.7577772    1.7014405 
C     2.5140056    5.1738686    2.1945589 
C     3.4851556    4.2265982    1.4712500 
C    -1.1700486    3.5944623    0.2546574 
C     1.8637395    0.1645138    2.2995819 
C    -2.5715892    3.1839656   -0.1730586 
C     2.9420784   -0.7208851    1.6824267 
C    -3.0060323    1.8430334   -0.3855375 
C     2.6594828   -1.7605820    0.7498071 
C    -3.4699607    4.2253679   -0.4746117 
C     4.2654560   -0.5824550    2.1407729 
C    -4.2718394    1.6108559   -0.9580171 
C     3.7020865   -2.5883068    0.2931231 
C    -4.7405636    3.9833950   -1.0136048 
C     5.2949360   -1.4238494    1.6975970 
C    -5.1329319    2.6682854   -1.2802503 
C     5.0115060   -2.4268056    0.7645993 
C    -3.0502648   -1.0830707   -0.2447131 
C    -2.2889985    0.4942003    2.0162893 
C     0.1567700   -2.9585520    1.5582546 
C     0.9385388   -3.3433493   -1.1089166 
C    -4.0809158   -1.5509120    0.5961523 
C    -1.5633043   -0.3610524    2.8634421 
C    -1.1349241   -3.4929327    1.3544225 
C     1.3291041   -4.6616017   -0.7866179 
C    -2.7465645   -1.7960262   -1.4201276 
C    -3.2530867    1.3552037    2.5842638 
C     0.7906857   -3.1464712    2.8033895 
C     0.4527975   -3.0719137   -2.4004373 
C    -4.7837135   -2.7178804    0.2628661 
C    -1.7617454   -0.3401650    4.2509860 
C    -1.7899867   -4.1704842    2.3883513 
C     1.2714114   -5.6706891   -1.7564023 
C    -3.4505427   -2.9598532   -1.7536342 
C    -3.4527049    1.3733985    3.9719780 
C     0.1263024   -3.8253387    3.8372782 
C     0.3861632   -4.0838426   -3.3687914 
C    -4.4692191   -3.4260440   -0.9077411 
C    -2.7031388    0.5338981    4.8115948 
C    -1.1667950   -4.3289770    3.6368369 
C     0.8033431   -5.3839097   -3.0493029 
H     0.7205095    3.2229335    3.0312181 
H     1.6239326    2.7411392    0.1531318 
H     0.9826898    5.1811261    0.6679871 
H     0.3623678    5.5826345    2.2838021 
H     3.1881852    2.5310554    2.7797544 
H     3.7831672    2.0777732    1.1708778 
H     2.7913202    6.2267176    2.0104713 
H     2.5922297    5.0126761    3.2876638 
H     4.5202114    4.3955933    1.8164392 
H     3.4738183    4.4449431    0.3851615 
H    -1.3869254    3.3713714    2.2913955 
H     0.1974646    1.2151231    1.7279437 
H    -1.1244692    4.7002144    0.1793683 
H    -0.4573466    3.2020354   -0.4899904 
H     2.3015393    0.6817539    3.1739296 
H     1.0781031   -0.4896195    2.7110746 
H    -3.1489661    5.2585669   -0.2982283 
H     4.4877281    0.1980011    2.8775204 
H    -4.5954494    0.5838538   -1.1481638 
H     3.4963041   -3.3642128   -0.4487617 
H    -5.4089989    4.8210418   -1.2373149 
H     6.3128557   -1.2902539    2.0778856 
H    -6.1087026    2.4557974   -1.7283655 
H     5.8047904   -3.0821998    0.3922504 
H    -4.3243499   -1.0153768    1.5188479 
H    -0.8518380   -1.0677403    2.4354311 
H    -1.6286143   -3.3779162    0.3852504 
H     1.6652269   -4.9010470    0.2279380 
H    -1.9299974   -1.4421255   -2.0529903 
H    -3.8514245    2.0126527    1.9468563 
H     1.8080250   -2.7758565    2.9658435 
H     0.1177200   -2.0556107   -2.6312060 
H    -5.5764104   -3.0792814    0.9263839 
H    -1.1812279   -1.0179613    4.8853313 
H    -2.7938266   -4.5718498    2.2159826 
H     1.5821943   -6.6885522   -1.4988950 
H    -3.1895699   -3.5114411   -2.6626647 
H    -4.2046824    2.0460313    4.3983923 
H     0.6291275   -3.9670279    4.7998540 
H     0.0044832   -3.8571597   -4.3700887 
H    -5.0141627   -4.3424470   -1.1572582 
H    -2.8626175    0.5544227    5.8946517 
H    -1.6834619   -4.8542496    4.4467324 
H     0.7524311   -6.1777545   -3.8017822 
