121
Energy =
C     1.8552247    0.6248865   -1.7811227 
C     0.7071154    0.7055205   -2.6082960 
C    -0.3589306    1.5756061   -2.2741986 
H     0.6139202    0.0500256   -3.4832970 
Pd    0.0037820   -0.0061454   -0.6189076 
P    -2.1374722    0.1956866    0.3903322 
P     0.9697335   -1.9658771    0.2775041 
H     1.9996637    1.4694553   -1.0948889 
H    -0.1406388    2.4198574   -1.6084210 
C     5.5599677   -1.3648586   -2.6578381 
C     5.5048913   -0.3139626   -1.7304753 
C     4.2814375    0.2944772   -1.4333697 
C     3.0888639   -0.1181477   -2.0727243 
C     3.1605269   -1.1788129   -3.0054677 
C     4.3815574   -1.7985115   -3.2881451 
H     6.5157470   -1.8464883   -2.8887321 
H     6.4157259    0.0266161   -1.2284095 
H     4.2449210    1.1051843   -0.6987041 
H     2.2592089   -1.5233173   -3.5183346 
H     4.4161457   -2.6194738   -4.0117959 
C    -3.7525022    2.1288957   -4.8530450 
C    -3.2152699    3.2044154   -4.1313934 
C    -2.1325566    3.0020995   -3.2676165 
C    -1.5499606    1.7244753   -3.1259216 
C    -2.0965642    0.6504233   -3.8659261 
C    -3.1906776    0.8481589   -4.7133231 
H    -4.6055174    2.2843337   -5.5216326 
H    -3.6486108    4.2047531   -4.2317483 
H    -1.7270207    3.8414305   -2.6932190 
H    -1.6638479   -0.3511622   -3.7694836 
H    -3.6076175    0.0027441   -5.2706193 
N    -0.1156837    2.4343922    1.2359873 
N     2.2766199    1.4690987    2.7389249 
C     1.1080660    3.2577636    1.3636981 
C     2.3629617    2.3748320    1.5878798 
C     1.3001439    4.1661923    0.1356364 
C     3.6231238    3.2588237    1.6957417 
C     2.5435907    5.0563295    0.2731845 
C     3.7970804    4.1961266    0.4909926 
C    -1.3676390    3.2038514    1.4239227 
C     1.8898126    0.0926166    2.4795735 
C    -2.4758188    3.0289172    0.3873244 
C     2.9921198   -0.7361112    1.8302845 
C    -2.9563717    1.7771940   -0.0914361 
C     2.7057467   -1.7346133    0.8588885 
C    -3.1738476    4.1898159    0.0012104 
C     4.3225457   -0.5543188    2.2474105 
C    -4.0914682    1.7324342   -0.9247669 
C     3.7576358   -2.5127754    0.3336305 
C    -4.3177626    4.1381151   -0.8073031 
C     5.3570547   -1.3476086    1.7370405 
C    -4.7787620    2.9023615   -1.2729697 
C     5.0726804   -2.3275791    0.7759507 
C    -2.3914153    0.2575853    2.2260880 
C    -3.2855124   -1.1404687   -0.1554757 
C     0.1566278   -2.8806395    1.6595176 
C     0.9758900   -3.3010320   -0.9967364 
C    -3.5135906    0.9335714    2.7596480 
C    -4.3965801   -1.5623384    0.6017360 
C    -1.1646536   -3.3325796    1.4549659 
C     0.4458480   -3.0504131   -2.2752514 
C    -1.5011126   -0.3772850    3.1088473 
C    -2.9853584   -1.8017946   -1.3630642 
C     0.7878637   -3.1231692    2.8952920 
C     1.3996327   -4.6080604   -0.6720040 
C    -3.7268860    0.9681147    4.1441332 
C    -5.1901019   -2.6266421    0.1500106 
C    -1.8570735   -3.9778202    2.4849717 
C     0.3678333   -4.0744974   -3.2298859 
C    -1.7127591   -0.3369326    4.4944796 
C    -3.7815721   -2.8613454   -1.8151616 
C     0.0876713   -3.7721986    3.9250283 
C     1.3307158   -5.6281469   -1.6291863 
C    -2.8253561    0.3369452    5.0162846 
C    -4.8861969   -3.2772245   -1.0561946 
C    -1.2366342   -4.1885113    3.7273015 
C     0.8181344   -5.3631778   -2.9098635 
H     1.0263139    3.9200186    2.2613608 
H     2.4741082    1.7215321    0.7032098 
H     1.4035550    3.5269500   -0.7620839 
H     0.3962946    4.7817921   -0.0238977 
H     3.5545982    3.8529168    2.6282051 
H     4.4962367    2.5933381    1.8107658 
H     2.6553949    5.6899794   -0.6242150 
H     2.4115959    5.7425493    1.1323291 
H     4.6881894    4.8332096    0.6307861 
H     3.9835196    3.5918174   -0.4196359 
H    -0.0779391    1.7174314    1.9659611 
H     1.7944648    1.8778265    3.5410992 
H    -1.8008642    2.9625917    2.4148028 
H    -1.1248746    4.2796895    1.4612678 
H     1.6198638   -0.3699373    3.4466921 
H     0.9833863    0.0059205    1.8325332 
H    -2.8193738    5.1610350    0.3669551 
H     4.5226893    0.2264898    2.9887000 
H    -4.4472675    0.7689189   -1.3012334 
H     3.5564969   -3.2516126   -0.4464209 
H    -4.8392062    5.0627706   -1.0751666 
H     6.3845884   -1.1974199    2.0847359 
H    -5.6605460    2.8415718   -1.9179476 
H     5.8752538   -2.9382756    0.3506793 
H    -4.2157882    1.4443476    2.0922800 
H    -4.6351114   -1.0756551    1.5519810 
H    -1.6524175   -3.1764462    0.4883996 
H     0.0844522   -2.0428944   -2.5086688 
H    -0.6458094   -0.9221076    2.7133915 
H    -2.1021315   -1.4921481   -1.9292807 
H     1.8262679   -2.8150631    3.0537151 
H     1.7712785   -4.8299938    0.3341975 
H    -4.6000694    1.4951721    4.5427214 
H    -6.0475829   -2.9528102    0.7479326 
H    -2.8854664   -4.3127021    2.3156682 
H    -0.0477489   -3.8657451   -4.2215064 
H    -1.0069398   -0.8442917    5.1602916 
H    -3.5294817   -3.3709892   -2.7508574 
H     0.5851044   -3.9574647    4.8829892 
H     1.6675008   -6.6375278   -1.3711200 
H    -2.9931310    0.3706532    6.0978163 
H    -5.5056605   -4.1122525   -1.3995959 
H    -1.7811730   -4.6875406    4.5355128 
H     0.7589413   -6.1657300   -3.6524162 
