121
Energy =
C     0.2253195   -1.9975956   -2.4406485 
C     0.6569838   -0.8014138   -3.0825463 
C     1.8182661   -0.1190848   -2.6637157 
H     0.0464365   -0.3732795   -3.8866560 
Pd    0.1415653   -0.2099860   -1.0217949 
P     0.3901315    2.0523461   -0.3316205 
P    -1.5135407   -1.0712717    0.4750892 
H     1.0073074   -2.5806053   -1.9341127 
H     2.5219038   -0.6843529   -2.0348647 
C    -3.0838335   -4.3427635   -3.8819093 
C    -3.0122937   -2.9730416   -4.1847270 
C    -1.9625031   -2.1948966   -3.6913285 
C    -0.9416943   -2.7717588   -2.8989892 
C    -1.0310242   -4.1503337   -2.5996675 
C    -2.0917813   -4.9264646   -3.0813350 
H    -3.9101442   -4.9492673   -4.2666819 
H    -3.7882447   -2.5060744   -4.7990718 
H    -1.9440075   -1.1241690   -3.9162103 
H    -0.2473384   -4.6242793   -2.0012770 
H    -2.1353121   -5.9937743   -2.8408605 
C     3.6226388    3.3117093   -4.5221110 
C     4.3604273    2.4847140   -3.6623884 
C     3.7512452    1.3793251   -3.0605074 
C     2.3934544    1.0697982   -3.3072460 
C     1.6694462    1.9037829   -4.1913713 
C     2.2753517    3.0141096   -4.7852513 
H     4.0951575    4.1816382   -4.9896494 
H     5.4125460    2.7037259   -3.4556016 
H     4.3327765    0.7367322   -2.3915097 
H     0.6234077    1.6878798   -4.4200528 
H     1.6939209    3.6501487   -5.4605988 
N     2.9864656    0.5777745    2.0662861 
N     0.5170992   -0.7439519    2.3306610 
C     2.9892999   -0.7116091    2.7770621 
C     1.7495465   -1.5546621    2.3754062 
C     4.2726479   -1.5567361    2.6172690 
C     1.6743794   -2.7949470    3.2813362 
C     4.2042675   -2.8475439    3.4512955 
C     2.9380889   -3.6554987    3.1219325 
C     3.1312273    0.5464601    0.6086852 
C    -0.3338864   -0.7133136    3.5083412 
C     3.2322586    1.9553941    0.0594936 
C    -1.6837895   -0.1014063    3.1998651 
C     2.1278820    2.7064064   -0.4259926 
C    -2.3088977   -0.1990015    1.9273882 
C     4.5116365    2.5461087    0.0484341 
C    -2.3851027    0.4900978    4.2659058 
C     2.3638235    3.9823501   -0.9790163 
C    -3.6274342    0.2940055    1.7913540 
C     4.7254308    3.8328824   -0.4559671 
C    -3.6922003    0.9647930    4.1170875 
C     3.6457280    4.5437506   -0.9938840 
C    -4.3155608    0.8650487    2.8683860 
C    -0.6193175    3.0981949   -1.4748113 
C    -0.2013978    2.6670469    1.3066298 
C    -2.9853175   -1.2428932   -0.6477958 
C    -1.2806674   -2.7856008    1.1096343 
C    -1.1914641    2.5118298   -2.6190468 
C    -1.5798127    2.9233193    1.4765948 
C    -3.7743055   -2.4043369   -0.7380667 
C    -2.1474797   -3.3068999    2.0938717 
C    -0.8828589    4.4596540   -1.2025899 
C     0.6813339    2.9181068    2.3746939 
C    -3.3400167   -0.1154928   -1.4211846 
C    -0.2552898   -3.6034336    0.6040318 
C    -1.9905180    3.2656432   -3.4904206 
C    -2.0547935    3.4567030    2.6793418 
C    -4.9091940   -2.4233411   -1.5630777 
C    -1.9887439   -4.6242418    2.5493098 
C    -1.6735595    5.2148827   -2.0781366 
C     0.1936561    3.4260495    3.5880591 
C    -4.4802482   -0.1319445   -2.2339693 
C    -0.1058096   -4.9236275    1.0493333 
C    -2.2265841    4.6215936   -3.2246511 
C    -1.1704449    3.7077909    3.7396299 
C    -5.2727757   -1.2884802   -2.3015781 
C    -0.9733997   -5.4384145    2.0239904 
H     2.8778182   -0.4506927    3.8480378 
H     1.9196375   -1.9181222    1.3393773 
H     4.4044767   -1.8209093    1.5497701 
H     5.1513204   -0.9508243    2.9077949 
H     1.5892029   -2.4756959    4.3378091 
H     0.7747137   -3.3857832    3.0461178 
H     5.1098878   -3.4573081    3.2840407 
H     4.1951989   -2.5839078    4.5269718 
H     2.8688757   -4.5453492    3.7721195 
H     2.9938997   -4.0288201    2.0801123 
H     3.6944818    1.1990616    2.4694361 
H     0.8005977    0.2192093    2.1047156 
H     4.0194654   -0.0261400    0.2600144 
H     2.2404329    0.0374186    0.1836345 
H    -0.5170581   -1.7530231    3.8351634 
H     0.1166361   -0.1819705    4.3742266 
H     5.3613260    1.9635658    0.4251863 
H    -1.8868702    0.5683411    5.2387864 
H     1.5394172    4.5470903   -1.4198400 
H    -4.1419420    0.2178445    0.8319731 
H     5.7314299    4.2647100   -0.4555695 
H    -4.2150616    1.4127595    4.9683936 
H     3.7957831    5.5348709   -1.4335228 
H    -5.3384272    1.2275983    2.7236298 
H    -1.0209783    1.4464375   -2.8088294 
H    -2.2822935    2.7297490    0.6599855 
H    -3.5060614   -3.3000221   -0.1710431 
H    -2.9489570   -2.6829704    2.5037780 
H    -0.4861232    4.9251781   -0.2944670 
H     1.7468549    2.7081888    2.2630945 
H    -2.7300224    0.7931475   -1.3643657 
H     0.4412305   -3.1917991   -0.1279221 
H    -2.4321166    2.7897200   -4.3724113 
H    -3.1224505    3.6668956    2.7903794 
H    -5.5096374   -3.3363943   -1.6300904 
H    -2.6659095   -5.0160529    3.3155094 
H    -1.8673389    6.2698862   -1.8583839 
H     0.8911491    3.6205572    4.4097208 
H    -4.7478003    0.7591025   -2.8123049 
H     0.7003679   -5.5456019    0.6459400 
H    -2.8506754    5.2142572   -3.9015177 
H    -1.5463757    4.1218652    4.6808906 
H    -6.1639989   -1.3089594   -2.9374915 
H    -0.8545757   -6.4671153    2.3792443 
