121
Energy =
C     2.0382146    0.7885258   -1.6577931 
C     0.9599894    0.9973742   -2.5448943 
C    -0.1234187    1.8406467   -2.1774934 
H     0.9320832    0.4657088   -3.5049167 
Pd    0.0426485    0.0812448   -0.7425509 
P    -2.1452602    0.3523275    0.1410464 
P     0.8537600   -2.0230228    0.0152508 
H     2.1276225    1.5036753   -0.8277795 
H     0.0649550    2.6225276   -1.4250151 
C     5.7760751   -1.0690309   -2.6521863 
C     4.6169062   -1.4406045   -3.3542084 
C     3.3819404   -0.8738698   -3.0263057 
C     3.2787107    0.0728425   -1.9798785 
C     4.4492745    0.4152367   -1.2643382 
C     5.6867521   -0.1407751   -1.6043182 
H     6.7436873   -1.5064802   -2.9190198 
H     4.6782592   -2.1718457   -4.1668262 
H     2.4923695   -1.1727961   -3.5869673 
H     4.3833162    1.1360405   -0.4423759 
H     6.5829614    0.1454771   -1.0449440 
C    -3.3435291    2.6180083   -4.9199406 
C    -2.8309941    3.6396490   -4.1072600 
C    -1.8038810    3.3675191   -3.1957439 
C    -1.2554286    2.0712166   -3.0936533 
C    -1.7761218    1.0526950   -3.9247484 
C    -2.8141118    1.3200760   -4.8226151 
H    -4.1529593    2.8293504   -5.6263608 
H    -3.2396426    4.6529607   -4.1757379 
H    -1.4124861    4.1650274   -2.5565444 
H    -1.3671820    0.0383141   -3.8571222 
H    -3.2121744    0.5164155   -5.4510552 
N    -0.1100449    2.8938470    0.8626509 
N     1.2788005    0.7575395    2.0546379 
C     0.9128802    3.1729666    1.8849249 
C     1.9814783    2.0531224    1.9322324 
C     1.5688142    4.5459176    1.6514626 
C     3.0060247    2.3747762    3.0407758 
C     2.6121601    4.8655923    2.7316020 
C     3.6624464    3.7484546    2.8203197 
C    -1.4302024    3.4324863    1.2122132 
C     1.9840175   -0.4051997    2.6145427 
C    -2.5438431    3.2087131    0.1942766 
C     2.9765244   -1.1321491    1.7136691 
C    -2.9757726    1.9434129   -0.3067726 
C     2.6070275   -1.9324601    0.5932233 
C    -3.2817115    4.3465735   -0.1898347 
C     4.3307701   -1.1218883    2.0998817 
C    -4.0835561    1.8789484   -1.1770372 
C     3.5982289   -2.6593709   -0.0962144 
C    -4.3983959    4.2703416   -1.0319596 
C     5.3075781   -1.8600421    1.4191828 
C    -4.7965235    3.0287222   -1.5365682 
C     4.9374065   -2.6309326    0.3131980 
C    -3.2740312   -0.9750947   -0.4584631 
C    -2.3833175    0.3132139    1.9723276 
C     0.0265363   -3.1008507    1.2722974 
C     0.8294578   -3.1897975   -1.4195838 
C    -2.9656329   -1.6096589   -1.6782583 
C    -1.5705846   -0.5223564    2.7595730 
C    -1.3212420   -3.4511689    1.0409530 
C     1.1187024   -4.5611183   -1.2497998 
C    -4.3837895   -1.4159598    0.2895595 
C    -3.4134348    1.0505847    2.5965584 
C     0.6784777   -3.5907973    2.4210816 
C     0.4389209   -2.7253826   -2.6889177 
C    -3.7521665   -2.6691782   -2.1476647 
C    -1.7660845   -0.6170815    4.1438037 
C    -2.0135769   -4.2452211    1.9611871 
C     1.0448013   -5.4368290   -2.3404333 
C    -5.1671540   -2.4793595   -0.1810251 
C    -3.6066706    0.9567251    3.9825452 
C    -0.0227787   -4.3841120    3.3436705 
C     0.3580444   -3.6034772   -3.7791644 
C    -4.8533086   -3.1081148   -1.3964311 
C    -2.7835419    0.1271056    4.7595487 
C    -1.3696873   -4.7042237    3.1219268 
C     0.6661306   -4.9604821   -3.6064668 
H     0.4444235    3.1847341    2.9015514 
H     2.5292587    2.0507688    0.9675843 
H     2.0394885    4.5340424    0.6499789 
H     0.7878112    5.3267287    1.6245759 
H     2.4955973    2.3518773    4.0242113 
H     3.7871259    1.5954866    3.0653806 
H     3.0958976    5.8352120    2.5190715 
H     2.1066060    4.9718888    3.7112845 
H     4.3830876    3.9536288    3.6317008 
H     4.2471691    3.7209390    1.8793490 
H    -0.1712597    1.8684539    0.7646246 
H     0.4460614    0.8990722    2.6375891 
H    -1.7763838    3.0453012    2.2002026 
H    -1.3213122    4.5223025    1.3405407 
H     2.5156221   -0.1600110    3.5561057 
H     1.1920369   -1.1182297    2.8990796 
H    -2.9697332    5.3237209    0.1961799 
H     4.6191358   -0.5347836    2.9795084 
H    -4.3988206    0.9110175   -1.5764871 
H     3.3252508   -3.2560224   -0.9699194 
H    -4.9439712    5.1811919   -1.2988475 
H     6.3493864   -1.8301151    1.7541534 
H    -5.6523858    2.9468597   -2.2134753 
H     5.6839576   -3.2070762   -0.2417883 
H    -2.0869881   -1.2831808   -2.2411016 
H    -0.7902701   -1.1131917    2.2792741 
H    -1.8298263   -3.1003297    0.1387406 
H     1.3945903   -4.9441655   -0.2614322 
H    -4.6271658   -0.9434689    1.2461304 
H    -4.0639695    1.6989836    2.0004770 
H     1.7370404   -3.3682533    2.5921376 
H     0.1866546   -1.6655025   -2.8081587 
H    -3.4940333   -3.1610597   -3.0911020 
H    -1.1254491   -1.2801216    4.7344943 
H    -3.0605771   -4.5016776    1.7700221 
H     1.2751093   -6.4980664   -2.2002191 
H    -6.0240396   -2.8218488    0.4085353 
H    -4.4060345    1.5361797    4.4561091 
H     0.4927155   -4.7595848    4.2339762 
H     0.0507432   -3.2276367   -4.7609849 
H    -5.4638465   -3.9436382   -1.7543451 
H    -2.9384949    0.0588350    5.8413377 
H    -1.9136607   -5.3201211    3.8455239 
H     0.6029394   -5.6503099   -4.4545048 
