121
Energy =
C    -0.5747058    2.4410613   -1.7476575 
C     0.4597623    1.6410645   -2.2984449 
C     0.1630426    0.4758431   -3.0355515 
H     1.5023672    1.9102416   -2.0935562 
Pd   -0.4971800    0.3626767   -0.7552831 
P    -0.6994553   -1.9913315   -0.5472066 
P    -1.6616822    1.2057610    1.1348819 
H    -1.5731050    2.3142409   -2.1877368 
H    -0.8772058    0.3576781   -3.3702772 
C     0.1045648    6.3974187   -0.2582171 
C    -1.1141423    6.0619841   -0.8661251 
C    -1.3434967    4.7482082   -1.2909261 
C    -0.3477142    3.7560849   -1.1354494 
C     0.8607173    4.0946186   -0.4814897 
C     1.0805705    5.4064739   -0.0538091 
H     0.2882445    7.4246664    0.0734429 
H    -1.8854810    6.8252176   -1.0124667 
H    -2.2919523    4.4859344   -1.7736013 
H     1.6028808    3.3163924   -0.2668414 
H     2.0158706    5.6579393    0.4563798 
C     2.9689278   -1.8821147   -5.2865506 
C     1.6095036   -2.2250425   -5.2494141 
C     0.7094894   -1.4566315   -4.5042362 
C     1.1436585   -0.3242630   -3.7781311 
C     2.5161149    0.0262368   -3.8508407 
C     3.4169105   -0.7481902   -4.5893141 
H     3.6737803   -2.4846130   -5.8683171 
H     1.2487170   -3.0989923   -5.7998532 
H    -0.3489977   -1.7347331   -4.4811730 
H     2.8805705    0.9284409   -3.3488711 
H     4.4712788   -0.4561814   -4.6343953 
N     2.5654429   -0.8353371   -0.7985486 
N     1.9985723    1.2087936    1.1431658 
C     3.6350813    0.0044418   -0.2155766 
C     3.2727978    0.4803149    1.2101538 
C     5.0494437   -0.6166463   -0.2658956 
C     4.3788543    1.4013716    1.7659830 
C     6.1193185    0.3414548    0.2790014 
C     5.7734764    0.7621987    1.7151129 
C     2.5073895   -2.2508081   -0.3956197 
C     1.2965905    1.3699174    2.4212915 
C     1.7667901   -3.0947070   -1.4232102 
C     0.4226392    2.6143974    2.4740011 
C     0.3574014   -3.0664643   -1.6178498 
C    -0.8825009    2.6893721    1.9124294 
C     2.5239160   -3.9806738   -2.2113237 
C     0.9453926    3.7576420    3.1055756 
C    -0.2376748   -3.9377875   -2.5522024 
C    -1.5814213    3.9140188    1.9474216 
C     1.9277603   -4.8447859   -3.1401663 
C     0.2292650    4.9582468    3.1709909 
C     0.5387671   -4.8301410   -3.3037366 
C    -1.0339566    5.0393095    2.5740241 
C    -2.4329019   -2.3759307   -1.0630033 
C    -0.4475844   -2.8632815    1.0560237 
C    -3.3613922    1.6803377    0.5906717 
C    -2.1272268    0.1434937    2.5754501 
C    -2.8958992   -1.8032194   -2.2686197 
C     0.0114835   -2.1535914    2.1762582 
C    -4.2983009    2.1812734    1.5222393 
C    -2.9867296   -0.9421744    2.3093278 
C    -3.3284764   -3.1403887   -0.2891792 
C    -0.6193898   -4.2614661    1.1468098 
C    -3.7804221    1.4126865   -0.7254474 
C    -1.6907265    0.3718012    3.8938420 
C    -4.2159074   -1.9940069   -2.6936042 
C     0.2557508   -2.8100188    3.3887970 
C    -5.6105755    2.4572608    1.1208788 
C    -3.3745238   -1.8077517    3.3369493 
C    -4.6555612   -3.3179431   -0.7098900 
C    -0.3858654   -4.9172064    2.3627319 
C    -5.0999173    1.6758690   -1.1216941 
C    -2.0811997   -0.5012014    4.9215250 
C    -5.1033303   -2.7478188   -1.9094564 
C     0.0447736   -4.1926375    3.4863019 
C    -6.0127558    2.2101616   -0.2025899 
C    -2.9121873   -1.5962134    4.6454997 
H     3.6469954    0.9188003   -0.8421053 
H     3.2015760   -0.4238284    1.8629563 
H     5.0719375   -1.5436291    0.3375135 
H     5.2718465   -0.9092132   -1.3095964 
H     4.3662659    2.3297236    1.1630175 
H     4.1310195    1.6964613    2.8021202 
H     7.1133362   -0.1384872    0.2393153 
H     6.1744708    1.2418685   -0.3641025 
H     6.5258910    1.4699006    2.1059730 
H     5.8022318   -0.1268894    2.3754390 
H     2.6604027   -0.8078087   -1.8172810 
H     1.3917138    0.7062686    0.4713800 
H     3.5132517   -2.6991737   -0.2791092 
H     2.0188798   -2.3297143    0.5909565 
H     0.6900349    0.4789852    2.6865072 
H     2.0502319    1.4596911    3.2200447 
H     3.6113380   -4.0013058   -2.0768004 
H     1.9460334    3.6987389    3.5486655 
H    -1.3236960   -3.9322019   -2.6852218 
H    -2.5620880    3.9978399    1.4738320 
H     2.5491902   -5.5292255   -3.7265127 
H     0.6638480    5.8301916    3.6704121 
H     0.0537058   -5.5066666   -4.0150329 
H    -1.5966071    5.9777871    2.5847780 
H    -2.2127912   -1.2028631   -2.8779065 
H     0.1917807   -1.0817637    2.0837647 
H    -4.0033753    2.3409998    2.5647817 
H    -3.3612164   -1.1006512    1.2930583 
H    -2.9993355   -3.5860112    0.6536121 
H    -0.9202264   -4.8386746    0.2657508 
H    -3.0752854    0.9583907   -1.4294490 
H    -1.0600726    1.2352187    4.1268305 
H    -4.5542018   -1.5468459   -3.6342430 
H     0.6076279   -2.2385165    4.2532024 
H    -6.3272661    2.8540275    1.8474040 
H    -4.0393316   -2.6493030    3.1158511 
H    -5.3414747   -3.9076408   -0.0927202 
H    -0.5282319   -6.0008434    2.4297059 
H    -5.4137180    1.4515469   -2.1464024 
H    -1.7379814   -0.3163363    5.9448669 
H    -6.1396124   -2.8890678   -2.2328939 
H     0.2295140   -4.7112039    4.4328462 
H    -7.0428783    2.4191848   -0.5093381 
H    -3.2100666   -2.2760126    5.4503182 
