121
Energy =
C    -0.0243142    2.6951373   -1.6963922 
C     0.3458932    1.6079551   -2.5164777 
C    -0.6381192    0.7165780   -3.0248461 
H     1.4035008    1.4185931   -2.7366018 
Pd   -0.5288862    0.5663493   -0.7514125 
P    -1.4891852   -1.5994373   -0.8127252 
P    -0.7185133    1.2223808    1.5215455 
H    -1.0942513    2.9459799   -1.6859613 
H    -1.6678812    1.0980135   -3.0507010 
C     2.4482393    5.9891437   -0.4759591 
C     1.0701548    5.9891683   -0.2136110 
C     0.2855291    4.8972089   -0.5947980 
C     0.8561178    3.7805706   -1.2509191 
C     2.2485077    3.7984391   -1.5104020 
C     3.0331819    4.8887749   -1.1246886 
H     3.0651419    6.8437838   -0.1801702 
H     0.6061400    6.8406514    0.2932866 
H    -0.7896002    4.9070067   -0.3869524 
H     2.7225675    2.9595197   -2.0299220 
H     4.1064438    4.8874375   -1.3414332 
C     0.1347051   -2.1229839   -6.1387231 
C    -1.1456603   -1.5756985   -5.9709110 
C    -1.3944742   -0.6932268   -4.9133359 
C    -0.3618161   -0.3297806   -4.0180342 
C     0.9137174   -0.9240671   -4.1692880 
C     1.1553653   -1.8059452   -5.2257183 
H     0.3347326   -2.8089116   -6.9684685 
H    -1.9501166   -1.8316309   -6.6682223 
H    -2.3922121   -0.2577480   -4.7862102 
H     1.7040350   -0.7272249   -3.4358994 
H     2.1450266   -2.2610569   -5.3324414 
N     2.2794650   -1.0928808   -0.8976456 
N     2.2615379    0.4669481    1.6713775 
C     3.5009521   -0.7146134   -0.1651727 
C     3.3274710   -0.5123329    1.3649207 
C     4.6351295   -1.7160517   -0.4666417 
C     4.6766315   -0.1582894    2.0368408 
C     5.9598422   -1.3232688    0.2030368 
C     5.7778519   -1.1807855    1.7210912 
C     1.5762886   -2.2911015   -0.4168556 
C     2.4044159    1.7924245    1.0605222 
C     0.8450820   -3.0113390   -1.5383642 
C     1.6066971    2.8454541    1.8000020 
C    -0.5185847   -2.7721118   -1.8537624 
C     0.2032951    2.7491213    2.0069786 
C     1.5625085   -3.9418915   -2.3119848 
C     2.2803777    3.9743383    2.2985018 
C    -1.1051661   -3.4327397   -2.9528452 
C    -0.4758712    3.7984686    2.6603429 
C     0.9648946   -4.6212780   -3.3787702 
C     1.6023531    5.0027022    2.9655998 
C    -0.3708754   -4.3545185   -3.7069637 
C     0.2160822    4.9191890    3.1384430 
C    -3.1936423   -1.4572664   -1.5031404 
C    -1.8774327   -2.5794598    0.7046372 
C    -2.5016150    1.7302296    1.6040017 
C    -0.5006999    0.1761378    3.0285609 
C    -4.0008749   -2.6027303   -1.6833149 
C    -2.8890924   -2.0810623    1.5512907 
C    -3.4307751    1.1349770    2.4801821 
C    -0.7695436    0.7259970    4.2996908 
C    -3.7570277   -0.1834626   -1.7091945 
C    -1.2290057   -3.7844063    1.0363924 
C    -2.9691146    2.6824013    0.6703601 
C    -0.0220003   -1.1404639    2.9398304 
C    -5.3227453   -2.4695366   -2.1249408 
C    -3.2284039   -2.7620921    2.7251073 
C    -4.7923322    1.4706091    2.4084914 
C    -0.5845343   -0.0461303    5.4556024 
C    -5.0866020   -0.0520631   -2.1357728 
C    -1.5745724   -4.4636622    2.2147872 
C    -4.3245793    3.0247082    0.6077486 
C     0.1652081   -1.9104872    4.0939162 
C    -5.8659064   -1.1952732   -2.3592150 
C    -2.5659543   -3.9520395    3.0643830 
C    -5.2446244    2.4100420    1.4725573 
C    -0.1196096   -1.3660898    5.3552765 
H     3.8121456    0.2559024   -0.5983855 
H     2.9832187   -1.4751113    1.7933981 
H     4.3427403   -2.7219663   -0.1066583 
H     4.7417128   -1.7904538   -1.5630292 
H     5.0030487    0.8411005    1.6881813 
H     4.5201523   -0.0773730    3.1291044 
H     6.7362872   -2.0737919   -0.0285161 
H     6.3142757   -0.3611075   -0.2165751 
H     6.7251227   -0.8801737    2.2030092 
H     5.5018612   -2.1639387    2.1512228 
H     1.6055121   -0.3105521   -0.8657220 
H     2.2054274    0.5679594    2.6904320 
H     2.3149432   -2.9885642    0.0101947 
H     0.8705572   -2.0527859    0.4030055 
H     3.4548362    2.1446632    0.9953117 
H     2.0298449    1.7292423    0.0205466 
H     2.6147488   -4.1266809   -2.0677617 
H     3.3622445    4.0494860    2.1453395 
H    -2.1375572   -3.2173947   -3.2365203 
H    -1.5591667    3.7369560    2.8049660 
H     1.5435581   -5.3448207   -3.9621610 
H     2.1567289    5.8693136    3.3398271 
H    -0.8444871   -4.8536663   -4.5578682 
H    -0.3306902    5.7179884    3.6501227 
H    -3.6017387   -3.5973905   -1.4586807 
H    -3.4211647   -1.1640605    1.2796557 
H    -3.0959443    0.4013191    3.2185946 
H    -1.1172660    1.7600547    4.3932724 
H    -3.1615450    0.7104000   -1.4930923 
H    -0.4674435   -4.2040617    0.3720713 
H    -2.2593120    3.1672461   -0.0060090 
H     0.2218013   -1.5535544    1.9617882 
H    -5.9373358   -3.3636626   -2.2722467 
H    -4.0137942   -2.3636890    3.3759766 
H    -5.5008518    0.9940633    3.0942253 
H    -0.7967700    0.3905579    6.4370335 
H    -5.5133641    0.9457966   -2.2800393 
H    -1.0693906   -5.4029991    2.4633150 
H    -4.6637342    3.7712931   -0.1182279 
H     0.5332045   -2.9371645    4.0034121 
H    -6.9030247   -1.0961897   -2.6961085 
H    -2.8294684   -4.4848021    3.9837341 
H    -6.3071202    2.6688713    1.4207250 
H     0.0283289   -1.9655582    6.2596409 
