121
Energy =
C     1.9627565    0.7242347   -1.6303316 
C     0.8528924    0.9370861   -2.4845113 
C    -0.1926898    1.8100590   -2.0931906 
H     0.7691553    0.3840363   -3.4285283 
Pd    0.0310103    0.0511945   -0.6184133 
P    -2.1473528    0.2440444    0.3105266 
P     0.8791764   -2.0319940    0.1114293 
H     2.1062109    1.4832136   -0.8502807 
H     0.0347122    2.5714902   -1.3368908 
C     5.6303626   -1.3082411   -2.5595686 
C     5.5680423   -0.3652341   -1.5230436 
C     4.3542668    0.2564302   -1.2141481 
C     3.1802737   -0.0334304   -1.9483979 
C     3.2591095   -0.9860064   -2.9908389 
C     4.4693021   -1.6205667   -3.2865866 
H     6.5784830   -1.7997662   -2.8009692 
H     6.4649299   -0.1204669   -0.9457169 
H     4.3109452    0.9818200   -0.3953863 
H     2.3723114   -1.2327190   -3.5796360 
H     4.5098095   -2.3570205   -4.0957570 
C    -3.4454750    2.7833104   -4.7285761 
C    -2.8745382    3.7604956   -3.9005149 
C    -1.8405682    3.4209481   -3.0201398 
C    -1.3401629    2.1023860   -2.9684654 
C    -1.9200012    1.1285575   -3.8135917 
C    -2.9669865    1.4628344   -4.6777987 
H    -4.2608683    3.0461135   -5.4103768 
H    -3.2442112    4.7905688   -3.9305450 
H    -1.4093326    4.1832615   -2.3629862 
H    -1.5531229    0.0971903   -3.7835666 
H    -3.4122033    0.6930978   -5.3168966 
N    -0.0860512    2.2905477    1.4920134 
N     2.2077415    1.0771238    2.9675016 
C     1.1592805    3.0472712    1.7519153 
C     2.3725044    2.0970942    1.9257926 
C     1.4331968    4.0726904    0.6365342 
C     3.6569374    2.9148040    2.1752096 
C     2.6998793    4.8942740    0.9155032 
C     3.9127834    3.9676502    1.0859348 
C    -1.3179450    3.0845485    1.7083563 
C     1.7811035   -0.2461240    2.5451752 
C    -2.3753734    3.0735529    0.6061664 
C     2.8792046   -1.0487823    1.8571971 
C    -2.8791103    1.9033778   -0.0294881 
C     2.5965736   -1.9328524    0.7797061 
C    -3.0041119    4.2997669    0.3149394 
C     4.1969009   -0.9643147    2.3403756 
C    -3.9684688    2.0001437   -0.9176779 
C     3.6390568   -2.6989127    0.2191853 
C    -4.1036820    4.3873260   -0.5498817 
C     5.2212332   -1.7453094    1.7918406 
C    -4.5885164    3.2307581   -1.1693159 
C     4.9405388   -2.6131859    0.7273907 
C    -3.3209663   -0.9711165   -0.4308564 
C    -2.4863092    0.1186234    2.1294695 
C    -0.0251749   -3.0458441    1.3615888 
C     0.8958254   -3.2317463   -1.2911173 
C    -2.9543069   -1.5677496   -1.6534155 
C    -3.6102852    0.7741688    2.6843246 
C    -1.3546557   -3.4156411    1.0654162 
C     1.2367996   -4.5852456   -1.0787348 
C    -4.5252278   -1.3605358    0.1893133 
C    -1.6552558   -0.6337111    2.9769170 
C     0.5465295   -3.4408240    2.5869219 
C     0.4632359   -2.8262002   -2.5665145 
C    -3.7745693   -2.5305818   -2.2548673 
C    -3.8860487    0.6695416    4.0541336 
C    -2.1122828   -4.1325773    1.9973987 
C     1.1818145   -5.4993060   -2.1384503 
C    -5.3446186   -2.3259517   -0.4127227 
C    -1.9290362   -0.7325693    4.3486464 
C    -0.2190285   -4.1608733    3.5182979 
C     0.3991815   -3.7438386   -3.6247856 
C    -4.9732415   -2.9118276   -1.6333553 
C    -3.0449445   -0.0810889    4.8912944 
C    -1.5498461   -4.4969127    3.2318239 
C     0.7661793   -5.0804205   -3.4131235 
H     1.0643695    3.6136525    2.7116619 
H     2.4965599    1.5384771    0.9803499 
H     1.5519498    3.5290621   -0.3202230 
H     0.5583419    4.7361556    0.5105106 
H     3.5708044    3.4083152    3.1631704 
H     4.5010149    2.2074610    2.2502102 
H     2.8706641    5.6150324    0.0964622 
H     2.5562563    5.4897283    1.8380545 
H     4.8188361    4.5509984    1.3270373 
H     4.1156468    3.4569401    0.1230126 
H    -0.1055964    1.5016259    2.1443967 
H     1.7086020    1.4163340    3.7914402 
H    -1.8101969    2.7484790    2.6422116 
H    -1.0406390    4.1384236    1.8829863 
H     1.4488577   -0.7967808    3.4444962 
H     0.9032369   -0.2241449    1.8547927 
H    -2.6312701    5.2089472    0.8018518 
H     4.3948377   -0.2697273    3.1635110 
H    -4.3409309    1.1002703   -1.4157242 
H     3.4422340   -3.3487663   -0.6374152 
H    -4.5718771    5.3583204   -0.7412289 
H     6.2384460   -1.6727089    2.1909945 
H    -5.4357633    3.2796750   -1.8600000 
H     5.7367055   -3.2118476    0.2739048 
H    -2.0002415   -1.2889776   -2.1111233 
H    -4.2628668    1.3804453    2.0470519 
H    -1.7982615   -3.1387154    0.1046721 
H     1.5339914   -4.9254803   -0.0808616 
H    -4.8194090   -0.9255501    1.1489099 
H    -0.7972950   -1.1598904    2.5624453 
H     1.5893204   -3.1961706    2.8129756 
H     0.1668002   -1.7823949   -2.7167382 
H    -3.4688499   -2.9924440   -3.1993750 
H    -4.7599785    1.1822145    4.4694874 
H    -3.1459836   -4.4027007    1.7585979 
H     1.4537294   -6.5458977   -1.9665152 
H    -6.2760146   -2.6263795    0.0785798 
H    -1.2690109   -1.3299602    4.9861524 
H     0.2324240   -4.4647240    4.4687365 
H     0.0597927   -3.4147291   -4.6127678 
H    -5.6141769   -3.6705430   -2.0943384 
H    -3.2612475   -0.1558758    5.9620861 
H    -2.1450943   -5.0520646    3.9641151 
H     0.7176018   -5.8002318   -4.2368335 
