121
Energy =
C     1.9976158   -0.1761191   -2.2449916 
C     0.8308626    0.3153417   -2.8790890 
C     0.1911107    1.4966011   -2.4323448 
H     0.3744740   -0.2738826   -3.6835003 
Pd    0.1952416   -0.1227134   -0.7909345 
P    -2.0099558    0.1327414   -0.0203398 
P     1.0441584   -1.8775417    0.5635026 
H     2.5693625    0.5395712   -1.6441570 
H     0.7637895    2.1555729   -1.7651835 
C     4.3283317   -3.5372726   -3.5707804 
C     4.8944361   -2.5417884   -2.7618132 
C     4.1137016   -1.4660979   -2.3227111 
C     2.7543754   -1.3540721   -2.6934302 
C     2.2027835   -2.3599242   -3.5220926 
C     2.9781935   -3.4402803   -3.9494370 
H     4.9348556   -4.3832623   -3.9102041 
H     5.9467410   -2.6042890   -2.4661083 
H     4.5581412   -0.6960360   -1.6825570 
H     1.1547395   -2.3024879   -3.8300793 
H     2.5287860   -4.2139343   -4.5803940 
C    -3.0306836    3.5335314   -4.4102550 
C    -2.3845222    4.1059026   -3.3046598 
C    -1.3588656    3.4152629   -2.6510587 
C    -0.9474159    2.1388206   -3.1019565 
C    -1.6062437    1.5745963   -4.2215948 
C    -2.6395232    2.2629945   -4.8642367 
H    -3.8336794    4.0752132   -4.9207079 
H    -2.6867256    5.0940416   -2.9443630 
H    -0.8680790    3.8438236   -1.7701084 
H    -1.2908144    0.6040381   -4.6190360 
H    -3.1315894    1.8155419   -5.7341042 
N    -0.3442216    3.0644665    0.6402047 
N     2.2330677    1.7290834    0.6120142 
C     0.7163251    3.4892582    1.5670864 
C     2.0890920    3.1711899    0.9325882 
C     0.6116873    5.0037233    1.8534464 
C     3.2620755    3.7349264    1.7666303 
C     1.7778159    5.5394688    2.6958678 
C     3.1220331    5.2425337    2.0189700 
C    -1.7053530    3.1492739    1.1909518 
C     2.3406659    0.7850282    1.7465234 
C    -2.8101931    2.8684558    0.1829854 
C     3.2805096   -0.3599050    1.4083380 
C    -3.0333757    1.6149667   -0.4594825 
C     2.8471748   -1.5998087    0.8631886 
C    -3.7073518    3.9173932   -0.0936155 
C     4.6581232   -0.1612488    1.6246387 
C    -4.1043432    1.4799020   -1.3663316 
C     3.8009583   -2.5881288    0.5505849 
C    -4.7791684    3.7709075   -0.9823795 
C     5.5985163   -1.1566473    1.3262776 
C    -4.9699715    2.5477548   -1.6325879 
C     5.1653298   -2.3742407    0.7883859 
C    -2.7957767   -1.2982414   -0.8795487 
C    -2.4503881   -0.0162274    1.7584038 
C     0.4101512   -2.3277425    2.2418985 
C     0.8276071   -3.4990125   -0.2776081 
C    -3.3731406   -2.3891390   -0.2029281 
C    -1.4569876    0.1418895    2.7397119 
C    -0.8381539   -2.9828001    2.3098420 
C     1.2795366   -4.7021424    0.3096556 
C    -2.6839997   -1.3477860   -2.2885656 
C    -3.7986862   -0.1477532    2.1535061 
C     1.1109010   -2.0572257    3.4325780 
C     0.0805047   -3.5509835   -1.4673323 
C    -3.8230273   -3.5086438   -0.9211293 
C    -1.7915460    0.1408290    4.0997906 
C    -1.3837111   -3.3436381    3.5458820 
C     1.0292676   -5.9267541   -0.3204153 
C    -3.1514728   -2.4572786   -3.0015765 
C    -4.1303754   -0.1690374    3.5144829 
C     0.5597949   -2.4225850    4.6708250 
C    -0.1826286   -4.7807000   -2.0873858 
C    -3.7159172   -3.5466759   -2.3175204 
C    -3.1281126   -0.0267660    4.4881500 
C    -0.6880798   -3.0586007    4.7316103 
C     0.3020012   -5.9675359   -1.5223203 
H     0.6512898    2.9509748    2.5460503 
H     2.0931263    3.6807300   -0.0505582 
H     0.5763120    5.5256134    0.8775620 
H    -0.3411987    5.2213568    2.3660066 
H     3.3104002    3.2144081    2.7425574 
H     4.2086895    3.5111950    1.2388341 
H     1.6530287    6.6249411    2.8558903 
H     1.7588638    5.0682692    3.6984137 
H     3.9633023    5.6048116    2.6360642 
H     3.1765000    5.7847898    1.0548728 
H    -0.1369497    2.0996062    0.3403417 
H     3.0809896    1.6283982    0.0451142 
H    -1.8451198    2.5027971    2.0852907 
H    -1.8563206    4.1806860    1.5432664 
H     2.7169784    1.2776842    2.6645155 
H     1.3355320    0.4004554    1.9932524 
H    -3.5503979    4.8811256    0.4039183 
H     4.9929128    0.7925176    2.0496957 
H    -4.2848043    0.5219616   -1.8600441 
H     3.4835572   -3.5274800    0.0917010 
H    -5.4536269    4.6125108   -1.1704974 
H     6.6620617   -0.9806607    1.5170139 
H    -5.7930892    2.4133505   -2.3414817 
H     5.8864553   -3.1579710    0.5354799 
H    -3.4706587   -2.3732512    0.8861411 
H    -0.4194560    0.2835191    2.4276785 
H    -1.3735765   -3.2212394    1.3859595 
H     1.8060259   -4.6828279    1.2699208 
H    -2.2332008   -0.5064939   -2.8244274 
H    -4.5891981   -0.2157337    1.3981501 
H     2.0964755   -1.5825311    3.4008939 
H    -0.3162969   -2.6216735   -1.8899041 
H    -4.2642212   -4.3528843   -0.3812199 
H    -1.0069781    0.2664417    4.8517419 
H    -2.3544207   -3.8486183    3.5846940 
H     1.3890662   -6.8549650    0.1355213 
H    -3.0696515   -2.4737573   -4.0936684 
H    -5.1772052   -0.2798301    3.8158644 
H     1.1165305   -2.2156405    5.5909190 
H    -0.7729842   -4.8060539   -3.0088502 
H    -4.0720288   -4.4206055   -2.8725524 
H    -3.3933754   -0.0343620    5.5504940 
H    -1.1144732   -3.3401630    5.6998441 
H     0.1003753   -6.9290966   -2.0060249 
