121
Energy =
C    -1.1048262    0.6038832    2.8822822 
C    -2.2505208   -0.0631349    2.3413098 
C    -2.2969850   -1.4616733    2.1903059 
H    -3.0799990    0.5338896    1.9423831 
Pd   -0.5275817   -0.4932861    1.0271125 
P    -0.7683020   -1.8437940   -0.9476201 
P     1.7699826    0.0792157    1.0932887 
H    -0.5165063    0.0721424    3.6430160 
H    -1.5910205   -2.0639617    2.7816512 
C    -0.8603839    4.9010295    3.1150717 
C    -0.0973058    4.0934739    3.9702509 
C    -0.1782376    2.6976775    3.8848873 
C    -1.0266967    2.0753829    2.9431168 
C    -1.7937425    2.9042111    2.0868610 
C    -1.7128947    4.2981417    2.1730754 
H    -0.7957595    5.9918694    3.1801722 
H     0.5708202    4.5492124    4.7074418 
H     0.4283772    2.0792092    4.5537041 
H    -2.4461881    2.4579589    1.3303184 
H    -2.3125122    4.9180336    1.4982822 
C    -5.6411638   -3.6909354    0.6838782 
C    -4.7915835   -4.2391642    1.6556118 
C    -3.6879964   -3.5111576    2.1145279 
C    -3.4338650   -2.2079800    1.6333246 
C    -4.2978798   -1.6670265    0.6530021 
C    -5.3845462   -2.4050296    0.1772032 
H    -6.4971707   -4.2652104    0.3146988 
H    -4.9786068   -5.2445067    2.0459182 
H    -3.0113648   -3.9529355    2.8534619 
H    -4.1047796   -0.6723371    0.2413309 
H    -6.0333520   -1.9776356   -0.5941052 
N     0.9252155    2.9430372    0.1861899 
N    -0.9475073    1.5434535   -1.3558069 
C     0.5995211    3.4521762   -1.1620232 
C    -0.8171395    2.9883628   -1.5681436 
C     0.7002160    4.9849918   -1.3322222 
C    -1.1163982    3.3853867   -3.0233547 
C     0.3827266    5.4108308   -2.7765649 
C    -0.9973695    4.9038631   -3.2244462 
C     2.2615076    3.2942834    0.6654949 
C    -2.3262652    1.0484017   -1.2085594 
C     2.5883176    2.6768289    2.0136652 
C    -2.6878427   -0.0603988   -2.1823270 
C     2.4293215    1.2976146    2.3317517 
C    -2.0701876   -1.3368032   -2.1656248 
C     3.1239502    3.5318531    2.9954885 
C    -3.6493662    0.2065795   -3.1760303 
C     2.8168664    0.8448610    3.6112407 
C    -2.3715008   -2.2615061   -3.1928104 
C     3.5003633    3.0730036    4.2630786 
C    -3.9839305   -0.7367903   -4.1549353 
C     3.3434519    1.7177106    4.5725993 
C    -3.3268313   -1.9739374   -4.1739838 
C     2.3551023   -1.5729025    1.7277756 
C     2.8595411    0.4055308   -0.3448350 
C     0.6486279   -2.1688642   -2.0989603 
C    -1.2059868   -3.5419171   -0.3467991 
C     1.7283227   -2.1316568    2.8686951 
C     2.3250901    0.6107107   -1.6252896 
C     0.7125249   -1.5126665   -3.3469500 
C    -0.3764632   -4.0607228    0.6724244 
C     3.3223194   -2.3435653    1.0523951 
C     4.2522986    0.5313763   -0.1363483 
C     1.6891252   -3.0455617   -1.7347155 
C    -2.2837277   -4.3222592   -0.8048119 
C     2.0784442   -3.4049811    3.3344166 
C     3.1755596    0.9300283   -2.6947073 
C     1.7908793   -1.7406902   -4.2113548 
C    -0.5795198   -5.3521507    1.1742801 
C     3.6559082   -3.6290443    1.5083358 
C     5.0957845    0.8425225   -1.2092411 
C     2.7738467   -3.2560344   -2.5969066 
C    -2.4864826   -5.6137264   -0.2956986 
C     3.0426644   -4.1621626    2.6499974 
C     4.5570577    1.0435401   -2.4913825 
C     2.8281723   -2.6072822   -3.8385032 
C    -1.6299924   -6.1401562    0.6805124 
H     1.3257116    2.9832057   -1.8539475 
H    -1.5337904    3.5456923   -0.9133859 
H    -0.0052205    5.4694111   -0.6272936 
H     1.7127231    5.3301392   -1.0589152 
H    -0.4050540    2.8476727   -3.6794322 
H    -2.1273344    3.0351355   -3.3016720 
H     0.4410847    6.5100510   -2.8686520 
H     1.1587531    4.9965502   -3.4499749 
H    -1.1807866    5.1646071   -4.2818732 
H    -1.7835413    5.4130952   -2.6327894 
H     0.2269142    3.2802586    0.8591766 
H    -0.4151119    1.3237883   -0.5011259 
H     2.9915404    2.9453769   -0.0893491 
H     2.4123889    4.3891706    0.7586117 
H    -2.4647030    0.6723738   -0.1763551 
H    -3.0475978    1.8764170   -1.3388177 
H     3.2395112    4.5936759    2.7509400 
H    -4.1335145    1.1899432   -3.1858503 
H     2.7359308   -0.2144995    3.8639613 
H    -1.8287717   -3.2104422   -3.2428576 
H     3.9133616    3.7697132    4.9997138 
H    -4.7350854   -0.4962223   -4.9144158 
H     3.6388883    1.3296528    5.5527732 
H    -3.5448734   -2.7102389   -4.9541767 
H     0.9508746   -1.5689506    3.3959240 
H     1.2437871    0.5640183   -1.7793241 
H    -0.0743882   -0.8113551   -3.6393705 
H     0.4285302   -3.4462754    1.0884184 
H     3.8054600   -1.9526875    0.1534107 
H     4.6715467    0.4006555    0.8674216 
H     1.6548507   -3.5835550   -0.7848755 
H    -2.9933546   -3.9226643   -1.5323716 
H     1.5870801   -3.8107004    4.2248421 
H     2.7493985    1.0953682   -3.6891437 
H     1.8214375   -1.2307889   -5.1800441 
H     0.0855665   -5.7355323    1.9553947 
H     4.4039441   -4.2142535    0.9630527 
H     6.1738191    0.9386452   -1.0430741 
H     3.5732974   -3.9423764   -2.2978063 
H    -3.3345686   -6.2033375   -0.6585092 
H     3.3109171   -5.1627694    3.0041220 
H     5.2169069    1.2960789   -3.3280287 
H     3.6721156   -2.7799307   -4.5141650 
H    -1.7922675   -7.1508461    1.0690656 
