121
Energy =
C    -2.6739721    1.2203008    0.4478924 
C    -2.6969574    0.2704929    1.4867673 
C    -1.6644876    0.2230057    2.4732107 
H    -3.4765924   -0.5022292    1.5081386 
Pd   -0.7873134   -0.2049739    0.4702645 
P     1.1808589   -1.2134103    1.3254140 
P    -0.7516891   -0.6281702   -1.8888973 
H    -2.0003693    2.0797182    0.5635865 
H    -1.1462892    1.1636658    2.7082183 
C    -5.6940086    1.9982040   -2.4910304 
C    -4.6462154    2.9044647   -2.2702599 
C    -3.6498886    2.6101632   -1.3348262 
C    -3.6955835    1.4111335   -0.5841610 
C    -4.7546310    0.5028356   -0.8214484 
C    -5.7394739    0.7931919   -1.7694140 
H    -6.4739371    2.2266246   -3.2248868 
H    -4.6001948    3.8397962   -2.8364731 
H    -2.8124321    3.2975900   -1.1748330 
H    -4.8226620   -0.4297109   -0.2539990 
H    -6.5551380    0.0828322   -1.9394143 
C    -1.9024927   -2.6248918    5.6903082 
C    -2.1415156   -3.0410679    4.3690641 
C    -2.0588767   -2.1217178    3.3185570 
C    -1.7150983   -0.7725187    3.5647453 
C    -1.4590427   -0.3723900    4.8928510 
C    -1.5677832   -1.2874458    5.9479474 
H    -1.9742905   -3.3428777    6.5138344 
H    -2.3881905   -4.0867265    4.1576580 
H    -2.2295800   -2.4561697    2.2897219 
H    -1.1742399    0.6652730    5.0973475 
H    -1.3753940   -0.9571792    6.9738945 
N    -0.0423278    2.7423299   -0.7881071 
N     1.6593813    2.1134840    1.5346506 
C     0.6891523    3.7677552   -0.0263016 
C     1.9893870    3.2784247    0.6753565 
C     0.9301943    5.0385617   -0.8608473 
C     2.6431669    4.4453720    1.4574622 
C     1.5412033    6.1707625   -0.0247695 
C     2.8602620    5.7044398    0.6053630 
C     0.3812711    2.3882938   -2.1510032 
C     2.8174756    1.5293406    2.2373942 
C    -0.8009272    1.9907622   -3.0272062 
C     2.4122501    0.5099128    3.2866174 
C    -1.4177623    0.7107279   -2.9787948 
C     1.7084088   -0.7021078    3.0246853 
C    -1.3035596    2.9389293   -3.9371389 
C     2.7708813    0.7966126    4.6180709 
C    -2.5298082    0.4413613   -3.8024018 
C     1.3666102   -1.5407427    4.1072048 
C    -2.3904281    2.6557024   -4.7738985 
C     2.4669787   -0.0667626    5.6788890 
C    -3.0133787    1.4047324   -4.6960490 
C     1.7538770   -1.2395653    5.4193431 
C     0.7628605   -1.1912719   -2.7832625 
C    -1.8752942   -2.0700080   -2.1739492 
C     0.9652204   -3.0476799    1.4372575 
C     2.7041134   -0.9989382    0.3008501 
C     1.4303519   -2.3344955   -2.2950421 
C    -1.7595962   -2.8679998   -3.3316532 
C     1.8505620   -3.9046901    2.1291547 
C     2.7155964    0.0269973   -0.6592131 
C     1.2611977   -0.5400172   -3.9274909 
C    -2.8562937   -2.3916485   -1.2162551 
C    -0.1255492   -3.6180163    0.7518603 
C     3.8469916   -1.8079285    0.4508938 
C     2.5839032   -2.8064013   -2.9290483 
C    -2.6161424   -3.9610066   -3.5216071 
C     1.6491340   -5.2910356    2.1164779 
C     3.8388549    0.2483067   -1.4631394 
C     2.4234252   -1.0131815   -4.5565867 
C    -3.7106831   -3.4861235   -1.4060205 
C    -0.3243462   -5.0052183    0.7342967 
C     4.9719157   -1.5913126   -0.3574662 
C     3.0887693   -2.1410525   -4.0576617 
C    -3.5916241   -4.2729461   -2.5613263 
C     0.5654185   -5.8459857    1.4167848 
C     4.9707224   -0.5664954   -1.3162282 
H     0.0015428    4.0589858    0.7982776 
H     2.6977785    2.9174426   -0.0971675 
H     1.6259022    4.8143810   -1.6919996 
H    -0.0288840    5.3447190   -1.3166966 
H     1.9804340    4.6941175    2.3121931 
H     3.6052063    4.1201022    1.8898946 
H     1.7031590    7.0605889   -0.6583060 
H     0.8338817    6.4710978    0.7726300 
H     3.3036632    6.5037221    1.2254235 
H     3.5924465    5.4846337   -0.1966365 
H    -0.0690046    1.8836375   -0.2152735 
H     0.9851802    2.4265125    2.2450184 
H     0.8590783    3.2616758   -2.6165617 
H     1.1420246    1.5817118   -2.1756982 
H     3.4784746    1.0736385    1.4804587 
H     3.4243308    2.2965143    2.7568393 
H    -0.8239131    3.9233152   -3.9871908 
H     3.3171103    1.7251908    4.8198739 
H    -3.0250373   -0.5315890   -3.7489127 
H     0.7760078   -2.4435725    3.9326344 
H    -2.7542741    3.4138191   -5.4751375 
H     2.7771419    0.1856435    6.6980158 
H    -3.8779293    1.1725544   -5.3256800 
H     1.4760298   -1.9197454    6.2302132 
H     1.0493622   -2.8590953   -1.4136095 
H    -0.9971608   -2.6364150   -4.0823363 
H     2.6866188   -3.4934393    2.7033692 
H     1.8311040    0.6603677   -0.7480753 
H     0.7403996    0.3300616   -4.3389842 
H    -2.9299898   -1.7864678   -0.3075497 
H    -0.8270885   -2.9646350    0.2240840 
H     3.8700694   -2.6135023    1.1882728 
H     3.0956867   -3.6886362   -2.5321751 
H    -2.5183895   -4.5741805   -4.4234847 
H     2.3420929   -5.9415294    2.6602576 
H     3.8224365    1.0463225   -2.2122817 
H     2.8031248   -0.4983373   -5.4453438 
H    -4.4654731   -3.7254494   -0.6494734 
H    -1.1776492   -5.4199310    0.1875669 
H     5.8537167   -2.2291188   -0.2367751 
H     3.9971066   -2.5051053   -4.5487310 
H    -4.2552519   -5.1306857   -2.7125305 
H     0.4147357   -6.9305299    1.4106607 
H     5.8498636   -0.4067807   -1.9489957 
