121
Energy =
C    -1.9640752    1.3624784    1.6221076 
C    -2.2246042    0.0147485    1.9906825 
C    -1.1741247   -0.8308574    2.4077625 
H    -3.2406162   -0.3873422    1.8862675 
Pd   -0.8218435   -0.0503733    0.2514204 
P    -0.2584992   -2.1586784   -0.6706319 
P    -0.2882694    1.5781997   -1.4012434 
H    -1.0524695    1.8221060    2.0275748 
H    -0.2361816   -0.3402739    2.7029296 
C    -5.1109103    4.0734795    0.5040194 
C    -5.2023646    2.7177418    0.1442095 
C    -4.1812332    1.8290593    0.4918272 
C    -3.0365616    2.2764185    1.1933577 
C    -2.9557931    3.6426568    1.5381842 
C    -3.9866748    4.5298276    1.2064992 
H    -5.9140019    4.7680144    0.2367549 
H    -6.0755107    2.3549083   -0.4080914 
H    -4.2677141    0.7745625    0.2072565 
H    -2.0716119    4.0081613    2.0708882 
H    -3.9052656    5.5844194    1.4889853 
C    -1.4489636   -4.7898135    4.0209936 
C    -0.2889065   -4.0181160    4.1862919 
C    -0.2071353   -2.7445321    3.6152510 
C    -1.2972581   -2.2091521    2.8879697 
C    -2.4570653   -3.0020135    2.7191359 
C    -2.5276834   -4.2814819    3.2770215 
H    -1.5132922   -5.7882999    4.4658803 
H     0.5590091   -4.4146634    4.7532143 
H     0.7042814   -2.1450649    3.7145105 
H    -3.3119672   -2.6189817    2.1552107 
H    -3.4318220   -4.8837052    3.1405218 
N     1.2644120    2.2407133    2.1113631 
N     2.0953899   -0.4922603    1.7637818 
C     2.3889023    1.6700192    2.8942128 
C     3.0916402    0.5226366    2.1335448 
C     3.4152435    2.7202106    3.3771316 
C     4.1891649   -0.0951692    3.0239060 
C     4.5139797    2.0912025    4.2484114 
C     5.2123087    0.9476256    3.4974994 
C     1.6213023    2.8365227    0.8095571 
C     2.5142370   -1.4660105    0.7422364 
C     0.5115567    3.7199441    0.2599922 
C     1.9360716   -2.8554243    0.9792817 
C    -0.4188010    3.2907401   -0.7256351 
C     0.7002804   -3.2892262    0.4284979 
C     0.4290608    5.0480288    0.7181481 
C     2.6599786   -3.7534386    1.7851581 
C    -1.3883341    4.1839917   -1.2165538 
C     0.2177450   -4.5807819    0.7216582 
C    -0.5327326    5.9396425    0.2200829 
C     2.1901065   -5.0452576    2.0507491 
C    -1.4422694    5.5056553   -0.7514894 
C     0.9592486   -5.4563226    1.5234701 
C     1.3505025    1.7206820   -2.2585860 
C    -1.5071496    1.4760913   -2.7790538 
C    -1.8450891   -3.0166568   -1.0716897 
C     0.5853967   -2.2936660   -2.3053709 
C     1.7622773    2.9668532   -2.7849088 
C    -1.2621073    2.0071078   -4.0617694 
C    -1.8501472   -4.1812244   -1.8701030 
C    -0.0439102   -1.6839571   -3.4124321 
C     2.2052268    0.6135761   -2.3892517 
C    -2.7102597    0.7823479   -2.5401322 
C    -3.0716180   -2.4756077   -0.6446508 
C     1.8288210   -2.9319050   -2.4773796 
C     2.9951377    3.0835601   -3.4408144 
C    -2.2135240    1.8489930   -5.0795394 
C    -3.0608981   -4.8017826   -2.2034195 
C     0.5762802   -1.6901575   -4.6662007 
C     3.4407634    0.7338438   -3.0396193 
C    -3.6594456    0.6257789   -3.5578095 
C    -4.2835101   -3.0927734   -0.9850120 
C     2.4455645   -2.9341430   -3.7389834 
C     3.8380984    1.9686821   -3.5702551 
C    -3.4115683    1.1603803   -4.8311167 
C    -4.2789278   -4.2609039   -1.7606033 
C     1.8271038   -2.3078906   -4.8305553 
H     1.9181379    1.2120572    3.7863526 
H     3.5899816    0.9615646    1.2351435 
H     3.8837041    3.2107058    2.5022784 
H     2.8801566    3.5096706    3.9381868 
H     3.6917686   -0.5684975    3.8920950 
H     4.7002987   -0.9048122    2.4718484 
H     5.2436701    2.8616159    4.5545229 
H     4.0609186    1.6949628    5.1781941 
H     5.9702849    0.4668098    4.1408103 
H     5.7540038    1.3580563    2.6226446 
H     0.8118224    2.9582815    2.6882827 
H     1.2494493   -0.0037803    1.4321440 
H     2.5452449    3.4512086    0.8582550 
H     1.8404801    2.0148685    0.1079342 
H     2.2587529   -1.1205051   -0.2782924 
H     3.6133244   -1.5491849    0.7636170 
H     1.1557639    5.3970447    1.4620730 
H     3.6157245   -3.4253948    2.2095602 
H    -2.1075662    3.8448234   -1.9682749 
H    -0.7506548   -4.9049142    0.3320521 
H    -0.5629460    6.9712632    0.5854293 
H     2.7791077   -5.7248790    2.6753518 
H    -2.2009717    6.1883496   -1.1466537 
H     0.5664060   -6.4544921    1.7408900 
H     1.1264843    3.8510080   -2.6733053 
H    -0.3242663    2.5286240   -4.2744700 
H    -0.9062174   -4.5961587   -2.2392500 
H    -1.0178744   -1.1991442   -3.2912681 
H     1.9040792   -0.3519476   -1.9847228 
H    -2.8809515    0.3420781   -1.5529441 
H    -3.0681136   -1.5547214   -0.0525754 
H     2.3155421   -3.4274041   -1.6311421 
H     3.2998965    4.0538583   -3.8467593 
H    -2.0139019    2.2607105   -6.0743664 
H    -3.0540444   -5.7070200   -2.8193407 
H     0.0829918   -1.2051650   -5.5147679 
H     4.0874231   -0.1448782   -3.1290629 
H    -4.5841215    0.0745707   -3.3582175 
H    -5.2304436   -2.6583149   -0.6471367 
H     3.4122508   -3.4326847   -3.8665404 
H     4.8029889    2.0661243   -4.0786239 
H    -4.1468459    1.0340498   -5.6326174 
H    -5.2232792   -4.7455639   -2.0292510 
H     2.3151605   -2.3065461   -5.8105923 
