121
Energy =
C    -1.5320512    0.5413882    2.8794188 
C    -1.5873788   -0.8702843    2.9133153 
C    -0.4014571   -1.6533654    2.8254830 
H    -2.5651732   -1.3669723    2.9241991 
Pd   -0.7103718   -0.4309366    0.9338591 
P     0.5348650   -1.9097889   -0.4309648 
P    -1.6277200    1.1661448   -0.5470295 
H    -0.5591670    1.0005460    3.1109036 
H     0.5269240   -1.1686470    3.1559873 
C    -4.8129728    3.2766283    3.3584160 
C    -3.4948212    3.6769856    3.6217879 
C    -2.4407476    2.7744400    3.4483229 
C    -2.6800815    1.4493625    3.0170562 
C    -4.0161218    1.0572308    2.7696127 
C    -5.0683081    1.9625620    2.9325827 
H    -5.6394657    3.9830725    3.4868865 
H    -3.2853253    4.6973463    3.9573280 
H    -1.4135471    3.0931221    3.6527065 
H    -4.2397863    0.0386450    2.4435530 
H    -6.0947685    1.6411114    2.7283226 
C    -0.2993427   -5.9398829    3.1562848 
C     0.8683787   -5.1815484    3.3235260 
C     0.8269701   -3.7886781    3.1870700 
C    -0.3828674   -3.1248702    2.8793006 
C    -1.5450950   -3.9075254    2.6808598 
C    -1.5044493   -5.2960455    2.8284831 
H    -0.2717469   -7.0281262    3.2731538 
H     1.8139675   -5.6742658    3.5723959 
H     1.7395097   -3.2014779    3.3324837 
H    -2.4897931   -3.4295258    2.4037127 
H    -2.4157240   -5.8829344    2.6771025 
N     1.6790800    3.0980282    0.0014041 
N     2.9335288    1.5656266   -2.0960179 
C     3.0371445    2.5738890    0.2223267 
C     3.7358029    2.3526008   -1.1476487 
C     3.9083916    3.4304038    1.1621872 
C     5.1362142    1.7418841   -0.9440152 
C     5.3029487    2.8112405    1.3550613 
C     5.9990776    2.5939942    0.0012659 
C     0.7122330    2.7688654    1.0473795 
C     2.3944375    0.3345582   -1.5480276 
C    -0.6114148    3.4700358    0.8109065 
C     1.8364344   -0.6083689   -2.5909143 
C    -1.7262540    2.8778695    0.1578406 
C     0.9487385   -1.6540718   -2.2193716 
C    -0.7208384    4.8025468    1.2563758 
C     2.2318108   -0.4963931   -3.9328744 
C    -2.9231876    3.6142279    0.0397222 
C     0.4747056   -2.5477179   -3.2027668 
C    -1.8979783    5.5407778    1.0931259 
C     1.7599655   -1.3903286   -4.9026669 
C    -3.0109205    4.9335890    0.4984325 
C     0.8758046   -2.4148207   -4.5389369 
C    -0.9938414    1.4380899   -2.2552725 
C    -3.3585638    0.6346674   -0.9163042 
C     2.2190175   -2.2364785    0.2488946 
C    -0.3965259   -3.4941458   -0.4548705 
C    -1.2558522    0.4482288   -3.2271650 
C    -4.1168773    1.2431068   -1.9411261 
C     2.7073240   -1.4665419    1.3217680 
C     0.1681729   -4.7513789   -0.1772277 
C    -0.3308500    2.6210340   -2.6334190 
C    -3.9114936   -0.4510613   -0.2115167 
C     3.0878539   -3.1410451   -0.3973643 
C    -1.7617076   -3.4100159   -0.8080980 
C    -0.8775231    0.6495482   -4.5587920 
C    -5.4130262    0.7919236   -2.2213900 
C     4.0254312   -1.6223855    1.7716146 
C    -0.6195436   -5.9080266   -0.2714132 
C     0.0604145    2.8090358   -3.9684885 
C    -5.2050533   -0.9090027   -0.5000480 
C     4.4012493   -3.3075041    0.0628537 
C    -2.5418240   -4.5685492   -0.9058520 
C    -0.2160172    1.8294326   -4.9322427 
C    -5.9606905   -0.2819768   -1.5007310 
C     4.8713221   -2.5527683    1.1492274 
C    -1.9689258   -5.8225894   -0.6416922 
H     2.9151124    1.5782076    0.6926707 
H     3.8674062    3.3482155   -1.6159766 
H     4.0122238    4.4429830    0.7215234 
H     3.4000482    3.5577121    2.1368138 
H     5.0321439    0.7241193   -0.5174644 
H     5.6175689    1.6257122   -1.9302321 
H     5.9189893    3.4522264    2.0107033 
H     5.1973131    1.8366243    1.8730204 
H     6.9844013    2.1166085    0.1477255 
H     6.1934676    3.5781581   -0.4685178 
H     1.7132375    4.1145525   -0.1348938 
H     2.1511256    2.1395537   -2.4248258 
H     0.5694128    1.6660991    1.0366043 
H     1.0616862    3.0298491    2.0747525 
H     3.2103737   -0.1906594   -1.0186913 
H     1.5978504    0.5040445   -0.7798648 
H     0.1398817    5.2596546    1.7597673 
H     2.9188357    0.3149241   -4.1909442 
H    -3.8076792    3.1509983   -0.4037241 
H    -0.2010361   -3.3617316   -2.9264124 
H    -1.9538439    6.5735265    1.4520948 
H     2.0829573   -1.2859117   -5.9439471 
H    -3.9543058    5.4792253    0.3968821 
H     0.5007365   -3.1191328   -5.2887901 
H    -1.7777616   -0.4728244   -2.9483706 
H    -3.6861298    2.0578771   -2.5325245 
H     2.0579606   -0.7136302    1.7805616 
H     1.2121928   -4.8346631    0.1344440 
H    -0.1181793    3.3901814   -1.8879612 
H    -3.3065936   -0.9495875    0.5552418 
H     2.7465686   -3.6960149   -1.2776884 
H    -2.2111418   -2.4327777   -1.0181061 
H    -1.0918670   -0.1226140   -5.3033035 
H    -5.9947820    1.2745909   -3.0134776 
H     4.3951003   -1.0074667    2.5989999 
H    -0.1734206   -6.8809031   -0.0419707 
H     0.5714263    3.7340575   -4.2560703 
H    -5.6183778   -1.7583799    0.0542216 
H     5.0657627   -4.0169511   -0.4409548 
H    -3.5968044   -4.4897913   -1.1890512 
H     0.0826384    1.9842635   -5.9740016 
H    -6.9704641   -0.6373848   -1.7306723 
H     5.9018450   -2.6767224    1.4975499 
H    -2.5764060   -6.7305621   -0.7153918 
