121
Energy =
C    -2.0404614   -1.3151707    2.5186093 
C    -2.7007948   -1.4099685    1.2765371 
C    -2.3533388   -2.4144255    0.3280574 
H    -3.4472771   -0.6524315    1.0102560 
Pd   -0.5872326   -1.0251265    0.6911028 
P     0.7487520   -1.8519417   -1.0727814 
P     0.8153172    0.4881969    1.8754760 
H    -1.4313520   -2.1777421    2.8280130 
H    -1.8792075   -3.3193301    0.7292511 
C    -3.0024722    1.2707900    5.8088769 
C    -2.1043009    0.2057338    5.9671708 
C    -1.7962493   -0.6184522    4.8794873 
C    -2.3800970   -0.3963239    3.6104612 
C    -3.3009354    0.6703664    3.4734034 
C    -3.6033526    1.4957240    4.5581399 
H    -3.2432891    1.9195100    6.6573620 
H    -1.6389614    0.0159741    6.9397059 
H    -1.0935407   -1.4488938    5.0065140 
H    -3.7882846    0.8577039    2.5121561 
H    -4.3126762    2.3198078    4.4314125 
C    -4.4516085   -3.1886118   -3.3438175 
C    -3.4997633   -4.0959615   -2.8531896 
C    -2.8096900   -3.8164915   -1.6703666 
C    -3.0550319   -2.6248912   -0.9481210 
C    -4.0088717   -1.7158082   -1.4619565 
C    -4.7010582   -1.9973005   -2.6441988 
H    -4.9960643   -3.4078352   -4.2679112 
H    -3.2932487   -5.0232661   -3.3963600 
H    -2.0664996   -4.5269942   -1.2914679 
H    -4.2205814   -0.7811565   -0.9327570 
H    -5.4430638   -1.2853804   -3.0206046 
N     1.5438752    2.8171404   -1.9193611 
N    -0.5296409    1.1064038   -2.9590178 
C     0.3592476    3.3765117   -2.5889927 
C    -0.8936550    2.4603713   -2.5116727 
C     0.0295347    4.7876838   -2.0633028 
C    -2.0862757    3.0925403   -3.2591717 
C    -1.1706232    5.4078664   -2.7969985 
C    -2.4062414    4.4965222   -2.7192646 
C     1.2821938    2.3226388   -0.5805036 
C    -1.4558974    0.0470221   -2.5510678 
C     2.5279954    2.0151012    0.2184197 
C    -1.0785191   -1.2678655   -3.2015196 
C     2.4576106    1.1586732    1.3490571 
C    -0.1274275   -2.1812619   -2.6698919 
C     3.7569219    2.6069533   -0.1110315 
C    -1.6700299   -1.5634940   -4.4444283 
C     3.6189884    0.9029347    2.1070896 
C     0.1625269   -3.3645306   -3.3816830 
C     4.9050301    2.3571054    0.6523938 
C    -1.3513313   -2.7237883   -5.1590631 
C     4.8387273    1.4994074    1.7593475 
C    -0.4338215   -3.6326121   -4.6194179 
C    -0.0924902    2.0610381    2.1986920 
C     1.2111628   -0.3142878    3.4839011 
C     2.2966941   -1.0000997   -1.5913835 
C     1.4357992   -3.4875448   -0.5311911 
C     0.5179852    3.1369794    2.8769900 
C     1.2043905    0.3525941    4.7231352 
C     3.4022942   -1.0286919   -0.7147877 
C     2.5535169   -4.0589050   -1.1814567 
C    -1.3510757    2.2534792    1.5992886 
C     1.5616881   -1.6813484    3.4365320 
C     2.4350999   -0.4090050   -2.8614623 
C     0.8677201   -4.1714393    0.5616817 
C    -0.1459310    4.3663092    2.9877274 
C     1.5516848   -0.3372902    5.8944327 
C     4.6316514   -0.4915452   -1.1123001 
C     3.0659004   -5.2923175   -0.7588090 
C    -2.0057887    3.4882509    1.6945407 
C     1.9052006   -2.3676591    4.6088534 
C     3.6651999    0.1470553   -3.2457870 
C     1.3850078   -5.4036111    0.9875847 
C    -1.4073773    4.5443584    2.3971100 
C     1.9014506   -1.6945921    5.8416221 
C     4.7643002    0.1024467   -2.3763743 
C     2.4827334   -5.9690851    0.3241436 
H     0.6318738    3.4723337   -3.6591155 
H    -1.1757719    2.3701793   -1.4437716 
H    -0.2015997    4.7279983   -0.9809624 
H     0.9293940    5.4188114   -2.1625728 
H    -1.8324959    3.1593949   -4.3368539 
H    -2.9736212    2.4365829   -3.1816571 
H    -1.3985671    6.4033159   -2.3757355 
H    -0.9060544    5.5694499   -3.8604999 
H    -3.2512914    4.9381746   -3.2771952 
H    -2.7326980    4.4121320   -1.6629537 
H     1.9097382    2.0414910   -2.4802081 
H    -0.4376975    1.0987873   -3.9818788 
H     0.7126821    3.0975264   -0.0352507 
H     0.6354549    1.4093943   -0.5717421 
H    -1.4053499   -0.0401057   -1.4431715 
H    -2.5159641    0.2613692   -2.8062352 
H     3.7845084    3.2642728   -0.9852957 
H    -2.4110889   -0.8643269   -4.8482317 
H     3.5723594    0.2434054    2.9786467 
H     0.8607397   -4.0950310   -2.9656119 
H     5.8542771    2.8311062    0.3807364 
H    -1.8306699   -2.9237647   -6.1227506 
H     5.7318897    1.2954718    2.3591332 
H    -0.1839665   -4.5553960   -5.1528792 
H     1.5291625    3.0286722    3.2836609 
H     0.9052799    1.4019878    4.7853656 
H     3.3114039   -1.4966694    0.2707447 
H     3.0321685   -3.5322414   -2.0132777 
H    -1.7966025    1.4323519    1.0245832 
H     1.5644738   -2.2094320    2.4751890 
H     1.5856144   -0.3893100   -3.5474130 
H     0.0259714   -3.7233228    1.0981192 
H     0.3337080    5.1954073    3.5181000 
H     1.5367460    0.1888752    6.8545538 
H     5.4833412   -0.5278130   -0.4270720 
H     3.9297095   -5.7236287   -1.2752346 
H    -2.9797049    3.6278135    1.2134411 
H     2.1759286   -3.4275119    4.5582629 
H     3.7666995    0.6015779   -4.2369903 
H     0.9311978   -5.9169937    1.8417689 
H    -1.9146765    5.5118460    2.4710674 
H     2.1679834   -2.2289906    6.7593382 
H     5.7248418    0.5282882   -2.6837808 
H     2.8899019   -6.9301955    0.6545667 
