121
Energy =
C    -3.0218255    0.9599009    0.9279470 
C    -2.6178529    0.2277751    2.0809553 
C    -1.4219922    0.5220274    2.7724620 
H    -3.2026784   -0.6473381    2.3892529 
Pd   -1.0423584   -0.0676478    0.5676798 
P     0.8441973   -1.4559893    0.9929279 
P    -1.3011550   -0.0215629   -1.7889362 
H    -2.6902646    2.0040369    0.8642147 
H    -0.9743375    1.5143533    2.6075494 
C    -6.6674276    0.1246169   -1.1998961 
C    -6.0610379   -0.8838317   -0.4322574 
C    -4.8577696   -0.6353749    0.2324379 
C    -4.2428605    0.6379644    0.1662001 
C    -4.8521015    1.6348468   -0.6291835 
C    -6.0519005    1.3803236   -1.3053911 
H    -7.6103397   -0.0725008   -1.7202499 
H    -6.5224152   -1.8739460   -0.3647096 
H    -4.3860389   -1.4445518    0.7992962 
H    -4.3855337    2.6222284   -0.7045031 
H    -6.5126734    2.1703424   -1.9074362 
C    -0.2174055   -1.3073956    6.4696800 
C     0.2675122   -0.0447331    6.0996842 
C    -0.1072962    0.5205088    4.8761863 
C    -0.9879491   -0.1569735    4.0028772 
C    -1.4596743   -1.4351377    4.3852103 
C    -1.0769117   -2.0029266    5.6033686 
H     0.0763458   -1.7514048    7.4263279 
H     0.9447773    0.5007099    6.7642212 
H     0.2734244    1.5078756    4.5934246 
H    -2.1286368   -1.9955863    3.7266590 
H    -1.4523827   -2.9933355    5.8805025 
N     2.7082220    1.8483450   -1.5120511 
N     3.6474184    1.6410279    1.1385430 
C     2.7335324    3.0515009   -0.6704981 
C     3.8078117    2.9218150    0.4242043 
C     2.9507416    4.3297531   -1.5004857 
C     3.8094584    4.1770474    1.3247388 
C     2.9540982    5.5819979   -0.6095909 
C     4.0094494    5.4625687    0.5027247 
C     1.3643471    1.5112023   -1.9303674 
C     2.3351964    1.3508909    1.7319934 
C     1.2622697    0.3510481   -2.8923209 
C     2.4414539    0.1984005    2.7127740 
C     0.0800690   -0.4337065   -2.9434686 
C     1.8305937   -1.0685878    2.5201122 
C     2.2915481    0.0924747   -3.8115833 
C     3.2054768    0.4118116    3.8780373 
C    -0.0589800   -1.4309567   -3.9298683 
C     1.9661692   -2.0524024    3.5234645 
C     2.1478059   -0.9016662   -4.7883865 
C     3.3722315   -0.5853600    4.8432145 
C     0.9693061   -1.6584464   -4.8539145 
C     2.7345792   -1.8197033    4.6689460 
C    -2.6248108   -1.2156010   -2.2323395 
C    -1.7813665    1.6264513   -2.4730976 
C     0.1517730   -3.1467152    1.2840846 
C     2.1233304   -1.8260424   -0.2835581 
C    -3.7686511   -0.8938757   -2.9847507 
C    -1.7407118    2.7816433   -1.6708000 
C     0.9885987   -4.2845385    1.3132428 
C     1.7647355   -2.6679125   -1.3593164 
C    -2.4613411   -2.5345005   -1.7536098 
C    -2.0539088    1.7598172   -3.8516072 
C    -1.2369172   -3.3163826    1.4401814 
C     3.4425692   -1.3427932   -0.1992904 
C    -4.7185779   -1.8847672   -3.2734267 
C    -2.0190095    4.0417616   -2.2181272 
C     0.4403599   -5.5574818    1.5146831 
C     2.7162865   -3.0370277   -2.3149930 
C    -3.4117221   -3.5196638   -2.0446969 
C    -2.3469918    3.0175663   -4.3951649 
C    -1.7856093   -4.5921850    1.6354010 
C     4.3848252   -1.6943725   -1.1783446 
C    -4.5424152   -3.1964993   -2.8120846 
C    -2.3378185    4.1595557   -3.5789637 
C    -0.9461489   -5.7142093    1.6775967 
C     4.0292923   -2.5478854   -2.2298472 
H     1.7542103    3.1678963   -0.1428072 
H     4.7915985    2.8586796   -0.0819673 
H     3.9133190    4.2327186   -2.0367338 
H     2.1629954    4.4023269   -2.2726900 
H     2.8481296    4.2364275    1.8726167 
H     4.6063931    4.0764702    2.0855269 
H     3.1381679    6.4841810   -1.2193751 
H     1.9525232    5.7094600   -0.1516684 
H     3.9789944    6.3456322    1.1656195 
H     5.0180754    5.4452557    0.0455571 
H     3.1277439    1.0663215   -0.9952501 
H     4.3842360    1.5401023    1.8420944 
H     0.6894543    1.3065427   -1.0537616 
H     0.9190247    2.3985977   -2.4222079 
H     1.8906166    2.2222171    2.2671160 
H     1.6245111    1.0938214    0.9226982 
H     3.2008559    0.6978875   -3.7479406 
H     3.6682876    1.3943219    4.0333072 
H    -0.9742009   -2.0285838   -3.9808357 
H     1.4602943   -3.0144964    3.4167045 
H     2.9571206   -1.0828600   -5.5035076 
H     3.9730371   -0.3908984    5.7374502 
H     0.8485262   -2.4313042   -5.6201760 
H     2.8211873   -2.6030319    5.4283319 
H    -3.9406086    0.1303152   -3.3243178 
H    -1.4548325    2.6959681   -0.6178940 
H     2.0685045   -4.1732401    1.1699887 
H     0.7451011   -3.0570898   -1.4394766 
H    -1.5862980   -2.7899696   -1.1467217 
H    -2.0170051    0.8823856   -4.5060097 
H    -1.8905570   -2.4384686    1.3772233 
H     3.7459403   -0.6782157    0.6132484 
H    -5.6092877   -1.6207048   -3.8523942 
H    -1.9774165    4.9324373   -1.5824322 
H     1.0979695   -6.4326130    1.5380655 
H     2.4270281   -3.7004483   -3.1352289 
H    -3.2681150   -4.5379982   -1.6682441 
H    -2.5671380    3.1074679   -5.4639218 
H    -2.8690817   -4.7073324    1.7455512 
H     5.4052346   -1.3043004   -1.1040879 
H    -5.2888692   -3.9641662   -3.0411856 
H    -2.5577843    5.1423574   -4.0084312 
H    -1.3702641   -6.7124086    1.8281635 
H     4.7703717   -2.8323312   -2.9838872 
