121
Energy =
C    -0.2887662    0.0383764    3.2165300 
C    -1.5563484   -0.3734702    2.7085794 
C    -1.7789606   -1.6850564    2.2537045 
H    -2.3675489    0.3600461    2.6309995 
Pd   -0.0986014   -0.4702199    1.0129334 
P    -0.4974803   -1.4960157   -1.1278067 
P     2.1349150    0.2839096    0.8416849 
H     0.3586908   -0.7587261    3.6014087 
H    -0.9935838   -2.4294163    2.4492785 
C     0.4609307    3.7782701    5.2042767 
C     1.3893869    2.7275834    5.2707533 
C     1.1404353    1.5286330    4.5972218 
C    -0.0427621    1.3479904    3.8423941 
C    -0.9636316    2.4195880    3.7784486 
C    -0.7146927    3.6190878    4.4537360 
H     0.6521428    4.7167053    5.7346446 
H     2.3118663    2.8450256    5.8477529 
H     1.8684617    0.7114878    4.6506056 
H    -1.8878730    2.3176566    3.2004321 
H    -1.4448913    4.4334147    4.3993190 
C    -5.5314853   -3.4633959    1.1667017 
C    -4.3450816   -4.2103047    1.1350951 
C    -3.1315679   -3.6150844    1.4950781 
C    -3.0750110   -2.2545832    1.8760729 
C    -4.2859002   -1.5200628    1.9261964 
C    -5.4976413   -2.1186539    1.5760336 
H    -6.4830141   -3.9281145    0.8887977 
H    -4.3629185   -5.2622754    0.8327299 
H    -2.2100012   -4.2049413    1.4842177 
H    -4.2831432   -0.4732280    2.2472403 
H    -6.4246188   -1.5379681    1.6252035 
N     0.4839081    3.3075225   -0.5734665 
N    -0.3545546    1.0490226   -2.0103437 
C    -0.7197042    3.4522744   -1.4120263 
C    -1.3669289    2.0656372   -1.6682530 
C    -1.7831459    4.4436894   -0.8904398 
C    -2.5028399    2.2166833   -2.6927273 
C    -2.9653464    4.5678109   -1.8663902 
C    -3.5734440    3.1896795   -2.1741547 
C     0.2783603    2.9832468    0.8436218 
C    -0.0709182    0.7808900   -3.4101033 
C     1.6020974    3.0099963    1.5780119 
C     0.7020042   -0.5121711   -3.5656388 
C     2.5043566    1.9135551    1.6493885 
C     0.5950996   -1.5816565   -2.6383856 
C     1.9718243    4.2270241    2.1819493 
C     1.4767302   -0.6842729   -4.7265426 
C     3.7157634    2.0709411    2.3554102 
C     1.2779989   -2.7873436   -2.9201397 
C     3.1910009    4.3819745    2.8506825 
C     2.1328554   -1.8889701   -5.0005433 
C     4.0644133    3.2925348    2.9432372 
C     2.0345103   -2.9457159   -4.0871401 
C     3.2451539   -0.9409473    1.6851846 
C     2.9694312    0.4241099   -0.7989770 
C    -0.5325666   -3.3077447   -0.6712363 
C    -2.1814346   -1.2459730   -1.8283844 
C     2.7107664   -1.8948152    2.5731475 
C     3.4171458   -0.7534493   -1.4363803 
C     0.4158178   -3.7623269    0.2701520 
C    -2.4984394   -1.6342695   -3.1474173 
C     4.6379448   -0.9526005    1.4399032 
C     3.2216689    1.6716154   -1.4014185 
C    -1.4357423   -4.2363752   -1.2244538 
C    -3.1836582   -0.6791005   -1.0216427 
C     3.5397243   -2.8251690    3.2168695 
C     4.1357901   -0.6769399   -2.6341285 
C     0.4613714   -5.1096258    0.6543665 
C    -3.8007776   -1.4594980   -3.6391151 
C     5.4657742   -1.8793260    2.0864511 
C     3.9132222    1.7388720   -2.6199501 
C    -1.3884005   -5.5863889   -0.8433231 
C    -4.4871088   -0.5195973   -1.5092704 
C     4.9207014   -2.8161466    2.9784352 
C     4.3808870    0.5683422   -3.2324865 
C    -0.4449605   -6.0266907    0.0971654 
C    -4.7989367   -0.9081622   -2.8205120 
H    -0.3478713    3.8244466   -2.3869194 
H    -1.8276138    1.7330212   -0.7133526 
H    -2.1614426    4.0893948    0.0883183 
H    -1.3141548    5.4298341   -0.7138321 
H    -2.0928200    2.6116447   -3.6423315 
H    -2.9503331    1.2344526   -2.9143510 
H    -3.7305252    5.2481386   -1.4518935 
H    -2.6122937    5.0272972   -2.8102745 
H    -4.3852592    3.2826181   -2.9169500 
H    -4.0313957    2.7696882   -1.2566675 
H     1.0506563    4.1585520   -0.6420589 
H     0.5149273    1.3341482   -1.5370943 
H    -0.4114012    3.6805507    1.3595947 
H    -0.1768696    1.9716623    0.9096495 
H    -1.0293002    0.6555985   -3.9458013 
H     0.4765590    1.5999507   -3.9241543 
H     1.2686104    5.0663216    2.1358088 
H     1.5574282    0.1510593   -5.4314376 
H     4.4010063    1.2266448    2.4593790 
H     1.2113632   -3.6264280   -2.2242734 
H     3.4466839    5.3413341    3.3117763 
H     2.7227674   -1.9974902   -5.9165619 
H     5.0150328    3.3839852    3.4785295 
H     2.5441682   -3.8960218   -4.2765612 
H     1.6316558   -1.9245417    2.7460994 
H     3.2306766   -1.7313396   -0.9816619 
H     1.1326089   -3.0514461    0.6991899 
H    -1.7275754   -2.0716065   -3.7913130 
H     5.0763236   -0.2433355    0.7307393 
H     2.8764292    2.5874868   -0.9185127 
H    -2.1893970   -3.9078596   -1.9456811 
H    -2.9318096   -0.3533964   -0.0093283 
H     3.1014828   -3.5599913    3.9003106 
H     4.4946643   -1.5956042   -3.1065184 
H     1.2067205   -5.4425518    1.3847150 
H    -4.0360591   -1.7595726   -4.6656732 
H     6.5423724   -1.8722157    1.8869604 
H     4.1054655    2.7148865   -3.0779474 
H    -2.1006809   -6.2956610   -1.2782166 
H    -5.2573321   -0.0849386   -0.8644676 
H     5.5705848   -3.5418385    3.4781510 
H     4.9377052    0.6240378   -4.1735539 
H    -0.4153379   -7.0798743    0.3953515 
H    -5.8151411   -0.7774450   -3.2064330 
