121
Energy =
C    -2.3509439    1.3798650    0.2862929 
C    -2.4810912    0.5250223    1.4023771 
C    -1.4710723    0.4830235    2.4012423 
H    -3.3435869   -0.1501970    1.4749567 
Pd   -0.6268164   -0.1489781    0.3818449 
P     1.3236974   -1.1486098    1.2980924 
P    -0.7445286   -0.7930943   -1.9049155 
H    -1.6017104    2.1794852    0.3746660 
H    -0.8300139    1.3702465    2.5224805 
C    -5.4503764    2.3171312   -2.5289102 
C    -4.3917932    3.2076974   -2.2968278 
C    -3.3656975    2.8609274   -1.4120489 
C    -3.3880691    1.6265305   -0.7227081 
C    -4.4556644    0.7332374   -0.9759461 
C    -5.4719726    1.0747775   -1.8726985 
H    -6.2540865    2.5860988   -3.2221666 
H    -4.3614103    4.1726376   -2.8126009 
H    -2.5383039    3.5569662   -1.2377125 
H    -4.4926291   -0.2362997   -0.4722626 
H    -6.2904881    0.3712034   -2.0568352 
C    -1.9084626   -2.0045487    5.8818185 
C    -2.3043415   -2.4940260    4.6256037 
C    -2.1550807   -1.6986750    3.4854103 
C    -1.5924407   -0.4044435    3.5722278 
C    -1.1911974    0.0700004    4.8392745 
C    -1.3570509   -0.7191027    5.9836486 
H    -2.0293610   -2.6250066    6.7758448 
H    -2.7319064   -3.4984093    4.5378295 
H    -2.4690852   -2.0868766    2.5100396 
H    -0.7519391    1.0690314    4.9210065 
H    -1.0443913   -0.3313905    6.9585409 
N     1.1434983    2.0024144   -1.0698217 
N     1.2015591    2.1534377    1.7382143 
C     0.8475858    3.3092554   -0.4445884 
C     1.5400253    3.3443986    0.9402990 
C     1.2643644    4.5567477   -1.2523276 
C     1.1849693    4.6372079    1.6967189 
C     0.9204380    5.8547452   -0.5017082 
C     1.5674259    5.8871720    0.8910283 
C     1.0569270    1.8573736   -2.5305678 
C     2.2783382    1.7511435    2.6515741 
C    -0.3326202    1.7500347   -3.1495448 
C     1.9993507    0.5406987    3.5368477 
C    -1.1877574    0.6175234   -3.0137673 
C     1.6323466   -0.7615796    3.0806318 
C    -0.7339196    2.7793915   -4.0227808 
C     2.2423827    0.7021870    4.9158399 
C    -2.4008869    0.5755153   -3.7298808 
C     1.4979291   -1.8139649    4.0096534 
C    -1.9336269    2.7226556   -4.7437050 
C     2.1339304   -0.3551985    5.8280227 
C    -2.7721164    1.6142930   -4.5929033 
C     1.7506082   -1.6203046    5.3728179 
C     0.5810266   -1.6892510   -2.8355308 
C    -2.0992261   -2.0415576   -2.0693559 
C     1.2368182   -2.9868016    1.2042819 
C     2.9662284   -0.7648205    0.5455687 
C     1.0575230   -2.8982538   -2.2839886 
C    -2.3190124   -2.7242973   -3.2853407 
C    -0.0356669   -3.5902523    1.1548505 
C     3.0604538   -0.5508347   -0.8414784 
C     1.1124174   -1.2328596   -4.0579050 
C    -2.8743451   -2.3804767   -0.9452284 
C     2.3890561   -3.7930663    1.1149703 
C     4.1463658   -0.7519283    1.3212262 
C     2.0724642   -3.6165070   -2.9249836 
C    -3.3167416   -3.7034346   -3.3729732 
C    -0.1596264   -4.9788270    1.0196963 
C     4.3008935   -0.3156841   -1.4490174 
C     2.1344649   -1.9556064   -4.6946285 
C    -3.8680674   -3.3660381   -1.0310115 
C     2.2617965   -5.1824959    0.9754492 
C     5.3872790   -0.5141564    0.7122271 
C     2.6227176   -3.1407847   -4.1264995 
C    -4.0935746   -4.0254140   -2.2477923 
C     0.9909021   -5.7771450    0.9262946 
C     5.4682601   -0.2924909   -0.6711539 
H    -0.2492851    3.3682352   -0.2896060 
H     2.6388039    3.3618104    0.7269429 
H     2.3533634    4.5116902   -1.4530839 
H     0.7563239    4.5546012   -2.2319775 
H     0.0973461    4.6261145    1.9010216 
H     1.6911399    4.6395967    2.6786213 
H     1.2364785    6.7279932   -1.0993975 
H    -0.1802155    5.9275787   -0.3950916 
H     1.2662712    6.7989023    1.4363739 
H     2.6687749    5.9321762    0.7825704 
H     2.0977746    1.7302927   -0.8077275 
H     1.0083892    1.3875289    1.0739752 
H     1.5909507    2.6688780   -3.0650910 
H     1.6113363    0.9332709   -2.7661765 
H     3.2303868    1.5675632    2.0985491 
H     2.4821273    2.6032558    3.3212478 
H    -0.0677685    3.6393016   -4.1583099 
H     2.5360587    1.6933753    5.2798394 
H    -3.0719201   -0.2788831   -3.6122944 
H     1.1953792   -2.8050896    3.6604730 
H    -2.2069337    3.5408751   -5.4177353 
H     2.3375263   -0.1831787    6.8898648 
H    -3.7199864    1.5522572   -5.1359972 
H     1.6386477   -2.4566608    6.0695680 
H     0.6338134   -3.2771430   -1.3498203 
H    -1.7030388   -2.4945272   -4.1614918 
H    -0.9267245   -2.9580018    1.1952451 
H     2.1557251   -0.5846552   -1.4488768 
H     0.7216608   -0.3220372   -4.5234563 
H    -2.6792005   -1.8681366    0.0037761 
H     3.3838730   -3.3376970    1.1364206 
H     4.0964651   -0.9264191    2.4010915 
H     2.4352899   -4.5487469   -2.4802291 
H    -3.4830196   -4.2245413   -4.3215066 
H    -1.1544330   -5.4333140    0.9709195 
H     4.3497481   -0.1593632   -2.5316887 
H     2.5416784   -1.5918970   -5.6439455 
H    -4.4623099   -3.6203407   -0.1467646 
H     3.1608911   -5.8029501    0.8991988 
H     6.2950991   -0.5030537    1.3244089 
H     3.4216640   -3.6996402   -4.6246960 
H    -4.8673298   -4.7969237   -2.3192107 
H     0.8981210   -6.8619430    0.8095822 
H     6.4397132   -0.1065415   -1.1408095 
