121
Energy =
C    -0.0457857   -0.1288981    3.3754013 
C    -1.3512951   -0.3875030    2.8766294 
C    -1.7415036   -1.6560787    2.4044236 
H    -2.0470946    0.4540022    2.7740217 
Pd    0.0393194   -0.7114276    1.1644960 
P    -0.4114941   -1.7674702   -0.9443380 
P     2.1899365    0.1434902    0.7018399 
H     0.5391036   -0.9930467    3.7237105 
H    -1.0969595   -2.5075364    2.6647527 
C     1.0389069    3.5698147    5.2815622 
C     0.0105913    3.5574593    4.3245788 
C    -0.3430105    2.3682601    3.6797351 
C     0.3311478    1.1595148    3.9807896 
C     1.3563856    1.1862884    4.9531424 
C     1.7094009    2.3781367    5.5943828 
H     1.3127959    4.5037601    5.7832757 
H    -0.5164332    4.4843563    4.0739370 
H    -1.1134421    2.3863828    2.9007253 
H     1.8699045    0.2568543    5.2155629 
H     2.5088362    2.3750124    6.3419615 
C    -5.7428197   -2.7249206    1.2430724 
C    -4.6621138   -3.5606877    0.9210341 
C    -3.3649383   -3.2116699    1.3074182 
C    -3.1146529   -2.0063411    2.0039839 
C    -4.2154026   -1.1787868    2.3296917 
C    -5.5147494   -1.5385807    1.9578013 
H    -6.7597769   -3.0011045    0.9462324 
H    -4.8307760   -4.4881374    0.3647898 
H    -2.5287795   -3.8659843    1.0442681 
H    -4.0601114   -0.2589463    2.9022518 
H    -6.3553916   -0.8927311    2.2319863 
N    -0.7639319    2.4147384    0.3759018 
N    -0.8494524    1.3481468   -2.1807916 
C    -1.4442604    3.1844560   -0.6839722 
C    -1.9369480    2.2753927   -1.8327021 
C    -2.6013191    4.0348613   -0.1343187 
C    -2.4994029    3.1551357   -2.9689677 
C    -3.2236853    4.8937152   -1.2484487 
C    -3.6537012    4.0324321   -2.4486360 
C     0.5973368    2.8838823    0.7069253 
C    -1.0300853    0.4962420   -3.3552685 
C     1.5839156    2.6683142   -0.4317220 
C     0.1709649   -0.4239630   -3.4759643 
C     2.2270520    1.4138699   -0.6360740 
C     0.5518951   -1.3732466   -2.4862390 
C     1.7533517    3.6696989   -1.4101933 
C     1.0022188   -0.2596739   -4.6007470 
C     2.8860232    1.1598714   -1.8543168 
C     1.7602994   -2.0859553   -2.6585341 
C     2.4413654    3.4211382   -2.6072794 
C     2.1903012   -0.9824224   -4.7667772 
C     2.9756573    2.1489957   -2.8439165 
C     2.5770531   -1.8958138   -3.7797178 
C     3.2021567    0.8663822    2.0785619 
C     3.3652247   -1.1937875    0.2198765 
C    -0.1611694   -3.6093830   -0.8271920 
C    -2.1943421   -1.6369759   -1.4016682 
C     3.6881885   -0.0411953    3.0451830 
C     2.9929819   -2.5335366    0.4240143 
C    -0.1243373   -4.4431635   -1.9669493 
C    -2.9935613   -0.6864192   -0.7429230 
C     3.5655651    2.2223465    2.1696266 
C     4.6796810   -0.9019185   -0.2051961 
C    -0.0330764   -4.2079272    0.4415284 
C    -2.7739093   -2.4517806   -2.3960480 
C     4.5330458    0.3981181    4.0707409 
C     3.8913635   -3.5767165    0.1553038 
C     0.0090428   -5.8313156   -1.8318813 
C    -4.3437743   -0.5323393   -1.0846100 
C     4.3965794    2.6612112    3.2116922 
C     5.5720770   -1.9436383   -0.4858703 
C     0.1043227   -5.5966611    0.5793568 
C    -4.1241309   -2.2982444   -2.7345218 
C     4.8871780    1.7532922    4.1591155 
C     5.1783972   -3.2821994   -0.3147878 
C     0.1194625   -6.4135920   -0.5596859 
C    -4.9110431   -1.3358897   -2.0823568 
H    -0.7207371    3.8840114   -1.1534632 
H    -2.7746371    1.6560684   -1.4609084 
H    -3.3594630    3.3577683    0.3052493 
H    -2.2260434    4.6693954    0.6892117 
H    -1.6870709    3.7899552   -3.3764513 
H    -2.8594832    2.5199482   -3.7982820 
H    -4.0845123    5.4650125   -0.8576635 
H    -2.4784280    5.6407306   -1.5865403 
H    -4.0415483    4.6711117   -3.2620999 
H    -4.4896016    3.3726306   -2.1418427 
H    -0.6767428    1.4409045    0.0434632 
H     0.0295452    1.8686959   -2.2848072 
H     0.5465410    3.9519768    0.9799611 
H     0.9227544    2.3499076    1.6149354 
H    -1.9685625   -0.0700622   -3.2367189 
H    -1.1229242    1.0656767   -4.3036721 
H     1.3283611    4.6629754   -1.2286143 
H     0.7048984    0.4719487   -5.3604208 
H     3.3261164    0.1790796   -2.0471229 
H     2.0712305   -2.8169382   -1.9094144 
H     2.5455250    4.2151356   -3.3539007 
H     2.8099811   -0.8245581   -5.6555513 
H     3.4807892    1.9211953   -3.7875292 
H     3.5063263   -2.4668228   -3.8731639 
H     3.4237246   -1.1030022    2.9813039 
H     1.9882691   -2.7595920    0.7904025 
H    -0.1728705   -4.0082449   -2.9700887 
H    -2.5494457   -0.0598238    0.0368320 
H     3.2318616    2.9396765    1.4148389 
H     5.0090975    0.1374694   -0.3051662 
H    -0.0278426   -3.5735855    1.3336028 
H    -2.1761980   -3.2026785   -2.9181410 
H     4.9137039   -0.3203852    4.8042407 
H     3.5775076   -4.6141334    0.3106385 
H     0.0338493   -6.4604271   -2.7277515 
H    -4.9525682    0.2109530   -0.5611276 
H     4.6704321    3.7196314    3.2701829 
H     6.5861605   -1.7101423   -0.8265581 
H     0.2036215   -6.0364290    1.5771722 
H    -4.5624161   -2.9321616   -3.5122989 
H     5.5465405    2.0984490    4.9620780 
H     5.8834386   -4.0913936   -0.5318861 
H     0.2274719   -7.4984116   -0.4586191 
H    -5.9670205   -1.2194790   -2.3469791 
