121
Energy =
C    -0.2468752    0.2157790    3.1155684 
C    -1.4950227   -0.3590427    2.7117689 
C    -1.6285516   -1.7168329    2.3790176 
H    -2.3702779    0.2956661    2.6183128 
Pd   -0.0831376   -0.4455153    0.9901842 
P    -0.5749041   -1.5280637   -1.1170718 
P     2.1201578    0.4076845    0.7214274 
H     0.4763745   -0.4537597    3.5998644 
H    -0.7773612   -2.3809534    2.5865116 
C     0.0806034    4.3096432    4.4154034 
C     0.9759491    3.3349557    4.8815801 
C     0.8712766    2.0116833    4.4401615 
C    -0.1393708    1.6274206    3.5302766 
C    -1.0404588    2.6201795    3.0765994 
C    -0.9287619    3.9462542    3.5093643 
H     0.1655637    5.3457433    4.7584256 
H     1.7655820    3.6083672    5.5881071 
H     1.5761076    1.2585971    4.8066220 
H    -1.8437248    2.3513219    2.3812052 
H    -1.6360507    4.6976060    3.1427098 
C    -5.2650422   -3.8462968    1.5628333 
C    -4.0264727   -4.5031354    1.5399228 
C    -2.8504851   -3.7932389    1.8036699 
C    -2.8862540   -2.4079917    2.0862544 
C    -4.1484299   -1.7636524    2.1264972 
C    -5.3211199   -2.4742224    1.8652989 
H    -6.1867941   -4.4006192    1.3583116 
H    -3.9730184   -5.5730685    1.3153272 
H    -1.8859138   -4.3105382    1.7873310 
H    -4.2167405   -0.6992354    2.3739795 
H    -6.2874180   -1.9609617    1.9038804 
N     0.3485707    2.7194901    0.0415357 
N    -0.4430720    0.9547596   -1.9752450 
C    -0.6580215    3.1931077   -0.9315355 
C    -1.4022702    1.9496989   -1.4676628 
C    -1.6584826    4.2221441   -0.3586427 
C    -2.5085767    2.3245276   -2.4636406 
C    -2.7646452    4.5832734   -1.3619685 
C    -3.4970537    3.3220965   -1.8431535 
C     1.2236363    3.7502637    0.5708306 
C    -0.2788209    0.7415404   -3.4005512 
C     2.2920701    3.2381107    1.5246567 
C     0.4394559   -0.5691051   -3.6447823 
C     2.7172580    1.8904111    1.6965398 
C     0.4040924   -1.6331267   -2.7068150 
C     2.9032943    4.2442096    2.3016623 
C     1.1057940   -0.7480848   -4.8694486 
C     3.6839250    1.6255847    2.6992407 
C     1.0660036   -2.8385533   -3.0344726 
C     3.8958155    3.9700940    3.2438602 
C     1.7410898   -1.9530311   -5.1875244 
C     4.2734867    2.6405331    3.4582650 
C     1.7291604   -3.0002918   -4.2570376 
C     3.2157999   -0.9533354    1.3729624 
C     2.8459126    0.6104085   -0.9642873 
C    -0.5891150   -3.3386967   -0.6601493 
C    -2.3007427   -1.2604958   -1.7091746 
C     2.6924910   -1.9166180    2.2565756 
C     3.1230239    1.8697215   -1.5304942 
C    -1.5431219   -4.2585867   -1.1364739 
C    -2.6973855   -1.6017142   -3.0200725 
C     4.5824290   -1.0317591    1.0203115 
C     3.1781456   -0.5532205   -1.6919515 
C     0.4442208   -3.8053395    0.1797459 
C    -3.2499741   -0.7021565   -0.8339524 
C     3.5009947   -2.9429850    2.7683208 
C     3.7169444    1.9630401   -2.7978525 
C    -1.4578901   -5.6147836   -0.7845631 
C    -4.0164886   -1.3750895   -3.4402542 
C     5.3897075   -2.0558494    1.5304619 
C     3.8010812   -0.4557078   -2.9409850 
C     0.5287884   -5.1589980    0.5338489 
C    -4.5690137   -0.4834920   -1.2526219 
C     4.8517704   -3.0162417    2.4028895 
C     4.0638873    0.8020926   -3.5028251 
C    -0.4255083   -6.0691773    0.0497942 
C    -4.9551456   -0.8151878   -2.5594184 
H    -0.1012177    3.6563316   -1.7717617 
H    -1.9008389    1.4921560   -0.5828444 
H    -2.1206693    3.7845081    0.5478194 
H    -1.1240776    5.1317985   -0.0325228 
H    -2.0562792    2.7820024   -3.3643936 
H    -3.0372743    1.4109046   -2.7872062 
H    -3.4720229    5.2959059   -0.9016891 
H    -2.3171292    5.1011267   -2.2327739 
H    -4.2776819    3.5812691   -2.5796093 
H    -4.0135666    2.8420384   -0.9885942 
H    -0.1449586    2.2770681    0.8288231 
H     0.4631385    1.1399573   -1.5262714 
H     1.7079728    4.2600199   -0.2867042 
H     0.6691960    4.5436337    1.1153637 
H    -1.2770193    0.6692719   -3.8682385 
H     0.2616081    1.5605234   -3.9217621 
H     2.5687161    5.2785932    2.1614565 
H     1.1262984    0.0833690   -5.5832368 
H     3.9934162    0.5973039    2.8925503 
H     1.0571391   -3.6743303   -2.3313890 
H     4.3481454    4.7830323    3.8207427 
H     2.2506488   -2.0691397   -6.1496652 
H     5.0237474    2.3840375    4.2130599 
H     2.2290022   -3.9486462   -4.4793748 
H     1.6352134   -1.8682514    2.5368117 
H     2.9104656    2.7817109   -0.9728833 
H    -2.3623248   -3.9190188   -1.7771355 
H    -1.9746692   -2.0425194   -3.7150208 
H     5.0181264   -0.2851830    0.3490193 
H     2.9744404   -1.5418418   -1.2708569 
H     1.2001001   -3.1018577    0.5474035 
H    -2.9453358   -0.4343134    0.1807807 
H     3.0706880   -3.6846487    3.4495344 
H     3.9318019    2.9499315   -3.2210228 
H    -2.2091186   -6.3181779   -1.1592159 
H    -4.3114674   -1.6403781   -4.4609624 
H     6.4461197   -2.1031537    1.2462971 
H     4.0677394   -1.3687658   -3.4802629 
H     1.3420758   -5.5015892    1.1827722 
H    -5.2949262   -0.0530642   -0.5550443 
H     5.4862346   -3.8169361    2.7968374 
H     4.5439516    0.8762779   -4.4839990 
H    -0.3645429   -7.1278477    0.3229469 
H    -5.9838158   -0.6403628   -2.8910680 
