103
Energy =
C     0.1871691   -1.6125810    2.5350431 
C     0.7274478   -0.3390945    2.9217111 
C    -0.1434662    0.7453107    3.1346791 
H     1.8124867   -0.1847309    2.9478396 
Pd   -0.2786998   -0.0983000    0.9763137 
P     0.3136774    1.9434405   -0.2283374 
P    -1.7876411   -1.5915980   -0.2492998 
H    -0.7789718   -1.8914225    2.9698331 
H    -1.2184563    0.5180960    3.2069923 
C     2.6560571   -4.9138132    1.2966662 
C     3.0852264   -3.5948503    1.0718717 
C     2.2937164   -2.5177559    1.4811144 
C     1.0502724   -2.7339637    2.1237037 
C     0.6386468   -4.0677866    2.3542395 
C     1.4322106   -5.1460527    1.9438564 
H     3.2763765   -5.7562844    0.9745067 
H     4.0392262   -3.4080128    0.5681463 
H     2.6258902   -1.4945461    1.2733450 
H    -0.3040289   -4.2564819    2.8804684 
H     1.0994321   -6.1711041    2.1368353 
C     0.8841853    4.7678692    4.2111396 
C     1.8198464    3.7392506    4.4130851 
C     1.4949314    2.4172151    4.0902246 
C     0.2270448    2.1028555    3.5466587 
C    -0.7237934    3.1419195    3.3992882 
C    -0.3952071    4.4635175    3.7164552 
H     1.1438228    5.8014438    4.4615867 
H     2.8034042    3.9690193    4.8352274 
H     2.2200023    1.6205315    4.2831326 
H    -1.7224754    2.9009300    3.0173427 
H    -1.1363834    5.2582447    3.5842571 
C     0.7202063    1.5735280   -2.0118592 
C     1.7749849    2.7834348    0.5672462 
C    -2.4946647   -2.9290553    0.8577000 
C    -1.0571471   -2.5658697   -1.6542522 
C     1.9529452    0.6461618   -2.1900514 
C     0.9275817    2.7435039   -3.0378652 
C     2.4747516    3.9402724   -0.1948421 
C     2.9274466    1.8064778    0.9883843 
C    -3.5056250   -3.9110712    0.1673750 
C    -3.2553181   -2.3548445    2.0959536 
C     0.3617103   -3.0871186   -1.3533022 
C    -0.8789444   -1.7900684   -2.9792091 
C     2.3597552    0.8771928   -3.6540884 
C     2.2361873    2.4042721   -3.7901707 
C     3.8650205    3.9900267    0.4614454 
C     4.2400183    2.5003282    0.5495384 
C    -4.8620910   -3.6660099    0.8570382 
C    -4.4691733   -3.2847864    2.2916006 
C     0.8629312   -3.5531933   -2.7341223 
C     0.2086531   -2.5831478   -3.7607272 
C    -1.0014133    3.2949425   -0.3618079 
C    -3.3980397   -0.8706541   -0.9523927 
C    -2.0920893    2.6604164   -1.1917597 
C    -3.2094814    0.5073811   -1.5278559 
C    -2.6401507    1.4717835   -0.6869176 
C    -2.3527211    2.9990606   -2.5324788 
C    -3.4314776    0.8390656   -2.8770976 
C    -3.0609262    2.1069691   -3.3542860 
H    -0.1804876    1.0139442   -2.3236024 
H     1.3347952    3.2070684    1.4878295 
H    -1.6055169   -3.4926968    1.1850403 
H    -1.7311040   -3.4260997   -1.8285624 
H     1.7293633   -0.4038255   -1.9378775 
H     2.7845046    0.9716890   -1.5421596 
H     0.9555526    3.7437007   -2.5761519 
H     0.0762492    2.7456620   -3.7366181 
H     2.6002122    3.6919332   -1.2614412 
H     1.9145235    4.8882843   -0.1317030 
H     2.9088357    1.6828665    2.0822639 
H     2.8159646    0.7980014    0.5533677 
H    -3.5650409   -3.7934651   -0.9282997 
H    -3.1693031   -4.9470506    0.3490503 
H    -2.6197361   -2.3076850    2.9953360 
H    -3.5999087   -1.3197678    1.9047820 
H     0.3907718   -3.8782964   -0.5854478 
H     0.9780766   -2.2496071   -0.9748840 
H    -0.5303567   -0.7658990   -2.7627951 
H    -1.8232201   -1.6895981   -3.5385678 
H     1.6422817    0.3757886   -4.3313200 
H     3.3668911    0.4925408   -3.8883734 
H     3.1018342    2.8855316   -3.2962922 
H     2.2225469    2.7546957   -4.8356635 
H     3.7900189    4.4271023    1.4753055 
H     4.5905198    4.5917187   -0.1120673 
H     4.5463531    2.1411077   -0.4509652 
H     5.0761974    2.2955920    1.2389158 
H    -5.5286927   -4.5430352    0.8026334 
H    -5.3922727   -2.8231999    0.3748396 
H    -5.2836140   -2.8082873    2.8629600 
H    -4.1601505   -4.1898465    2.8478520 
H     0.5241061   -4.5880275   -2.9178047 
H     1.9643240   -3.5611426   -2.7936576 
H     0.9500759   -1.8946396   -4.1993385 
H    -0.2375591   -3.1414343   -4.6004479 
H    -1.3140648    3.5433264    0.6673564 
H    -0.5739488    4.1993917   -0.8255107 
H    -4.0996916   -0.8447045   -0.1001196 
H    -3.7973964   -1.5853592   -1.6914587 
H    -2.4804000    1.2233273    0.3708534 
H    -1.9644200    3.9357806   -2.9457235 
H    -3.8830542    0.1072644   -3.5558937 
H    -3.2689387    2.3770867   -4.3947612 
