103
Energy =
C     2.3001151   -0.1664102    1.3922515 
C     1.2821549   -0.6063544    2.2412931 
C     0.5215262   -1.8023466    1.9756784 
H     1.0654866   -0.0471996    3.1599407 
Pd   -0.1358465   -0.2839512    0.5492314 
P    -1.4783799   -1.9596872   -0.6397057 
P    -0.2364085    2.0305263   -0.3165076 
H     2.5507218   -0.8025956    0.5319474 
H     1.0290204   -2.5890923    1.3991976 
C     5.0954530    3.0152896    2.0580844 
C     5.1654946    2.2312052    0.8958677 
C     4.2490857    1.1940431    0.6979101 
C     3.2329355    0.9258167    1.6501684 
C     3.1986737    1.7078438    2.8335884 
C     4.1166711    2.7408677    3.0302421 
H     5.8118180    3.8277984    2.2165778 
H     5.9404075    2.4251165    0.1475233 
H     4.3134468    0.5748015   -0.2029936 
H     2.4529079    1.5034768    3.6068961 
H     4.0757941    3.3354979    3.9482715 
C    -2.1375346   -3.2039427    5.0612119 
C    -2.1500655   -1.8494118    4.6868982 
C    -1.2945558   -1.3913641    3.6794649 
C    -0.4160214   -2.2816061    3.0168346 
C    -0.4124178   -3.6393085    3.4055527 
C    -1.2622739   -4.0947847    4.4217685 
H    -2.8062299   -3.5619244    5.8504916 
H    -2.8334433   -1.1508839    5.1806161 
H    -1.3241061   -0.3374044    3.3765368 
H     0.2737817   -4.3389961    2.9149017 
H    -1.2412812   -5.1490450    4.7161700 
C    -1.8591192   -3.5795452    0.2167148 
C    -0.3907664   -2.4950079   -2.0588807 
C     0.5771896    2.1709512   -1.9831135 
C     0.6791607    3.1418890    0.8600323 
C    -2.1790113   -4.7887683   -0.7175191 
C    -3.0349088   -3.5524233    1.2221511 
C     1.0220208   -2.9498457   -1.6398256 
C    -0.1098547   -1.4006906   -3.1153222 
C     2.0324060    1.6407321   -1.9549780 
C     0.6468655    3.5605087   -2.7018401 
C     0.0573707    3.1074457    2.2818731 
C     0.8347351    4.6511300    0.5734843 
C    -3.1429310   -5.7016207    0.1011978 
C    -3.2552997   -5.0485404    1.4961747 
C     1.7625764   -3.0305071   -2.9876069 
C     1.2197215   -1.8283108   -3.8072062 
C     2.6839297    2.3045461   -3.1777457 
C     2.1311686    3.7393023   -3.1052905 
C     0.6268324    4.3635146    3.0059421 
C     1.3760520    5.1784353    1.9177748 
C    -3.1430992   -1.6328187   -1.4883228 
C    -1.8764430    2.9300522   -0.5961969 
C    -3.2020726   -0.2431182   -2.0561964 
C    -2.6222816    2.0852632   -1.5926869 
C    -2.9526733    0.7971042   -1.1563892 
C    -3.3238871    0.0622288   -3.4241857 
C    -2.7495856    2.3880456   -2.9608916 
C    -3.1482380    1.3854780   -3.8609463 
H    -0.9451595   -3.8190069    0.7878910 
H    -0.9099855   -3.3443400   -2.5409836 
H    -0.0375296    1.4946838   -2.6039123 
H     1.6936770    2.7084591    0.9167974 
H    -1.2528175   -5.3099748   -1.0121188 
H    -2.6693472   -4.4644202   -1.6520194 
H    -3.9424609   -3.1292055    0.7519119 
H    -2.8204973   -2.9615223    2.1253207 
H     1.4752293   -2.1642707   -1.0021433 
H     1.0332975   -3.8960023   -1.0710545 
H    -0.9442114   -1.2794751   -3.8227474 
H     0.0132276   -0.4314082   -2.6023268 
H     2.5454802    1.9918010   -1.0422055 
H     2.0773680    0.5376081   -1.9525260 
H     0.0015226    3.5290824   -3.5955399 
H     0.2845569    4.3970840   -2.0839181 
H     0.2848757    2.1629353    2.8035853 
H    -1.0440373    3.1723228    2.2186202 
H    -0.1449499    5.1119228    0.3465787 
H     1.5135113    4.8637824   -0.2679409 
H    -2.7837298   -6.7426744    0.1524389 
H    -4.1336197   -5.7279448   -0.3848373 
H    -4.2159145   -5.2571885    1.9962680 
H    -2.4522848   -5.4150652    2.1606672 
H     1.5043073   -3.9815580   -3.4865091 
H     2.8594145   -3.0138247   -2.8714161 
H     1.9384883   -0.9907400   -3.8096796 
H     1.0562519   -2.1046277   -4.8618122 
H     2.3428048    1.8065246   -4.1054853 
H     3.7865390    2.2583482   -3.1596346 
H     2.6734108    4.2969668   -2.3183832 
H     2.2488102    4.3045666   -4.0447262 
H     1.3035161    4.0828147    3.8305125 
H    -0.1912311    4.9524429    3.4533310 
H     1.2437000    6.2675082    2.0298047 
H     2.4598782    4.9712745    1.9707133 
H    -3.2887355   -2.4135903   -2.2543068 
H    -3.9105956   -1.7765095   -0.7082030 
H    -1.6691570    3.9510184   -0.9559867 
H    -2.3983848    2.9963349    0.3741738 
H    -2.8741077    0.5670044   -0.0872315 
H    -3.5369028   -0.7319012   -4.1485358 
H    -2.5133681    3.3932168   -3.3261387 
H    -3.2676271    1.6261425   -4.9224025 
