103
Energy =
C     1.9200909   -0.3377596    2.1975687 
C     0.7375808   -0.4639830    2.9441218 
C    -0.1286015   -1.5909661    2.7053027 
H     0.4308478    0.3271283    3.6396993 
Pd   -0.0649765   -0.3674216    0.8882770 
P    -1.3277903   -2.0617130   -0.3246197 
P     0.0770048    1.7844848   -0.2757619 
H     2.2135653   -1.2038610    1.5847221 
H     0.3618051   -2.5468309    2.4847012 
C     4.9400769    2.6961956    2.4360012 
C     4.9180622    1.7882773    1.3641459 
C     3.9393007    0.7914609    1.3153341 
C     2.9474370    0.6969860    2.3227989 
C     3.0026037    1.5982574    3.4129921 
C     3.9898067    2.5872589    3.4656324 
H     5.7086015    3.4745096    2.4806457 
H     5.6693311    1.8557653    0.5708625 
H     3.9190814    0.0842018    0.4794183 
H     2.2839802    1.5111950    4.2336272 
H     4.0267226    3.2727489    4.3181754 
C    -4.0760216   -1.9014632    4.4024028 
C    -3.5818993   -0.6491582    3.9997412 
C    -2.2923264   -0.5396826    3.4692936 
C    -1.4701120   -1.6831489    3.3193503 
C    -1.9770110   -2.9335060    3.7425118 
C    -3.2665010   -3.0411382    4.2790490 
H    -5.0856047   -1.9861429    4.8170198 
H    -4.2073106    0.2441170    4.0979011 
H    -1.9214902    0.4401267    3.1439258 
H    -1.3430605   -3.8244490    3.6660918 
H    -3.6391253   -4.0169997    4.6070686 
C    -1.2215408   -3.7788354    0.4058089 
C    -0.6825176   -2.2792966   -2.0667391 
C     0.8293587    1.7514202   -1.9786724 
C     1.0564222    3.0247729    0.7114718 
C     0.2310134   -4.3387342    0.5508046 
C    -2.0236135   -4.8756339   -0.3669830 
C     0.8591476   -2.1616995   -2.1327481 
C    -1.1654133   -1.2514814   -3.1194041 
C     2.3518301    1.4620209   -1.9813157 
C     0.6329889    2.9787537   -2.9257642 
C     0.4395661    3.3309898    2.1016097 
C     1.3351813    4.4265686    0.1251622 
C     0.2963938   -5.5427622   -0.4079690 
C    -1.1228590   -6.1267046   -0.3233202 
C     1.1430275   -2.0224586   -3.6400400 
C    -0.0553751   -1.2179300   -4.2101895 
C     2.7619459    1.8444194   -3.4132418 
C     1.9934527    3.1575666   -3.6563431 
C     1.0994740    4.6687350    2.5522973 
C     1.9327786    5.1613839    1.3406896 
C    -3.2081219   -1.8428338   -0.3930463 
C    -1.5695303    2.6941409   -0.4963220 
C    -3.5037676   -0.4916675   -0.9945024 
C    -2.6106534    1.7835033   -1.0898473 
C    -2.8772950    0.6029807   -0.3863858 
C    -4.1282100   -0.2955678   -2.2400177 
C    -3.1950700    1.9557996   -2.3584646 
C    -4.0108869    0.9428221   -2.8916364 
H    -1.6703506   -3.6436352    1.4033765 
H    -0.9789017   -3.2939645   -2.3929243 
H     0.3312527    0.8847446   -2.4423470 
H     2.0330133    2.5347949    0.8759196 
H     0.3783950   -4.6914439    1.5881999 
H     1.0121694   -3.5814381    0.3604968 
H    -2.1889837   -4.5846981   -1.4213038 
H    -3.0188499   -5.0402325    0.0778432 
H     1.1716070   -1.2520035   -1.5819679 
H     1.3872495   -3.0161968   -1.6797890 
H    -2.1491473   -1.5219139   -3.5294697 
H    -1.2867003   -0.2576435   -2.6528444 
H     2.8792853    2.1106965   -1.2576560 
H     2.5830303    0.4162962   -1.7159801 
H    -0.1885341    2.7668375   -3.6311283 
H     0.3535340    3.8978771   -2.3868432 
H     0.6114701    2.5060393    2.8100142 
H    -0.6545092    3.4591721    2.0255888 
H     0.3938903    4.9142266   -0.1915671 
H     2.0155778    4.4079470   -0.7420892 
H     1.0878510   -6.2614789   -0.1368373 
H     0.5003120   -5.2012119   -1.4410113 
H    -1.3539546   -6.8458155   -1.1273057 
H    -1.2519393   -6.6541106    0.6403669 
H     1.1804137   -3.0273342   -4.0966901 
H     2.1168015   -1.5432646   -3.8387552 
H     0.2297291   -0.1763121   -4.4388378 
H    -0.4126479   -1.6561555   -5.1565201 
H     2.4218603    1.0625289   -4.1180541 
H     3.8531469    1.9500586   -3.5374544 
H     2.5526316    3.9970937   -3.2043499 
H     1.8694967    3.3930008   -4.7262772 
H     1.7328682    4.5268729    3.4433223 
H     0.3237330    5.4041706    2.8243423 
H     1.9183898    6.2581379    1.2260805 
H     2.9874964    4.8538291    1.4590731 
H    -3.6608371   -2.6728532   -0.9604849 
H    -3.5312307   -1.9232657    0.6627887 
H    -1.3948031    3.5948439   -1.1063902 
H    -1.8640794    3.0239798    0.5154366 
H    -2.4458218    0.4743449    0.6152431 
H    -4.6555583   -1.1236609   -2.7266903 
H    -3.0114618    2.8726673   -2.9292983 
H    -4.4986878    1.0937107   -3.8601177 
