103
Energy =
C     2.0259836   -0.4326421    2.1088358 
C     0.8487607   -0.5349596    2.8662326 
C    -0.0566957   -1.6295664    2.6151555 
H     0.5772100    0.2535345    3.5790437 
Pd    0.0116167   -0.3699876    0.8275198 
P    -1.2896989   -2.0012599   -0.4212936 
P     0.1919147    1.8190831   -0.2639454 
H     2.2795546   -1.2896714    1.4662027 
H     0.4006899   -2.5962181    2.3688164 
C     5.1229016    2.5200381    2.3747134 
C     5.0471937    1.6584222    1.2674773 
C     4.0466300    0.6840774    1.2096669 
C     3.0868688    0.5662339    2.2452151 
C     3.2023519    1.4130942    3.3740956 
C     4.2086867    2.3827756    3.4331072 
H     5.9072352    3.2821829    2.4244102 
H     5.7725913    1.7456105    0.4523064 
H     3.9828903    0.0148475    0.3453443 
H     2.5178652    1.2933613    4.2195990 
H     4.2891118    3.0291096    4.3129551 
C    -3.9858574   -1.8656583    4.3670315 
C    -3.4622705   -0.6193528    3.9833246 
C    -2.1783770   -0.5350124    3.4350753 
C    -1.3910702   -1.6974300    3.2479150 
C    -1.9271946   -2.9417765    3.6528432 
C    -3.2110437   -3.0246459    4.2068739 
H    -4.9910061   -1.9307402    4.7957319 
H    -4.0602411    0.2889549    4.1103104 
H    -1.7842775    0.4405565    3.1253076 
H    -1.3204386   -3.8486490    3.5485852 
H    -3.6060950   -3.9965133    4.5201576 
C    -1.2327761   -3.7377208    0.2580660 
C    -0.6127362   -2.1965431   -2.1516024 
C     0.9400507    1.8552471   -1.9688322 
C     1.1536885    2.9834384    0.8283034 
C     0.1301866   -4.4613078    0.2339980 
C    -2.2028207   -4.7704556   -0.3837016 
C     0.9262199   -2.0305150   -2.1787028 
C    -1.0872079   -1.1698950   -3.2068042 
C     2.4606016    1.5710406   -1.9988662 
C     0.7960406    3.1074312   -2.8599840 
C     0.4563988    3.1214151    2.2281658 
C     1.3954655    4.4389118    0.3392601 
C    -0.2564031   -5.8780464    0.6905008 
C    -1.5735041   -6.1654020   -0.0724666 
C     1.2474496   -1.8924401   -3.6787502 
C     0.0276673   -1.1503237   -4.2919210 
C     2.8988615    1.9485021   -3.4432056 
C     1.7262801    2.7760119   -4.0470053 
C     0.3326141    4.6412938    2.4810951 
C     1.4748893    5.2450411    1.6477598 
C    -3.1624201   -1.7273660   -0.5134637 
C    -1.4324516    2.7788933   -0.4455569 
C    -3.4178876   -0.3498451   -1.0709146 
C    -2.4886525    1.9123865   -1.0774234 
C    -2.7789326    0.7112983   -0.4192290 
C    -4.0241126   -0.1010226   -2.3162392 
C    -3.0596260    2.1393963   -2.3432655 
C    -3.8821752    1.1574274   -2.9220944 
H    -1.5328691   -3.6105172    1.3132288 
H    -0.8775911   -3.2181972   -2.4876843 
H     0.4226127    1.0237693   -2.4813858 
H     2.1325567    2.4970205    0.9722923 
H     0.9011544   -3.9819135    0.8622822 
H     0.5238635   -4.5011532   -0.7982805 
H    -2.2773861   -4.6193866   -1.4762778 
H    -3.2211024   -4.6672658    0.0250476 
H     1.1864494   -1.1032487   -1.6298821 
H     1.4724829   -2.8560861   -1.6942803 
H    -2.0741897   -1.4264977   -3.6190163 
H    -1.1932890   -0.1745458   -2.7388492 
H     2.9760549    2.2139167   -1.2633078 
H     2.6977194    0.5264143   -1.7365351 
H    -0.2443052    3.2922532   -3.1745386 
H     1.1554869    4.0061293   -2.3303079 
H     1.0976613    2.6577454    2.9932252 
H    -0.5189168    2.6030109    2.2817612 
H     0.5441786    4.8108537   -0.2587530 
H     2.3001412    4.5208730   -0.2860824 
H    -0.4353958   -5.8743433    1.7820337 
H     0.5291945   -6.6256233    0.4904075 
H    -1.3616655   -6.7021846   -1.0127815 
H    -2.2568475   -6.8030682    0.5118221 
H     1.3488740   -2.8970699   -4.1257457 
H     2.2017342   -1.3669176   -3.8523682 
H     0.2800713   -0.1126365   -4.5688282 
H    -0.3108332   -1.6463062   -5.2165311 
H     3.0924782    1.0460812   -4.0469938 
H     3.8387009    2.5252474   -3.4255032 
H     2.0696652    3.6821857   -4.5728315 
H     1.1735350    2.1676382   -4.7845044 
H     0.3843511    4.8964104    3.5528970 
H    -0.6368911    5.0142949    2.1006711 
H     1.3777618    6.3327371    1.4903135 
H     2.4465525    5.0605410    2.1442013 
H    -3.6238574   -2.5226796   -1.1212487 
H    -3.5082375   -1.8395329    0.5322767 
H    -1.2349916    3.6978854   -1.0205366 
H    -1.7200760    3.0770715    0.5782380 
H    -2.3572203    0.5403251    0.5802104 
H    -4.5589772   -0.9032349   -2.8368304 
H    -2.8614268    3.0751414   -2.8775311 
H    -4.3577099    1.3502129   -3.8892271 
