103
Energy =
C    -0.5074086   -0.6115296    3.0419659 
C     0.8606410   -0.6228486    2.7053216 
C     1.5198864    0.6115141    2.4000799 
H     1.3891718   -1.5765509    2.5878380 
Pd   -0.1209427    0.2086693    0.9230591 
P     0.0927466    2.4418248   -0.1262814 
P    -1.4162395   -1.4271094   -0.3555007 
H    -0.9612209    0.3670130    3.2633617 
H     1.1813956    1.4993870    2.9455398 
C    -2.9569284   -3.9591109    4.1275835 
C    -3.5403964   -2.7283633    3.7821151 
C    -2.7280141   -1.6388717    3.4535371 
C    -1.3175256   -1.7670696    3.4373969 
C    -0.7429824   -3.0064621    3.8061771 
C    -1.5582550   -4.0894323    4.1516332 
H    -3.5908231   -4.8109966    4.3936327 
H    -4.6296345   -2.6194380    3.7780976 
H    -3.1806775   -0.6784977    3.1814767 
H     0.3449735   -3.1190473    3.8367016 
H    -1.1027243   -5.0403078    4.4455954 
C     5.5596440    0.7958311    0.9310606 
C     4.7570193   -0.3190443    0.6349072 
C     3.4464330   -0.3898395    1.1158848 
C     2.9047280    0.6564092    1.9016052 
C     3.7296399    1.7657541    2.2010693 
C     5.0430498    1.8347352    1.7209352 
H     6.5853576    0.8507432    0.5525989 
H     5.1554235   -1.1328931    0.0202845 
H     2.8214659   -1.2503640    0.8531104 
H     3.3397335    2.5709399    2.8342444 
H     5.6684172    2.6986196    1.9684591 
C     1.2671116    2.6675125   -1.5526417 
C     0.7218548    3.6748878    1.1378802 
C    -1.4406972   -3.1461321    0.3715024 
C    -0.5621705   -1.4781696   -2.0029186 
C     0.7953399    2.0621427   -2.9054316 
C     2.6664141    2.0633037   -1.3228863 
C    -0.1959100    3.7489003    2.4009453 
C     0.8678021    5.1548887    0.6413085 
C    -0.1041521   -3.9211490    0.3811857 
C    -2.4444212   -4.1873866   -0.1788305 
C    -0.9380347   -2.5470833   -3.0541072 
C     0.9955249   -1.5438911   -1.8824492 
C     2.0996960    1.6504469   -3.6552746 
C     3.2708448    2.0740503   -2.7367315 
C    -0.2137916    5.2380123    2.7986273 
C    -0.1639937    5.9672681    1.4479813 
C    -0.4996719   -5.3562765    0.8225331 
C    -2.0326698   -5.4744703    0.5723651 
C     0.2365302   -2.4424497   -4.0425799 
C     1.4660073   -2.3671785   -3.1147354 
C    -1.4668533    3.3469584   -0.7276923 
C    -3.2333607   -1.1500709   -0.7973018 
C    -2.3517642    2.4211864   -1.5157654 
C    -3.2832091    0.1599337   -1.5367801 
C    -2.8040287    1.2791943   -0.8446528 
C    -2.5903842    2.5286476   -2.8979225 
C    -3.5069446    0.2691423   -2.9220292 
C    -3.2105268    1.4719870   -3.5839561 
H     1.3746494    3.7617775   -1.6756500 
H     1.7156276    3.2844644    1.4113364 
H    -1.7285240   -2.9623737    1.4212691 
H    -0.8304547   -0.4921396   -2.4292491 
H     0.1973100    2.7904753   -3.4748083 
H     0.1392251    1.1904569   -2.7398509 
H     2.5714977    1.0262060   -0.9532195 
H     3.2662001    2.6164831   -0.5813212 
H    -1.2232905    3.4111344    2.1631356 
H     0.1604508    3.1012622    3.2192549 
H     1.8897851    5.5036611    0.8722278 
H     0.7400816    5.2760104   -0.4480356 
H     0.3223844   -3.9499360   -0.6361079 
H     0.6504337   -3.4572697    1.0403749 
H    -3.4947976   -3.9117776    0.0103914 
H    -2.3230429   -4.3149229   -1.2689916 
H    -1.9244972   -2.3629404   -3.5113361 
H    -0.9547324   -3.5576096   -2.6088206 
H     1.3222834   -2.0122775   -0.9394682 
H     1.4133086   -0.5260002   -1.8772907 
H     2.1652705    2.1187983   -4.6510804 
H     2.1146857    0.5592266   -3.8191588 
H     4.1508987    1.4149953   -2.8276484 
H     3.6017134    3.0989354   -2.9861382 
H     0.6914833    5.4786393    3.3872701 
H    -1.0890858    5.5045980    3.4147759 
H    -1.1554819    5.9219697    0.9592200 
H     0.1088693    7.0324978    1.5333239 
H    -0.2691495   -5.5131015    1.8892907 
H     0.0724151   -6.1111510    0.2579488 
H    -2.3033422   -6.3836261    0.0104816 
H    -2.5679318   -5.5156330    1.5367847 
H     0.1419250   -1.5099808   -4.6308404 
H     0.2811123   -3.2830861   -4.7555117 
H     1.7514307   -3.3870925   -2.7989302 
H     2.3490758   -1.9237765   -3.6047723 
H    -1.9769754    3.7077291    0.1825740 
H    -1.1433790    4.2278521   -1.3075794 
H    -3.7941253   -1.1352944    0.1551386 
H    -3.5944765   -1.9961733   -1.4041837 
H    -2.6427364    1.2032564    0.2381779 
H    -2.2687342    3.4225645   -3.4433683 
H    -3.8880833   -0.5892769   -3.4861853 
H    -3.4097716    1.5645760   -4.6565619 
