103
Energy =
C    -0.7481017   -0.6584432    3.1927377 
C     0.6269824   -0.6945976    2.9031055 
C     1.2878893    0.5231859    2.5062184 
H     1.1583971   -1.6534811    2.8712475 
Pd   -0.2578449    0.0167630    1.0209691 
P    -0.0858138    2.1397437   -0.1749355 
P    -1.4383960   -1.7369159   -0.2232114 
H    -1.2084615    0.3346152    3.3121550 
H     0.9746386    1.4457313    3.0098240 
C    -3.3022318   -3.9294260    4.2634352 
C    -3.8452477   -2.7242416    3.7858462 
C    -3.0006136   -1.6559992    3.4694026 
C    -1.5956889   -1.7817783    3.6008622 
C    -1.0653908   -2.9875423    4.1154696 
C    -1.9140152   -4.0514065    4.4413743 
H    -3.9620403   -4.7656910    4.5159715 
H    -4.9283878   -2.6193050    3.6665798 
H    -3.4206377   -0.7169036    3.0912458 
H     0.0124756   -3.0837011    4.2783173 
H    -1.4932530   -4.9783151    4.8440633 
C     5.2620150    0.5913732    0.8514269 
C     4.4347335   -0.5251080    0.6442444 
C     3.1504021   -0.5608346    1.1956523 
C     2.6601107    0.5225645    1.9655044 
C     3.5131438    1.6306847    2.1806969 
C     4.7987438    1.6656411    1.6273733 
H     6.2666295    0.6194758    0.4174600 
H     4.7919608   -1.3683905    0.0441228 
H     2.5052076   -1.4251237    1.0047322 
H     3.1663796    2.4625595    2.8039360 
H     5.4454813    2.5302813    1.8089106 
C     0.8049640    1.9976537   -1.8018022 
C     0.8126420    3.4557818    0.7903445 
C    -1.3780350   -3.3993442    0.6282165 
C    -0.5950281   -2.0511051   -1.8644473 
C     2.3263548    1.7388563   -1.6444377 
C     0.6736984    3.1476802   -2.8523738 
C     0.1014613    3.9386737    2.0757243 
C     1.1685699    4.7948247    0.1038400 
C     0.0702680   -3.8892119    0.9522759 
C    -2.0613908   -4.5719355   -0.1446575 
C     0.9427465   -1.9027332   -1.7778317 
C    -0.9806989   -1.0977663   -3.0234156 
C     2.8637870    2.0449185   -3.0519547 
C     2.0972525    3.3204542   -3.4514160 
C     1.0068032    5.0925648    2.5650121 
C     1.6641139    5.6798197    1.2779672 
C     0.2619931   -5.1678372    0.1146018 
C    -1.1454898   -5.7863769    0.1064035 
C     1.3815392   -1.8438830   -3.2525454 
C     0.2408730   -1.0927168   -3.9883595 
C    -1.7275172    2.9962739   -0.5605565 
C    -3.2959618   -1.5776331   -0.5643343 
C    -2.6743188    2.0530239   -1.2532200 
C    -3.5348213   -0.2384670   -1.2190171 
C    -2.9977500    0.8777854   -0.5643600 
C    -3.1087691    2.1925589   -2.5844979 
C    -4.0127321   -0.0732778   -2.5319406 
C    -3.8382584    1.1549256   -3.1899068 
H     0.3592466    1.0893305   -2.2379225 
H     1.7589001    2.9643403    1.0824174 
H    -1.9221183   -3.2262633    1.5706285 
H    -0.8384588   -3.0894241   -2.1583531 
H     2.5502453    0.7198303   -1.2897064 
H     2.7777255    2.4359922   -0.9150276 
H     0.3104831    4.0925763   -2.4178919 
H    -0.0618826    2.8535706   -3.6202170 
H    -0.9010241    4.3304629    1.8235633 
H    -0.0439583    3.1483886    2.8315990 
H     1.9224028    4.6866565   -0.6921299 
H     0.2647212    5.2392165   -0.3512987 
H     0.8406781   -3.1208737    0.7651312 
H     0.1270114   -4.1391882    2.0250819 
H    -3.0991415   -4.7305643    0.1917091 
H    -2.1027736   -4.3684855   -1.2311580 
H     1.4345419   -2.7190482   -1.2246744 
H     1.1856679   -0.9576342   -1.2529179 
H    -1.1734045   -0.0825229   -2.6333328 
H    -1.9082111   -1.4177377   -3.5205468 
H     2.6106070    1.2136420   -3.7367851 
H     3.9595690    2.1705414   -3.0757212 
H     2.5898479    4.1998236   -2.9978763 
H     2.0769919    3.4898363   -4.5407745 
H     1.7809905    4.6984827    3.2468806 
H     0.4365452    5.8457596    3.1330337 
H     1.4015647    6.7386607    1.1192123 
H     2.7640350    5.6315962    1.3505364 
H     1.0364625   -5.8364143    0.5269586 
H     0.5635205   -4.9114476   -0.9192261 
H    -1.2747538   -6.5816594   -0.6472228 
H    -1.3646174   -6.2267337    1.0972592 
H     1.4764784   -2.8722491   -3.6442976 
H     2.3655420   -1.3603393   -3.3757494 
H     0.5333501   -0.0568676   -4.2332466 
H    -0.0034964   -1.5808736   -4.9460891 
H    -2.1289914    3.3166167    0.4169613 
H    -1.5174453    3.9010930   -1.1541147 
H    -3.7718142   -1.6650676    0.4306117 
H    -3.6410111   -2.4223189   -1.1839918 
H    -2.6746516    0.7756943    0.4801333 
H    -2.8761089    3.1033030   -3.1469627 
H    -4.4675742   -0.9182957   -3.0608168 
H    -4.2110526    1.2796723   -4.2117148 
