103
Energy =
C     2.0397054   -0.1994723    2.3343312 
C     0.7984360   -0.3265904    2.9717772 
C    -0.0687414   -1.4334613    2.6476415 
H     0.4511705    0.4573513    3.6560173 
Pd    0.1088665   -0.1948487    0.8633295 
P    -1.2466551   -1.7488548   -0.3707725 
P     0.3388426    1.9871545   -0.2349648 
H     2.3713628   -1.0433554    1.7102178 
H     0.4233820   -2.3897116    2.4344378 
C     5.0089913    2.8373724    2.9272135 
C     5.0834746    1.9684010    1.8260261 
C     4.1229475    0.9662080    1.6612650 
C     3.0546426    0.8255032    2.5814638 
C     3.0183948    1.6812333    3.7094310 
C     3.9835762    2.6794952    3.8748707 
H     5.7615732    3.6212550    3.0600125 
H     5.8953203    2.0713771    1.0988523 
H     4.1788509    0.2911311    0.8010851 
H     2.2461161    1.5472328    4.4731669 
H     3.9450253    3.3316374    4.7533025 
C    -4.1167734   -1.7619127    4.0908847 
C    -3.5649080   -0.4955772    3.8331532 
C    -2.2436129   -0.3809028    3.3884635 
C    -1.4435914   -1.5314681    3.1833236 
C    -2.0083444   -2.7965404    3.4648329 
C    -3.3310683   -2.9107804    3.9122563 
H    -5.1517132   -1.8507456    4.4361040 
H    -4.1704485    0.4054373    3.9749810 
H    -1.8310250    0.6117690    3.1737788 
H    -1.3947097   -3.6971830    3.3477812 
H    -3.7480812   -3.8998108    4.1282679 
C    -0.9573590   -3.5277298    0.1139786 
C    -0.9451732   -1.5447165   -2.1965668 
C     1.3542127    2.2220796   -1.7747967 
C     1.1454774    3.1368007    0.9930506 
C     0.5441825   -3.9396147    0.3213493 
C    -1.5630600   -4.6278865   -0.8023804 
C    -1.8738291   -2.2293445   -3.2603865 
C     0.5026532   -1.9359595   -2.5977827 
C     0.6875617    1.7998228   -3.1012545 
C     2.6883398    1.4274046   -1.7366193 
C     0.2898362    3.2829105    2.2975209 
C     1.4410308    4.5868975    0.5163278 
C     0.7242066   -5.2577689   -0.4664839 
C    -0.6904007   -5.8596017   -0.5054063 
C    -0.9137866   -2.9257602   -4.2548459 
C     0.4048141   -2.1439433   -4.1171587 
C     1.8868803    1.7277927   -4.0629019 
C     3.0149424    1.0825963   -3.2229887 
C     0.1056203    4.8042316    2.5030436 
C     1.3328621    5.4169782    1.8081969 
C    -3.1049219   -1.4983069   -0.1491919 
C    -1.2603766    2.9478168   -0.5984534 
C    -3.3762523   -0.1675594   -0.8104128 
C    -2.3582873    2.0410820   -1.0924412 
C    -2.6721237    0.9316068   -0.2966352 
C    -4.0100246   -0.0306213   -2.0592677 
C    -2.9648955    2.1523978   -2.3574179 
C    -3.8403603    1.1482852   -2.8034258 
H    -1.4711375   -3.5769038    1.0901493 
H    -1.0562757   -0.4506917   -2.3090405 
H     1.5728328    3.3046797   -1.8357180 
H     2.1020614    2.6501680    1.2452014 
H     0.7268572   -4.1220358    1.3951267 
H     1.2547137   -3.1520384    0.0127414 
H    -1.4397648   -4.3638485   -1.8648172 
H    -2.6391942   -4.7845495   -0.6185134 
H    -2.6127432   -2.9235099   -2.8283166 
H    -2.4480873   -1.4415330   -3.7723761 
H     1.2418945   -1.1813245   -2.2823987 
H     0.7905314   -2.8934250   -2.1313015 
H     0.2176836    0.8066296   -2.9963632 
H    -0.0983544    2.4996077   -3.4305618 
H     3.4855386    2.0105484   -1.2461759 
H     2.5557951    0.5042528   -1.1401593 
H     0.8476614    2.8499046    3.1426009 
H    -0.6741775    2.7423057    2.2474980 
H     0.6796381    4.9388728   -0.2048118 
H     2.4242304    4.6680105    0.0237791 
H     1.4764984   -5.9221120   -0.0097848 
H     1.0603483   -5.0451689   -1.4990948 
H    -0.8081044   -6.6586257   -1.2569467 
H    -0.9523885   -6.2870870    0.4812185 
H    -1.3127786   -2.9396024   -5.2827051 
H    -0.7450781   -3.9782129   -3.9570860 
H     1.2768423   -2.6732267   -4.5372807 
H     0.3264640   -1.1661688   -4.6300434 
H     2.1729121    2.7521689   -4.3640901 
H     1.6636911    1.1661097   -4.9858285 
H     3.0197499   -0.0118812   -3.3666261 
H     4.0116855    1.4457732   -3.5225839 
H     0.0163417    5.0798921    3.5672678 
H    -0.8153470    5.1510046    1.9970415 
H     1.2362183    6.4994467    1.6181630 
H     2.2359157    5.2622746    2.4286558 
H    -3.6555671   -2.3341086   -0.6123479 
H    -3.2982852   -1.5004953    0.9391460 
H    -1.0264120    3.7502786   -1.3177254 
H    -1.5443493    3.4282454    0.3548243 
H    -2.2199034    0.8459387    0.7003882 
H    -4.5921187   -0.8612998   -2.4720236 
H    -2.7481334    3.0152566   -2.9968090 
H    -4.3406805    1.2552480   -3.7714527 
