103
Energy =
C     1.9619470   -0.3978340    2.1200489 
C     0.7889317   -0.5310788    2.8803918 
C    -0.0936700   -1.6416330    2.6233892 
H     0.4996884    0.2455204    3.5993800 
Pd   -0.0359870   -0.3762757    0.8365305 
P    -1.3006296   -2.0435591   -0.4164083 
P     0.1038652    1.8089603   -0.2706134 
H     2.2386587   -1.2511248    1.4819571 
H     0.3813917   -2.5992892    2.3755662 
C     5.0054739    2.6106173    2.3779205 
C     4.9570498    1.7306848    1.2837918 
C     3.9714348    0.7409864    1.2286561 
C     2.9990221    0.6262993    2.2527902 
C     3.0806285    1.4989748    3.3642852 
C     4.0746564    2.4808219    3.4227763 
H     5.7794626    3.3832022    2.4273576 
H     5.6929562    1.8145514    0.4777766 
H     3.9300046    0.0560154    0.3751040 
H     2.3772486    1.3950126    4.1961087 
H     4.1321676    3.1442440    4.2914837 
C    -4.0365057   -1.9388049    4.3337562 
C    -3.5257248   -0.6840066    3.9605985 
C    -2.2369428   -0.5798809    3.4273695 
C    -1.4320159   -1.7310961    3.2448694 
C    -1.9549506   -2.9840035    3.6403373 
C    -3.2438381   -3.0864565    4.1791874 
H    -5.0457178   -2.0192869    4.7501090 
H    -4.1376994    0.2154485    4.0837323 
H    -1.8532146    0.4022762    3.1248064 
H    -1.3343923   -3.8819976    3.5407160 
H    -3.6288974   -4.0646873    4.4850217 
C    -1.1954334   -3.7784063    0.2619563 
C    -0.6407002   -2.2257360   -2.1550560 
C     0.8235272    1.8308929   -1.9888393 
C     1.1025323    3.0170335    0.7373538 
C     0.1865840   -4.4650656    0.2383506 
C    -2.1401023   -4.8366110   -0.3774391 
C     0.8944915   -2.0335808   -2.2003350 
C    -1.1484908   -1.2074794   -3.2036205 
C     2.3467243    1.5477417   -2.0299340 
C     0.6065892    3.0890831   -2.8905429 
C     0.5068659    3.2833110    2.1447717 
C     1.3757379    4.4354828    0.1895826 
C    -0.1628489   -5.8926844    0.6905395 
C    -1.4654801   -6.2138421   -0.0826024 
C     1.1946979   -1.8813365   -3.7032273 
C    -0.0405395   -1.1485849   -4.2948747 
C     2.7285804    1.9793798   -3.4555810 
C     1.9528811    3.2977641   -3.6388943 
C     1.1792143    4.6038962    2.6264839 
C     1.9944759    5.1315381    1.4173317 
C    -3.1806635   -1.8153199   -0.4886580 
C    -1.5449625    2.7251370   -0.4360996 
C    -3.4708405   -0.4444723   -1.0456778 
C    -2.5835192    1.8344022   -1.0627774 
C    -2.8479910    0.6300256   -0.4000493 
C    -4.0909151   -0.2089350   -2.2866343 
C    -3.1640594    2.0475202   -2.3268247 
C    -3.9742158    1.0502064   -2.8968903 
H    -1.4978535   -3.6587859    1.3171311 
H    -0.8913124   -3.2518788   -2.4880577 
H     0.3173212    0.9786554   -2.4715354 
H     2.0803053    2.5203579    0.8723190 
H     0.9431052   -3.9662228    0.8691613 
H     0.5833720   -4.4922297   -0.7930618 
H    -2.2329364   -4.6811872   -1.4678953 
H    -3.1560320   -4.7668302    0.0441551 
H     1.1468887   -1.1063810   -1.6483020 
H     1.4604144   -2.8532711   -1.7286852 
H    -2.1293899   -1.4916357   -3.6121267 
H    -1.2824286   -0.2177327   -2.7313437 
H     2.8852401    2.1743834   -1.2951076 
H     2.5873131    0.4952003   -1.8037111 
H    -0.2267893    2.8980975   -3.5876872 
H     0.3342750    3.9884802   -2.3159272 
H     0.6845530    2.4365150    2.8253477 
H    -0.5874567    3.4189188    2.0876421 
H     0.4307644    4.9346128   -0.0968531 
H     2.0419585    4.4423080   -0.6887420 
H    -0.3497865   -5.8957806    1.7808161 
H     0.6443657   -6.6180454    0.4946741 
H    -1.2293524   -6.7282262   -1.0297341 
H    -2.1295116   -6.8839071    0.4875268 
H     1.3000398   -2.8819884   -4.1582171 
H     2.1413955   -1.3451354   -3.8863252 
H     0.1928195   -0.1008378   -4.5522926 
H    -0.3756840   -1.6306034   -5.2280010 
H     2.3760596    1.2211141   -4.1797926 
H     3.8169950    2.0918663   -3.5970548 
H     2.5181476    4.1227767   -3.1681315 
H     1.8087231    3.5699934   -4.6974957 
H     1.8264232    4.4320695    3.5022178 
H     0.4107689    5.3328630    2.9342573 
H     1.9811577    6.2312971    1.3365103 
H     3.0501151    4.8182075    1.5094369 
H    -3.6301857   -2.6219209   -1.0904478 
H    -3.5126600   -1.9331882    0.5609240 
H    -1.3777782    3.6526622   -1.0067943 
H    -1.8344483    3.0078149    0.5912311 
H    -2.4191891    0.4694699    0.5981746 
H    -4.6152463   -1.0215652   -2.8017616 
H    -2.9821028    2.9839775   -2.8653903 
H    -4.4589190    1.2317512   -3.8616593 
