103
Energy =
C     2.0121205   -0.4902051    2.1589201 
C     0.7813722   -0.5713707    2.8246836 
C    -0.1581108   -1.6242904    2.5158232 
H     0.4878773    0.2204230    3.5248805 
Pd    0.0901462   -0.3663415    0.7321674 
P    -1.1605648   -1.8587816   -0.6796618 
P     0.3051811    1.9023047   -0.2073272 
H     2.2965813   -1.3366588    1.5153895 
H     0.2554214   -2.6195827    2.3109991 
C     5.0880654    2.4440809    2.7139487 
C     5.0873090    1.6137929    1.5807169 
C     4.0946160    0.6414149    1.4284815 
C     3.0682778    0.4953977    2.3938355 
C     3.1075229    1.3101479    3.5517406 
C     4.1055326    2.2776365    3.7048770 
H     5.8663191    3.2041794    2.8367976 
H     5.8657602    1.7232311    0.8188251 
H     4.0912294   -0.0035268    0.5436940 
H     2.3686566    1.1665972    4.3460913 
H     4.1266073    2.8984121    4.6063163 
C    -4.1229354   -1.5817057    4.2180420 
C    -3.4026565   -2.7830521    4.1296051 
C    -2.1136392   -2.7939501    3.5824416 
C    -1.5148832   -1.6037093    3.1112263 
C    -2.2446946   -0.3967476    3.2344771 
C    -3.5355313   -0.3861018    3.7733988 
H    -5.1331021   -1.5749956    4.6397323 
H    -3.8449263   -3.7161024    4.4935453 
H    -1.5534999   -3.7334888    3.5361202 
H    -1.7969922    0.5419990    2.8883803 
H    -4.0864925    0.5571987    3.8463313 
C    -0.7927577   -3.6877314   -0.5373963 
C    -0.8717319   -1.5000790   -2.4828476 
C     1.2719977    2.3249083   -1.7395691 
C     1.1157477    2.9763229    1.0902486 
C    -1.6289255   -4.4483193    0.5431980 
C     0.6850489   -4.0556327   -0.2478978 
C    -1.6360666   -2.3223310   -3.5416418 
C     0.5966560   -1.6655546   -2.9344415 
C     0.5961722    2.0313931   -3.0952958 
C     2.6392515    1.5922526   -1.8121734 
C     0.2888628    3.0209684    2.4195638 
C     1.3777900    4.4622606    0.7085120 
C    -0.6390336   -5.4296149    1.2283054 
C     0.5839175   -5.4908438    0.2952620 
C    -0.9617153   -1.8687179   -4.8544316 
C     0.5285373   -1.6009408   -4.4853181 
C     1.7814893    2.1354279   -4.0719806 
C     2.9513070    1.4424299   -3.3334667 
C     0.0504230    4.5196454    2.7102092 
C     1.2543157    5.2093905    2.0486893 
C    -3.0395183   -1.6928191   -0.4926622 
C    -1.3344299    2.8319924   -0.4547487 
C    -3.3351437   -0.3140603   -1.0367450 
C    -2.3876607    1.9458579   -1.0702316 
C    -2.6787534    0.7500693   -0.4008448 
C    -3.9436767   -0.0716532   -2.2829206 
C    -2.9704261    2.1652775   -2.3318809 
C    -3.7964883    1.1810386   -2.9005898 
H    -1.0539448   -4.0993961   -1.5291618 
H    -1.1644830   -0.4371513   -2.5894447 
H     1.4476406    3.4154834   -1.6878608 
H     2.0848688    2.4879177    1.2858414 
H    -2.4627247   -4.9832378    0.0589773 
H    -2.0830457   -3.7644036    1.2770258 
H     1.1061320   -3.3796108    0.5207978 
H     1.3302874   -3.9713102   -1.1373824 
H    -1.4683097   -3.4041613   -3.3806187 
H    -2.7226256   -2.1468607   -3.5346008 
H     1.2643134   -0.9124771   -2.4856168 
H     0.9705938   -2.6547997   -2.6211060 
H     0.1682842    1.0146133   -3.1061678 
H    -0.2224730    2.7323265   -3.3265648 
H     3.4193985    2.1489107   -1.2664448 
H     2.5599733    0.6008670   -1.3275596 
H     0.8851852    2.5706944    3.2288533 
H    -0.6532414    2.4445349    2.3644705 
H     0.6063777    4.8422649    0.0125980 
H     2.3570133    4.5972011    0.2200761 
H    -1.0892283   -6.4181837    1.4162633 
H    -0.3270145   -5.0302692    2.2115538 
H     1.5038257   -5.8270322    0.8030439 
H     0.3940814   -6.1892267   -0.5411532 
H    -1.4403423   -0.9359349   -5.2009582 
H    -1.0760307   -2.6116154   -5.6610681 
H     1.2058138   -2.3440160   -4.9379466 
H     0.8503528   -0.6134207   -4.8551072 
H     2.0168812    3.2019515   -4.2425004 
H     1.5685541    1.6887166   -5.0579911 
H     2.9972061    0.3742007   -3.6075494 
H     3.9264501    1.8810816   -3.6016418 
H    -0.0453469    4.7320050    3.7882760 
H    -0.8830988    4.8614527    2.2241982 
H     1.1252202    6.2979364    1.9239247 
H     2.1650219    5.0451870    2.6553685 
H    -3.5494715   -2.5005683   -1.0437525 
H    -3.2667339   -1.7899395    0.5839816 
H    -1.1348633    3.7303196   -1.0626010 
H    -1.6431671    3.1701016    0.5504187 
H    -2.2499372    0.5812930    0.5954093 
H    -4.4991945   -0.8688530   -2.7885153 
H    -2.7745146    3.0967471   -2.8742253 
H    -4.2794407    1.3695191   -3.8649427 
