103
Energy =
C     0.0769388   -1.3143174    2.8032595 
C     1.2578706   -0.9405984    2.1572879 
C     1.6022079    0.4465568    1.9790908 
H     1.9520932   -1.7122146    1.8039059 
Pd   -0.0537360    0.0153198    0.6156178 
P     0.0926202    2.3475706   -0.1041471 
P    -1.4252266   -1.6219327   -0.6660092 
H    -0.5261142   -0.5092731    3.2477010 
H     1.2068595    1.1413929    2.7323076 
C    -1.1966004   -5.2445728    3.9432623 
C    -0.0485165   -5.0966202    3.1435141 
C     0.3861606   -3.8253929    2.7646064 
C    -0.3275171   -2.6675258    3.1687063 
C    -1.4694141   -2.8347723    3.9916149 
C    -1.8994032   -4.1088056    4.3746869 
H    -1.5336006   -6.2435405    4.2378985 
H     0.5106247   -5.9805685    2.8206768 
H     1.2828692   -3.7290519    2.1467790 
H    -2.0184285   -1.9501527    4.3321072 
H    -2.7824654   -4.2182423    5.0118770 
C     5.3360629    1.6200024    0.1772036 
C     4.6717133    0.4647484   -0.2686686 
C     3.4710040    0.0698103    0.3285430 
C     2.9005685    0.8245991    1.3818552 
C     3.5960387    1.9682595    1.8383066 
C     4.7990452    2.3637945    1.2396260 
H     6.2731657    1.9322931   -0.2945901 
H     5.0878161   -0.1243337   -1.0925764 
H     2.9442623   -0.8128008   -0.0501304 
H     3.1936024    2.5458197    2.6782277 
H     5.3222501    3.2526793    1.6066196 
C     1.5662235    2.6075345   -1.2045867 
C     0.3229190    3.4359797    1.3926525 
C    -2.3240236   -2.8015177    0.4510785 
C    -0.2743575   -2.7119643   -1.6451397 
C     1.8018016    3.9901362   -1.8570632 
C     1.6263219    1.5810972   -2.3799140 
C    -0.8363090    3.2088964    2.4274152 
C     0.4096302    4.9756239    1.1808587 
C    -3.0204615   -4.0341823   -0.1639573 
C    -3.4388291   -2.1148156    1.2804232 
C     0.8631080   -3.3546288   -0.8217127 
C     0.4365321   -1.9515150   -2.8119501 
C     2.8263994    3.6513659   -2.9548286 
C     2.2777989    2.3458576   -3.5650009 
C    -1.4107703    4.6145115    2.7137768 
C    -0.2212601    5.5548454    2.4610831 
C    -3.8506444   -4.5496927    1.0279348 
C    -4.3905290   -3.2697031    1.7177056 
C     1.9307971   -3.6684861   -1.8830725 
C     1.9207882   -2.4076366   -2.7679771 
C    -1.3374446    3.2311093   -0.9752241 
C    -2.7539648   -1.2600285   -1.9746293 
C    -1.8232576    2.3713330   -2.1055853 
C    -2.4960214    0.0775234   -2.6105832 
C    -2.3949477    1.1547511   -1.7258459 
C    -1.5295520    2.5860644   -3.4649466 
C    -2.1802315    0.2862693   -3.9650306 
C    -1.7490612    1.5541391   -4.3922320 
H     2.4200753    2.4122891   -0.5328344 
H     1.2766485    3.1020425    1.8276956 
H    -1.5499468   -3.1709230    1.1467281 
H    -0.9061869   -3.5172057   -2.0632474 
H     2.1601197    4.7459814   -1.1403109 
H     0.8774685    4.3782869   -2.3225749 
H     0.6235514    1.2152435   -2.6526722 
H     2.2181526    0.7049331   -2.0712646 
H    -1.6043468    2.5022943    2.0599128 
H    -0.4244105    2.7638789    3.3509439 
H     1.4480606    5.3057767    1.0155804 
H    -0.1787467    5.3031630    0.3062754 
H    -3.6876732   -3.7374759   -0.9952750 
H    -2.3105879   -4.7842226   -0.5526053 
H    -3.0172519   -1.5513221    2.1288713 
H    -3.9890429   -1.3815615    0.6622248 
H     0.5277889   -4.2340297   -0.2465823 
H     1.2611553   -2.6128265   -0.1028035 
H     0.3521685   -0.8592396   -2.6940710 
H    -0.0408485   -2.2013325   -3.7739238 
H     3.8136114    3.4720138   -2.4891880 
H     2.9485081    4.4607372   -3.6946315 
H     1.5071172    2.5826673   -4.3203351 
H     3.0561174    1.7517359   -4.0721108 
H    -1.8360598    4.7018242    3.7275159 
H    -2.2211764    4.8451981    1.9968485 
H    -0.5122512    6.6136117    2.3540174 
H     0.4975794    5.4904565    3.3000246 
H    -3.1819771   -5.0950883    1.7181971 
H    -4.6512357   -5.2447083    0.7241041 
H    -5.4234607   -3.0551767    1.3951285 
H    -4.4155716   -3.3838067    2.8142009 
H     1.6209066   -4.5532855   -2.4698947 
H     2.9214881   -3.8902633   -1.4498630 
H     2.5372655   -1.6204859   -2.2963387 
H     2.3391254   -2.5825434   -3.7729033 
H    -2.1164102    3.3843529   -0.2069105 
H    -0.9799838    4.2203242   -1.3026866 
H    -3.7233483   -1.2670601   -1.4445898 
H    -2.7603908   -2.0900785   -2.7004893 
H    -2.6366265    0.9969539   -0.6677265 
H    -1.0936819    3.5358570   -3.7931514 
H    -2.2516251   -0.5398880   -4.6808083 
H    -1.5274728    1.7219049   -5.4512851 
