103
Energy =
C    -0.5665210   -0.4602660    3.1262173 
C     0.8134230   -0.5666308    2.8688328 
C     1.5344587    0.6117819    2.4771537 
H     1.3026875   -1.5479709    2.8772319 
Pd   -0.0056935    0.1125214    0.9477922 
P     0.2744897    2.3118811   -0.1854670 
P    -1.2971634   -1.6143831   -0.2185874 
H    -0.9815523    0.5554461    3.2142041 
H     1.2117453    1.5550907    2.9323415 
C    -3.2544705   -3.5816217    4.3090022 
C    -3.7477234   -2.3709463    3.7932684 
C    -2.8599106   -1.3503143    3.4397882 
C    -1.4612588   -1.5310814    3.5714944 
C    -0.9804136   -2.7412173    4.1250036 
C    -1.8718403   -3.7567402    4.4876247 
H    -3.9481534   -4.3805418    4.5900291 
H    -4.8259223   -2.2242879    3.6734329 
H    -3.2406550   -0.4064533    3.0330570 
H     0.0929388   -2.8790326    4.2874182 
H    -1.4892224   -4.6873558    4.9187435 
C     5.6173261    0.5239843    1.1225317 
C     4.7870734   -0.5912327    0.9180455 
C     3.4627062   -0.5738736    1.3644579 
C     2.9345118    0.5633637    2.0241101 
C     3.7859577    1.6741326    2.2294873 
C     5.1130982    1.6547857    1.7839344 
H     6.6543306    0.5086955    0.7721615 
H     5.1759280   -1.4756762    0.4030307 
H     2.8179903   -1.4396908    1.1756176 
H     3.4063578    2.5518978    2.7649704 
H     5.7588004    2.5214435    1.9590942 
C     1.6104430    2.5878570   -1.4706033 
C     0.7266935    3.5638375    1.1330650 
C    -1.2674204   -3.2381727    0.6899941 
C    -0.4938792   -2.0044088   -1.8629308 
C     1.1775730    2.5812470   -2.9573444 
C     2.7815457    1.5648427   -1.3752142 
C    -0.3349009    3.6220302    2.2861342 
C     0.9169396    5.0376721    0.6613445 
C     0.1919447   -3.7577407    0.9160223 
C    -2.0512790   -4.4211305    0.0449300 
C     0.0738836   -0.7559490   -2.5713927 
C    -1.2849132   -2.7804592   -2.9694931 
C     2.5184617    2.3865143   -3.6873352 
C     3.2549257    1.3284803   -2.8390093 
C    -0.7976433    5.0945780    2.3498908 
C     0.4286080    5.8781130    1.8564569 
C     0.2377227   -5.1424849    0.2360443 
C    -1.2020745   -5.6595908    0.3895425 
C     0.3512061   -1.2557958   -3.9952006 
C    -0.9007389   -2.0959031   -4.3119314 
C    -1.2751718    3.1509929   -0.9029566 
C    -3.1288559   -1.3181704   -0.5568164 
C    -2.1803879    2.1626190   -1.5867303 
C    -3.1858626   -0.0624177   -1.3904775 
C    -2.6397509    1.0915260   -0.8108089 
C    -2.4595774    2.1623633   -2.9660668 
C    -3.4868628   -0.0419251   -2.7651104 
C    -3.1628159    1.0875454   -3.5349529 
H     2.0040354    3.5971575   -1.2543559 
H     1.6890869    3.1985507    1.5271704 
H    -1.7236747   -3.0100370    1.6652312 
H     0.3689824   -2.6256291   -1.5577111 
H     0.6600689    3.5107018   -3.2490620 
H     0.4953241    1.7428404   -3.1735045 
H     2.4428239    0.6227855   -0.9091538 
H     3.5860326    1.9506934   -0.7285147 
H    -1.1749223    2.9177402    2.1324850 
H     0.1381880    3.3372128    3.2433158 
H     1.9619986    5.2502470    0.3812972 
H     0.2909337    5.2640223   -0.2207592 
H     0.9646996   -3.0648450    0.5324809 
H     0.3717658   -3.8613537    1.9998525 
H    -3.0847564   -4.4785752    0.4248944 
H    -2.1104107   -4.3167296   -1.0512897 
H     0.9602025   -0.3642530   -2.0497703 
H    -0.6829973    0.0477022   -2.5944780 
H    -2.3752532   -2.7542784   -2.8130375 
H    -0.9907835   -3.8433135   -2.9617759 
H     3.0804991    3.3391411   -3.6826426 
H     2.3917609    2.0846300   -4.7410838 
H     2.9630684    0.3163261   -3.1709047 
H     4.3508625    1.3947148   -2.9394074 
H    -1.1366637    5.3893472    3.3570501 
H    -1.6452338    5.2600698    1.6580824 
H     0.2033010    6.9225254    1.5819567 
H     1.2045670    5.9012724    2.6451043 
H     0.9982304   -5.8092367    0.6762387 
H     0.4785134   -5.0316870   -0.8387253 
H    -1.4293405   -6.5274064   -0.2527151 
H    -1.3825181   -5.9623764    1.4384709 
H     1.2574418   -1.8912057   -4.0006164 
H     0.5166226   -0.4364573   -4.7160334 
H    -1.7154988   -1.4233193   -4.6312849 
H    -0.7391221   -2.8263607   -5.1219701 
H    -1.7829602    3.6095710   -0.0357002 
H    -0.9565175    3.9657378   -1.5724694 
H    -3.6044035   -1.2035465    0.4342510 
H    -3.5752356   -2.1951895   -1.0537407 
H    -2.4352853    1.0950974    0.2681483 
H    -2.1180299    2.9903393   -3.5963604 
H    -3.9398548   -0.9177519   -3.2418707 
H    -3.4066836    1.1033480   -4.6021649 
