103
Energy =
C    -0.5360734   -0.5877793    3.0827029 
C     0.8362190   -0.6037392    2.7635169 
C     1.4952798    0.6281367    2.4440214 
H     1.3664982   -1.5582162    2.6606976 
Pd   -0.1244851    0.2026821    0.9619552 
P     0.1122128    2.4232724   -0.1133996 
P    -1.4363133   -1.4360571   -0.2931621 
H    -0.9890748    0.3933609    3.2939880 
H     1.1593279    1.5221360    2.9822478 
C    -3.0192423   -3.9210797    4.1372799 
C    -3.5906396   -2.6896830    3.7745884 
C    -2.7672450   -1.6048912    3.4573333 
C    -1.3573495   -1.7386263    3.4701976 
C    -0.7951523   -2.9776856    3.8572271 
C    -1.6219178   -4.0563188    4.1906780 
H    -3.6618056   -4.7692597    4.3942710 
H    -4.6791537   -2.5761435    3.7485002 
H    -3.2105509   -0.6435064    3.1735446 
H     0.2914829   -3.0933957    3.9129345 
H    -1.1756714   -5.0064464    4.5010007 
C     5.5155917    0.7771629    0.9138940 
C     4.6939039   -0.3245535    0.6212615 
C     3.3909810   -0.3833053    1.1242597 
C     2.8763311    0.6611449    1.9304647 
C     3.7209620    1.7563664    2.2272056 
C     5.0262384    1.8141362    1.7232999 
H     6.5350396    0.8232476    0.5177079 
H     5.0708228   -1.1371005   -0.0084539 
H     2.7498514   -1.2328427    0.8638961 
H     3.3544252    2.5583288    2.8781614 
H     5.6669184    2.6672850    1.9689716 
C     1.2136986    2.6508130   -1.5946754 
C     0.8429258    3.6331268    1.1110922 
C    -1.4341248   -3.1650507    0.4059017 
C    -0.6572520   -1.4920595   -1.9770435 
C     0.6913519    2.0509266   -2.9303173 
C     2.6215090    2.0453756   -1.4155827 
C    -0.0437448    3.8011772    2.3930350 
C     1.1054802    5.0777121    0.5872801 
C    -0.0671855   -3.8888764    0.4568963 
C    -2.4331972   -4.2068577   -0.2049226 
C    -1.0425980   -2.5990052   -2.9848820 
C     0.9058205   -1.5201016   -1.9151610 
C     1.9670624    1.6392635   -3.7284853 
C     3.1728516    2.0549771   -2.8514338 
C    -0.3944809    5.3031568    2.4546887 
C     0.8244915    5.9774915    1.8056589 
C    -0.4741343   -5.3379902    0.7687559 
C    -1.6763286   -5.5642440   -0.1682556 
C     0.0894540   -2.4901735   -4.0212887 
C     1.3497178   -2.3658114   -3.1416882 
C    -1.4735926    3.3449759   -0.6093443 
C    -3.2727939   -1.1396516   -0.6270946 
C    -2.4017155    2.4302997   -1.3603177 
C    -3.3485363    0.1751957   -1.3550489 
C    -2.8341152    1.2877515   -0.6771347 
C    -2.6955306    2.5462851   -2.7311565 
C    -3.6266872    0.2927524   -2.7297655 
C    -3.3494252    1.4970982   -3.3971273 
H     1.3153603    3.7457548   -1.7172878 
H     1.8091735    3.1785313    1.3815909 
H    -1.7459141   -3.0018981    1.4503027 
H    -0.9669835   -0.5231287   -2.4139761 
H     0.0752830    2.7834465   -3.4746922 
H     0.0383000    1.1809727   -2.7442204 
H     2.5407263    1.0093432   -1.0383952 
H     3.2483819    2.6003327   -0.6972559 
H    -0.9375671    3.1485666    2.3916027 
H     0.5435742    3.5230763    3.2868910 
H     2.1263978    5.1882389    0.1854229 
H     0.4061255    5.3471956   -0.2251610 
H     0.4376416   -3.8587371   -0.5248464 
H     0.6179542   -3.4444684    1.2000476 
H    -3.3516630   -4.2329751    0.4048372 
H    -2.7431191   -3.9592885   -1.2327794 
H    -2.0517102   -2.4568943   -3.4071681 
H    -1.0079679   -3.5972584   -2.5136265 
H     1.2786839   -1.9532121   -0.9721165 
H     1.2995916   -0.4940962   -1.9528493 
H     1.9985085    2.1128407   -4.7234776 
H     1.9729830    0.5489814   -3.8990640 
H     4.0458320    1.3921910   -2.9768234 
H     3.4990199    3.0788999   -3.1106142 
H    -0.5993365    5.6493083    3.4815626 
H    -1.2982274    5.5113499    1.8510209 
H     0.6508971    7.0311098    1.5288385 
H     1.6840216    5.9535723    2.5022085 
H    -0.7911799   -5.4131618    1.8251434 
H     0.3431518   -6.0617285    0.6096214 
H    -1.3089855   -5.8142121   -1.1804452 
H    -2.3235144   -6.3965712    0.1541974 
H    -0.0487514   -1.5741146   -4.6263766 
H     0.1267162   -3.3464339   -4.7158459 
H     1.6673584   -3.3714021   -2.8108993 
H     2.2052665   -1.9177310   -3.6744582 
H    -1.9284434    3.6948972    0.3345362 
H    -1.1832267    4.2316972   -1.1972000 
H    -3.7713226   -1.1219098    0.3591888 
H    -3.6858735   -1.9773141   -1.2115478 
H    -2.6294061    1.2049570    0.3982973 
H    -2.3904011    3.4410980   -3.2845585 
H    -4.0335146   -0.5613894   -3.2824202 
H    -3.5901730    1.5963770   -4.4605795 
