103
Energy =
C     2.3415762   -0.1465201    1.4071438 
C     1.3401635   -0.6427424    2.2449640 
C     0.6179770   -1.8530031    1.9426050 
H     1.1103630   -0.1205752    3.1821387 
Pd   -0.0931693   -0.3040460    0.5670591 
P    -1.4338336   -1.9636010   -0.6275542 
P    -0.2191264    2.0100321   -0.2872722 
H     2.6054783   -0.7477137    0.5259034 
H     1.1451998   -2.5943077    1.3252211 
C     5.0608104    3.0794930    2.1714228 
C     5.1428714    2.3396823    0.9812413 
C     4.2523966    1.2865277    0.7518615 
C     3.2488572    0.9588374    1.6992722 
C     3.2042206    1.6954238    2.9110992 
C     4.0973197    2.7437684    3.1395261 
H     5.7570627    3.9041133    2.3548884 
H     5.9077454    2.5798437    0.2359963 
H     4.3291102    0.6998039   -0.1695185 
H     2.4718309    1.4420558    3.6826849 
H     4.0492399    3.3023815    4.0795341 
C    -1.8717763   -3.5115324    5.0426716 
C    -1.9672123   -2.1466691    4.7236578 
C    -1.1749231   -1.6059871    3.7050764 
C    -0.2713549   -2.4193953    2.9830598 
C    -0.1864904   -3.7908887    3.3132452 
C    -0.9790632   -4.3316580    4.3342626 
H    -2.4920796   -3.9343143    5.8394252 
H    -2.6676461   -1.5047420    5.2677083 
H    -1.2705788   -0.5447187    3.4444584 
H     0.5189705   -4.4329536    2.7733769 
H    -0.8965243   -5.3950709    4.5813259 
C    -1.8569526   -3.5369697    0.2829418 
C    -0.3624114   -2.5428213   -2.0391537 
C     0.5563153    2.1170534   -1.9736577 
C     0.7239919    3.1324649    0.8559463 
C    -2.2839456   -4.7423477   -0.6098356 
C    -3.0247781   -3.3364611    1.3099456 
C     1.0739368   -2.9366658   -1.6402358 
C    -0.1513661   -1.4994083   -3.1648489 
C     2.0034048    1.5623655   -1.9680499 
C     0.6335952    3.4963427   -2.7104702 
C     0.1263680    3.1126896    2.2891263 
C     0.8784931    4.6377739    0.5486155 
C    -3.3384134   -5.4774786    0.2384453 
C    -4.1288273   -4.3219538    0.8723908 
C     1.7770051   -3.0588090   -3.0042066 
C     1.1960313   -1.8917639   -3.8452160 
C     2.6488460    2.2148644   -3.2003503 
C     2.1163774    3.6569763   -3.1248507 
C     0.6862433    4.3901909    2.9833785 
C     1.4390347    5.1781105    1.8793608 
C    -3.0989706   -1.6399943   -1.4825054 
C    -1.8612074    2.9158787   -0.5369408 
C    -3.1775863   -0.2425829   -2.0279921 
C    -2.6183420    2.0840299   -1.5353053 
C    -2.9332855    0.7868236   -1.1148386 
C    -3.3131360    0.0814084   -3.3904079 
C    -2.7618073    2.4062517   -2.8973823 
C    -3.1571700    1.4128833   -3.8089650 
H    -0.9408726   -3.8109619    0.8293214 
H    -0.8691406   -3.4327399   -2.4582593 
H    -0.0835446    1.4419434   -2.5701222 
H     1.7384609    2.6979590    0.8991592 
H    -1.4233329   -5.3728301   -0.8898742 
H    -2.7572336   -4.4039611   -1.5500698 
H    -3.3744148   -2.2903841    1.3776275 
H    -2.6641196   -3.6039899    2.3144557 
H     1.5227894   -2.1104024   -1.0528443 
H     1.1264187   -3.8550040   -1.0294517 
H    -0.9968791   -1.4787148   -3.8694930 
H    -0.0859846   -0.4900267   -2.7228994 
H     2.5350547    1.9049251   -1.0627896 
H     2.0288321    0.4587597   -1.9663929 
H    -0.0162387    3.4576063   -3.6006185 
H     0.2802945    4.3436837   -2.1019510 
H     0.3807949    2.1808467    2.8208314 
H    -0.9769405    3.1562957    2.2457342 
H    -0.1026117    5.0997901    0.3304861 
H     1.5459568    4.8381695   -0.3047990 
H    -2.8416452   -6.0721902    1.0282268 
H    -3.9603049   -6.1666889   -0.3576512 
H    -4.7879204   -3.8629528    0.1106788 
H    -4.7694179   -4.6344335    1.7140406 
H     1.5137844   -4.0291700   -3.4621817 
H     2.8765959   -3.0264890   -2.9223485 
H     1.8858769   -1.0302678   -3.8525987 
H     1.0502010   -2.1865134   -4.8973483 
H     2.2895578    1.7197185   -4.1227945 
H     3.7508633    2.1533490   -3.1958731 
H     2.6718590    4.2078900   -2.3423404 
H     2.2341035    4.2200720   -4.0655960 
H     1.3561657    4.1359184    3.8217575 
H    -0.1384396    4.9885960    3.4056154 
H     1.3235884    6.2705695    1.9765903 
H     2.5199720    4.9546566    1.9268737 
H    -3.2262695   -2.4071847   -2.2648209 
H    -3.8701345   -1.8125578   -0.7116242 
H    -1.6555110    3.9403077   -0.8878719 
H    -2.3711965    2.9726426    0.4403183 
H    -2.8409303    0.5414084   -0.0502344 
H    -3.5218090   -0.7044776   -4.1249196 
H    -2.5372504    3.4187140   -3.2496135 
H    -3.2878858    1.6677436   -4.8657585 
