103
Energy =
C     1.8716639   -0.4782822    2.1777416 
C     0.6653898   -0.6171083    2.8819507 
C    -0.2334703   -1.7003198    2.5677024 
H     0.3588467    0.1441366    3.6105320 
Pd   -0.0672948   -0.3913768    0.8131536 
P    -1.2509548   -1.9158719   -0.6538399 
P     0.1532325    1.8163901   -0.2304399 
H     2.1659621   -1.3139346    1.5244170 
H     0.2209128   -2.6674055    2.3219541 
C     4.9776177    2.4280246    2.7201883 
C     4.9580264    1.6026942    1.5836847 
C     3.9464436    0.6501870    1.4316596 
C     2.9180063    0.5213172    2.3974233 
C     2.9643698    1.3436001    3.5485645 
C     3.9869507    2.2847305    3.7063157 
H     5.7741236    3.1681269    2.8477208 
H     5.7389667    1.6965816    0.8223105 
H     3.9338869    0.0012857    0.5497174 
H     2.2132212    1.2286915    4.3358469 
H     4.0188889    2.9045763    4.6079391 
C    -4.1471824   -1.8941709    4.3653062 
C    -3.6601526   -0.6722633    3.8728614 
C    -2.3854515   -0.6049497    3.2994691 
C    -1.5753145   -1.7605346    3.1921933 
C    -2.0744456   -2.9790642    3.7049834 
C    -3.3464561   -3.0442825    4.2872409 
H    -5.1441184   -1.9475823    4.8143706 
H    -4.2771952    0.2299998    3.9361968 
H    -2.0130994    0.3520341    2.9121301 
H    -1.4507858   -3.8787083    3.6601816 
H    -3.7133140   -3.9960341    4.6851108 
C    -0.9194017   -3.7466409   -0.4815013 
C    -0.7569886   -1.5555431   -2.4123088 
C     0.9729265    1.8375701   -1.9022552 
C     1.0626846    3.0213244    0.8669004 
C    -1.8553690   -4.4719991    0.5191641 
C     0.5382365   -4.1254342   -0.0559267 
C    -1.3823483   -2.3710053   -3.5639051 
C     0.7533298   -1.7333990   -2.6797028 
C     2.4900873    1.5387506   -1.8562023 
C     0.8938071    3.0738727   -2.8227305 
C     0.3960948    3.1784202    2.2570061 
C     1.2645483    4.4835199    0.3541511 
C    -1.0443611   -5.7123147    0.9301722 
C     0.3867045   -5.1663827    1.0848702 
C    -0.5079260   -1.9885081   -4.7877283 
C     0.8614408   -1.5163921   -4.2055714 
C     2.9928077    1.8628278   -3.2922345 
C     1.8543060    2.6834375   -3.9670346 
C     1.0758182    4.4378601    2.8153842 
C     1.1052461    5.3948213    1.6074843 
C    -3.1406486   -1.7776628   -0.6723387 
C    -1.4790674    2.7380340   -0.4990049 
C    -3.3953686   -0.4088944   -1.2543046 
C    -2.4673596    1.8545959   -1.2102093 
C    -2.8225855    0.6656322   -0.5596406 
C    -3.8655892   -0.1852619   -2.5625330 
C    -2.9027857    2.0552534   -2.5331693 
C    -3.6579375    1.0600298   -3.1769011 
H    -1.1109060   -4.1594801   -1.4884682 
H    -1.0228502   -0.4884938   -2.5515643 
H     0.4682639    1.0062398   -2.4295449 
H     2.0541401    2.5632542    1.0311692 
H    -2.8340262   -4.7163146    0.0736775 
H    -2.0483787   -3.8384100    1.4009034 
H     1.1207596   -3.2403136    0.2610708 
H     1.0757668   -4.5608105   -0.9147769 
H    -1.2884946   -3.4527313   -3.3547417 
H    -2.4498659   -2.1546094   -3.7185579 
H     1.3843007   -1.0525568   -2.0846614 
H     1.0546276   -2.7648979   -2.4231207 
H     2.9771405    2.2047891   -1.1214948 
H     2.7081257    0.5034624   -1.5441590 
H    -0.1284077    3.2854432   -3.1769499 
H     1.2673459    3.9717640   -2.3021099 
H     0.5273139    2.2852822    2.8880565 
H    -0.6920103    3.3558814    2.1608009 
H     0.5244900    4.7620510   -0.4132580 
H     2.2582861    4.5867038   -0.1129050 
H    -1.0775858   -6.4673119    0.1225191 
H    -1.4287111   -6.1926367    1.8464469 
H     0.4895977   -4.6753171    2.0709390 
H     1.1594261   -5.9515389    1.0412735 
H    -0.9872321   -1.1719832   -5.3541162 
H    -0.3971755   -2.8378673   -5.4818668 
H     1.7189983   -2.0570345   -4.6389848 
H     1.0169962   -0.4444558   -4.4196333 
H     3.1997746    0.9383365   -3.8568132 
H     3.9373229    2.4307555   -3.2544572 
H     2.2289009    3.5626588   -4.5166969 
H     1.3139130    2.0542111   -4.6967831 
H     2.1043804    4.1844331    3.1289869 
H     0.5525977    4.8601673    3.6899033 
H     0.1504633    5.9464282    1.5465683 
H     1.9073993    6.1475304    1.6820981 
H    -3.5716723   -2.5949193   -1.2744061 
H    -3.4808121   -1.8804760    0.3736676 
H    -1.2696604    3.6717710   -1.0456784 
H    -1.8405431    3.0080607    0.5086357 
H    -2.5048513    0.5124600    0.4801507 
H    -4.3582831   -0.9929370   -3.1145359 
H    -2.6529694    2.9823676   -3.0605732 
H    -4.0334713    1.2340455   -4.1905263 
