103
Energy =
C     0.2263070   -1.4140169    2.7050545 
C     1.4270982   -0.9633331    2.1384499 
C     1.7376869    0.4366979    2.1152641 
H     2.1303425   -1.6821755    1.7005903 
Pd    0.0377264    0.0327915    0.7401614 
P     0.1574494    2.3647405    0.0189688 
P    -1.3057022   -1.5996994   -0.5422608 
H    -0.3648767   -0.6761197    3.2668055 
H     1.2859891    1.0476965    2.9091585 
C    -1.0899908   -5.4490867    3.3231981 
C     0.0453239   -5.2097571    2.5284961 
C     0.5044328   -3.9049778    2.3305028 
C    -0.1759540   -2.8047412    2.9100722 
C    -1.3015274   -3.0663349    3.7298978 
C    -1.7535849   -4.3736879    3.9345585 
H    -1.4470537   -6.4727645    3.4742549 
H     0.5771527   -6.0483183    2.0676046 
H     1.3965997   -3.7402664    1.7185440 
H    -1.8283865   -2.2281935    4.1986829 
H    -2.6275789   -4.5553723    4.5678882 
C     5.4564253    1.9518447    0.5554927 
C     4.9021054    0.7739565    0.0260137 
C     3.7034775    0.2676689    0.5378393 
C     3.0269780    0.9291891    1.5908346 
C     3.6143165    2.0964159    2.1332301 
C     4.8129213    2.6054649    1.6178587 
H     6.3906742    2.3512873    0.1482607 
H     5.4030326    0.2553983   -0.7979279 
H     3.2646020   -0.6314821    0.0922531 
H     3.1297089    2.6021270    2.9761614 
H     5.2496231    3.5112089    2.0507847 
C     1.6737439    2.6377183   -1.0171737 
C     0.3224737    3.4346961    1.5351247 
C    -2.4680876   -2.5939808    0.5145626 
C     0.0182817   -2.7635408   -1.1418502 
C     1.9130880    4.0132085   -1.6825516 
C     1.8236879    1.5867538   -2.1638861 
C    -0.8767638    3.1919570    2.5192330 
C     0.4147079    4.9765907    1.3448079 
C    -3.4195845   -3.6420008   -0.1045414 
C    -3.4259852   -1.6760887    1.3126618 
C     0.9262058   -2.0757485   -2.2224355 
C    -0.4114342   -4.1237849   -1.7509012 
C     2.9999151    3.6772137   -2.7197186 
C     2.5127990    2.3473724   -3.3300528 
C    -1.4719182    4.5919237    2.7900289 
C    -0.2772206    5.5406891    2.6001747 
C    -4.3512649   -3.9670658    1.0825293 
C    -4.5422096   -2.6223440    1.8400103 
C     1.0313716   -3.0990196   -3.3792111 
C     0.7384902   -4.4568933   -2.7182673 
C    -1.2403376    3.2383197   -0.9155792 
C    -2.3609528   -1.2865609   -2.0871528 
C    -1.5968336    2.3886800   -2.1013914 
C    -2.0829363    0.0660605   -2.6805800 
C    -2.1377540    1.1390757   -1.7883128 
C    -1.1925976    2.6358717   -3.4264723 
C    -1.6426399    0.3036302   -3.9954671 
C    -1.2568418    1.6013035   -4.3747066 
H     2.4950997    2.4777853   -0.2975393 
H     1.2578850    3.0937826    2.0030582 
H    -1.8117653   -3.1240403    1.2236064 
H     0.6208060   -2.9654348   -0.2391396 
H     2.2182369    4.7886054   -0.9618569 
H     1.0065912    4.3740057   -2.2012755 
H     0.8499993    1.1769754   -2.4777147 
H     2.4270968    0.7375333   -1.8065280 
H    -1.6243058    2.4830339    2.1159198 
H    -0.4990619    2.7429339    3.4552397 
H     1.4590464    5.3104111    1.2309347 
H    -0.1331883    5.3115822    0.4467839 
H    -4.0023469   -3.2041402   -0.9359917 
H    -2.8995554   -4.5312793   -0.4928645 
H    -2.8965509   -1.1295876    2.1119180 
H    -3.8584111   -0.9102481    0.6396286 
H     1.9168547   -1.8571209   -1.7882491 
H     0.5179187   -1.1103616   -2.5656659 
H    -1.3523150   -4.0249154   -2.3233720 
H    -0.5777719   -4.8881426   -0.9734615 
H     3.9656118    3.5302287   -2.2006938 
H     3.1415650    4.4744848   -3.4692198 
H     1.7739968    2.5513789   -4.1254477 
H     3.3293372    1.7647669   -3.7883343 
H    -1.9443587    4.6689139    3.7835302 
H    -2.2492690    4.8238994    2.0376903 
H    -0.5689815    6.5988963    2.4896318 
H     0.4029626    5.4722349    3.4705040 
H    -3.8508453   -4.7009742    1.7389102 
H    -5.3047858   -4.4156266    0.7576154 
H    -5.5397112   -2.1904554    1.6540591 
H    -4.4572076   -2.7687329    2.9300780 
H     2.0064830   -3.0609204   -3.8928780 
H     0.2554757   -2.8850291   -4.1381867 
H     0.4781550   -5.2498949   -3.4398482 
H     1.6221622   -4.8026628   -2.1482556 
H    -2.0793122    3.3367554   -0.2036708 
H    -0.8967945    4.2492112   -1.1867709 
H    -3.4093507   -1.3506956   -1.7453179 
H    -2.1980214   -2.1125881   -2.7996246 
H    -2.4753363    0.9586497   -0.7610931 
H    -0.7852687    3.6126771   -3.7081087 
H    -1.5907904   -0.5191696   -4.7171063 
H    -0.9446991    1.7930775   -5.4064680 
