103
Energy =
C     0.1700229   -1.3488831    2.8306256 
C     1.3352078   -0.9682084    2.1603594 
C     1.6709490    0.4204520    1.9769971 
H     2.0224193   -1.7371586    1.7879558 
Pd   -0.0203745   -0.0147209    0.6556021 
P     0.0801360    2.3206307   -0.0552513 
P    -1.4042870   -1.6563764   -0.6090016 
H    -0.4255566   -0.5485838    3.2934150 
H     1.2931291    1.1139593    2.7404947 
C    -1.0670030   -5.2928258    3.9655612 
C     0.0597257   -5.1346552    3.1377934 
C     0.4823340   -3.8586344    2.7605166 
C    -0.2228890   -2.7061997    3.1939900 
C    -1.3425038   -2.8836401    4.0448665 
C    -1.7600144   -4.1627234    4.4266232 
H    -1.3943768   -6.2954620    4.2591452 
H     0.6124855   -6.0142441    2.7923388 
H     1.3634304   -3.7540001    2.1218681 
H    -1.8835203   -2.0035215    4.4092806 
H    -2.6243932   -4.2795404    5.0878820 
C     5.3508907    1.6073946    0.0740467 
C     4.6785501    0.4498138   -0.3540010 
C     3.4967128    0.0498348    0.2765471 
C     2.9512416    0.8029926    1.3442641 
C     3.6549544    1.9494133    1.7813849 
C     4.8405624    2.3488154    1.1509724 
H     6.2736301    1.9230445   -0.4233475 
H     5.0738324   -0.1378210   -1.1891301 
H     2.9666964   -0.8381092   -0.0848158 
H     3.2739859    2.5250328    2.6326744 
H     5.3709044    3.2389894    1.5046999 
C     1.5153302    2.5807466   -1.2074894 
C     0.3935520    3.4233508    1.4134410 
C    -2.3052388   -2.8199274    0.5253007 
C    -0.2694166   -2.7470031   -1.6055027 
C     1.6892670    3.9588653   -1.9239988 
C     1.6029245    1.5148994   -2.3262624 
C    -0.7129383    3.2464742    2.5120094 
C     0.5081284    4.9544388    1.1637154 
C    -3.0537999   -4.0329262   -0.1254119 
C    -3.3670879   -2.0744490    1.3775901 
C     0.9169750   -3.3492647   -0.8214074 
C     0.3720895   -1.9964942   -2.8202486 
C     2.1746638    3.6117822   -3.3610093 
C     2.6157065    2.1361631   -3.2980358 
C    -1.2066824    4.6774654    2.8278477 
C    -0.0030339    5.5693609    2.4798631 
C    -4.4959102   -3.9765313    0.4395788 
C    -4.3680047   -3.1801844    1.7501807 
C     1.9486858   -3.6525931   -1.9209957 
C     1.8702335   -2.4055426   -2.8214641 
C    -1.3964352    3.1947708   -0.8545617 
C    -2.7532900   -1.3034984   -1.9040614 
C    -1.9029636    2.3493048   -1.9858177 
C    -2.5422054    0.0523102   -2.5178887 
C    -2.4382122    1.1137726   -1.6145803 
C    -1.6545788    2.5976476   -3.3486052 
C    -2.2734410    0.2953746   -3.8768408 
C    -1.8827661    1.5808228   -4.2907217 
H     2.3845195    2.4290966   -0.5433014 
H     1.3609505    3.0780566    1.8078747 
H    -1.5273373   -3.2071791    1.2034800 
H    -0.9006252   -3.5748989   -1.9786169 
H     2.4267065    4.5707952   -1.3791445 
H     0.7585637    4.5487552   -1.9574329 
H     0.6259657    1.3853874   -2.8245284 
H     1.9103833    0.5361828   -1.9251251 
H    -1.5323554    2.5767925    2.1900200 
H    -0.2699434    2.7809435    3.4107310 
H     1.5377194    5.2502413    0.9041028 
H    -0.1435898    5.2844235    0.3360173 
H    -3.0521684   -4.0104355   -1.2288202 
H    -2.5478426   -4.9686326    0.1682040 
H    -2.9161067   -1.5607994    2.2426002 
H    -3.8833204   -1.2985823    0.7784689 
H     0.6264268   -4.2284972   -0.2225771 
H     1.3257988   -2.5883172   -0.1291570 
H     0.2548569   -0.9036643   -2.7334297 
H    -0.1317364   -2.2922569   -3.7555773 
H     2.9738071    4.2880353   -3.7075917 
H     1.3343552    3.7100536   -4.0712698 
H     2.6277624    1.6451322   -4.2860465 
H     3.6329363    2.0562678   -2.8691535 
H    -1.5527433    4.7882268    3.8691337 
H    -2.0577655    4.9363622    2.1700268 
H    -0.2611075    6.6376925    2.3828014 
H     0.7726615    5.4841111    3.2647911 
H    -4.9361099   -4.9784992    0.5766461 
H    -5.1519170   -3.4261159   -0.2605378 
H    -5.3307407   -2.7884406    2.1206060 
H    -3.9346233   -3.8179128    2.5435982 
H     1.6384465   -4.5535380   -2.4827504 
H     2.9615134   -3.8428505   -1.5252991 
H     2.4788499   -1.5940451   -2.3813441 
H     2.2592020   -2.5809509   -3.8381467 
H    -2.1493003    3.3167564   -0.0551694 
H    -1.0718188    4.1978373   -1.1742163 
H    -3.7183822   -1.3535171   -1.3685435 
H    -2.7406789   -2.1163148   -2.6490149 
H    -2.6449962    0.9300390   -0.5532946 
H    -1.2473085    3.5629571   -3.6683887 
H    -2.3492518   -0.5177687   -4.6071302 
H    -1.6980894    1.7748699   -5.3524750 
