103
Energy =
C     2.2015977   -0.1880928    2.1313446 
C     1.0105834   -0.4336829    2.8245382 
C     0.1680631   -1.5529655    2.4829725 
H     0.6725413    0.2669111    3.5982882 
Pd    0.1364715   -0.1930309    0.7876453 
P    -1.2772492   -1.7431760   -0.4018390 
P     0.3042488    2.0511306   -0.2519951 
H     2.5388483   -0.9581484    1.4212919 
H     0.6784234   -2.4701140    2.1578055 
C     5.0539035    2.9414690    2.8179566 
C     5.1676955    2.1004044    1.6993469 
C     4.2426384    1.0706120    1.5028153 
C     3.1714988    0.8713380    2.4085244 
C     3.0950216    1.7030573    3.5533566 
C     4.0236710    2.7288326    3.7502026 
H     5.7784472    3.7467908    2.9759738 
H     5.9838410    2.2444785    0.9840743 
H     4.3348090    0.4133954    0.6322082 
H     2.3168415    1.5358681    4.3039614 
H     3.9533373    3.3600896    4.6417683 
C    -3.6526109   -2.1561067    4.3906567 
C    -3.2541224   -0.8641171    4.0077101 
C    -2.0082762   -0.6626410    3.4037726 
C    -1.1348523   -1.7503086    3.1627086 
C    -1.5444822   -3.0414030    3.5660744 
C    -2.7913555   -3.2420723    4.1736309 
H    -4.6283627   -2.3132426    4.8613231 
H    -3.9203628   -0.0119445    4.1773449 
H    -1.7130674    0.3461402    3.0890370 
H    -0.8696698   -3.8922254    3.4168523 
H    -3.0885383   -4.2491725    4.4837897 
C    -1.1655254   -3.5266317    0.1265481 
C    -0.8675195   -1.6220654   -2.2068511 
C     1.3549337    2.3295239   -1.7626734 
C     1.0765364    3.1916098    1.0075573 
C     0.1535682   -4.2837269   -0.1492033 
C    -2.2931647   -4.4997250   -0.3489563 
C    -1.4850545   -2.6079307   -3.2194100 
C     0.6490254   -1.6928439   -2.5195576 
C     0.7168572    1.9419631   -3.1155776 
C     2.7060366    1.5639545   -1.7207216 
C     0.2872584    3.2085516    2.3451369 
C     1.2457247    4.6962798    0.5975475 
C    -0.2256081   -5.7238207    0.2332558 
C    -1.6136584   -5.9003527   -0.4177572 
C    -0.7396204   -2.2236005   -4.5121632 
C     0.7183863   -1.9327748   -4.0581651 
C     1.9384110    1.9010367   -4.0516735 
C     3.0529998    1.2406944   -3.2065649 
C     0.6213607    4.5810776    2.9512703 
C     0.5726705    5.5116127    1.7282168 
C    -3.1367840   -1.4086810   -0.2944992 
C    -1.2760913    3.0242691   -0.6619160 
C    -3.3466918   -0.0966160   -1.0013168 
C    -2.3347305    2.1177051   -1.2294814 
C    -2.6882726    1.0094426   -0.4498588 
C    -3.8706812    0.0114569   -2.3037802 
C    -2.8483088    2.2131486   -2.5357591 
C    -3.6610382    1.1860106   -3.0443811 
H    -1.2697786   -3.4480449    1.2216346 
H    -1.2232057   -0.6040666   -2.4643317 
H     1.5574155    3.4166776   -1.7878012 
H     2.0737912    2.7596755    1.1956042 
H     1.0148280   -3.8784893    0.4105311 
H     0.4104337   -4.2499860   -1.2229023 
H    -2.7089105   -4.2205704   -1.3304896 
H    -3.1296813   -4.4793245    0.3693824 
H    -1.2450253   -3.6496300   -2.9385132 
H    -2.5809881   -2.5203090   -3.3033219 
H     1.1682856   -0.7789260   -2.1934122 
H     1.1206910   -2.5290579   -1.9792752 
H     0.2346963    0.9505887   -3.0536086 
H    -0.0556624    2.6569546   -3.4424624 
H     3.4838807    2.1653185   -1.2220269 
H     2.5976556    0.6339728   -1.1305982 
H     0.5582831    2.3618826    2.9936290 
H    -0.8036223    3.1391082    2.1664583 
H     0.8095555    4.9372548   -0.3871909 
H     2.3214076    4.9311381    0.5283114 
H    -0.2995255   -5.8080636    1.3342593 
H     0.5102665   -6.4714337   -0.1072071 
H    -1.4885947   -6.2021889   -1.4728652 
H    -2.2177840   -6.6823285    0.0707919 
H    -1.1974961   -1.3091044   -4.9303310 
H    -0.7999607   -3.0048289   -5.2880115 
H     1.3827429   -2.7837298   -4.2838878 
H     1.1330847   -1.0582321   -4.5863069 
H     2.2247818    2.9350932   -4.3175810 
H     1.7387993    1.3662824   -4.9958573 
H     3.0571896    0.1485414   -3.3653921 
H     4.0547783    1.6056949   -3.4867112 
H     1.6440479    4.5586492    3.3728051 
H    -0.0694699    4.8787294    3.7584064 
H    -0.4818752    5.7188186    1.4666698 
H     1.0633590    6.4847021    1.8970685 
H    -3.6870484   -2.2408914   -0.7609520 
H    -3.3831770   -1.3749547    0.7826633 
H    -1.0084647    3.8448103   -1.3480593 
H    -1.6084127    3.4779499    0.2888429 
H    -2.3028311    0.9342282    0.5753433 
H    -4.4055431   -0.8327039   -2.7527464 
H    -2.6018680    3.0778221   -3.1616422 
H    -4.0816008    1.2753300   -4.0513222 
