103
Energy =
C     2.0151319   -0.1726289    2.3414841 
C     0.7723582   -0.3177401    2.9722924 
C    -0.0929998   -1.4199967    2.6350286 
H     0.4170120    0.4528783    3.6673263 
Pd    0.1074319   -0.1750134    0.8532181 
P    -1.2450355   -1.7432338   -0.3811535 
P     0.3632525    1.9995587   -0.2592399 
H     2.3615324   -1.0103929    1.7172425 
H     0.3960944   -2.3774562    2.4205190 
C     4.9677050    2.8744952    2.9686951 
C     5.0832971    1.9725562    1.8984411 
C     4.1239166    0.9706286    1.7233139 
C     3.0173295    0.8617467    2.6008587 
C     2.9364732    1.7540997    3.6977589 
C     3.9000780    2.7516017    3.8742792 
H     5.7193729    3.6576199    3.1107606 
H     5.9268180    2.0480600    1.2046905 
H     4.2139908    0.2660269    0.8899272 
H     2.1281270    1.6553365    4.4284888 
H     3.8270993    3.4305978    4.7298316 
C    -4.1476316   -1.7123281    4.0674742 
C    -3.5895560   -0.4524732    3.7918416 
C    -2.2664537   -0.3504784    3.3493566 
C    -1.4710990   -1.5080121    3.1651439 
C    -2.0419745   -2.7660768    3.4642484 
C    -3.3666870   -2.8673489    3.9091462 
H    -5.1841496   -1.7913139    4.4104070 
H    -4.1918550    0.4531543    3.9172734 
H    -1.8493434    0.6367545    3.1172740 
H    -1.4321446   -3.6712859    3.3635404 
H    -3.7889168   -3.8510055    4.1390921 
C    -0.9654922   -3.5136586    0.1407178 
C    -0.9597312   -1.5858915   -2.2162201 
C     1.4492486    2.2023395   -1.7546576 
C     1.1038749    3.2042748    0.9601680 
C     0.5355112   -3.9352235    0.3338107 
C    -1.5987040   -4.6324223   -0.7335372 
C    -1.9082316   -2.3056134   -3.2401722 
C     0.4813310   -1.9907739   -2.6324159 
C     0.8341807    1.7083079   -3.0896987 
C     2.7916843    1.4507281   -1.6538852 
C     0.2791804    3.3134275    2.2703186 
C     1.3017347    4.6793855    0.4638308 
C     0.6917554   -5.2686264   -0.4324893 
C    -0.7266816   -5.8624777   -0.4273335 
C    -0.9706163   -3.0731640   -4.2006532 
C     0.3495583   -2.2869047   -4.1349726 
C     2.0513620    1.3180107   -3.9841726 
C     3.3131073    1.5040273   -3.1019018 
C     0.6523779    4.6999117    2.8183041 
C     0.6584921    5.5740210    1.5530907 
C    -3.1023424   -1.4749246   -0.1602197 
C    -1.2180749    2.9425399   -0.7347080 
C    -3.3631780   -0.1606033   -0.8578601 
C    -2.3152905    2.0242038   -1.2067261 
C    -2.6478270    0.9461334   -0.3761475 
C    -3.9921858   -0.0547652   -2.1121090 
C    -2.9107242    2.0996149   -2.4797558 
C    -3.8004902    1.0950993   -2.8953706 
H    -1.4632022   -3.5322820    1.1258690 
H    -1.0748579   -0.4960310   -2.3597375 
H     1.6600472    3.2852087   -1.8385687 
H     2.0900168    2.7767335    1.2086701 
H     0.7320377   -4.1018912    1.4078541 
H     1.2491320   -3.1597750    0.0026000 
H    -1.4999963   -4.3964225   -1.8046518 
H    -2.6709057   -4.7775142   -0.5195765 
H    -2.6631326   -2.9568943   -2.7705867 
H    -2.4640594   -1.5321077   -3.7927268 
H     1.2233272   -1.2146583   -2.3818000 
H     0.7897631   -2.9174226   -2.1195652 
H     0.1870723    0.8332975   -2.9109270 
H     0.1947941    2.4792123   -3.5502222 
H     3.4828940    1.9035777   -0.9234582 
H     2.6079249    0.4045115   -1.3364682 
H     0.5003768    2.4905772    2.9662076 
H    -0.8084687    3.2775816    2.0643746 
H     0.8539894    4.8721840   -0.5262518 
H     2.3806737    4.8863081    0.3643836 
H     1.4508443   -5.9282347    0.0198705 
H     1.0051622   -5.0773533   -1.4764129 
H    -0.8653196   -6.6775256   -1.1578327 
H    -0.9691306   -6.2660946    0.5742580 
H    -1.3870106   -3.1525080   -5.2186038 
H    -0.8002744   -4.1046085   -3.8370037 
H     1.2138462   -2.8378647   -4.5431149 
H     0.2552690   -1.3411526   -4.7020560 
H     2.1014226    1.9349702   -4.8964218 
H     1.9595486    0.2704688   -4.3166253 
H     4.0930735    0.7506511   -3.3043097 
H     3.7639933    2.4959185   -3.2852869 
H     1.6657178    4.6594796    3.2603968 
H    -0.0410660    5.0599275    3.5973159 
H    -0.3827312    5.8182730    1.2716956 
H     1.1925741    6.5299096    1.6838131 
H    -3.6608024   -2.3184781   -0.5991631 
H    -3.2926859   -1.4463539    0.9280891 
H    -0.9534261    3.6971135   -1.4939104 
H    -1.5245486    3.4854463    0.1773829 
H    -2.2017251    0.8874445    0.6256861 
H    -4.5846747   -0.8901605   -2.4996281 
H    -2.6745045    2.9351176   -3.1479224 
H    -4.2939811    1.1761143   -3.8694294 
