103
Energy =
C     2.0493632   -0.2050174    2.3259964 
C     0.8109660   -0.3353704    2.9684312 
C    -0.0564601   -1.4421608    2.6446989 
H     0.4657415    0.4465173    3.6560619 
Pd    0.1134424   -0.1983016    0.8630730 
P    -1.2443639   -1.7505572   -0.3710508 
P     0.3349688    1.9876749   -0.2289746 
H     2.3793181   -1.0467506    1.6980709 
H     0.4356465   -2.3974105    2.4270270 
C     5.0158884    2.8355337    2.9135463 
C     5.0856873    1.9711195    1.8084412 
C     4.1264694    0.9673709    1.6454810 
C     3.0639293    0.8207596    2.5714181 
C     3.0325729    1.6718152    3.7030541 
C     3.9967485    2.6713557    3.8668923 
H     5.7673421    3.6207764    3.0447912 
H     5.8931721    2.0785595    1.0770512 
H     4.1784224    0.2961319    0.7820503 
H     2.2650554    1.5330642    4.4707581 
H     3.9621224    3.3198054    4.7482283 
C    -4.1010158   -1.7776973    4.0959015 
C    -3.5499822   -0.5101226    3.8424517 
C    -2.2294867   -0.3931785    3.3959680 
C    -1.4295765   -1.5426506    3.1842435 
C    -1.9933262   -2.8090578    3.4618887 
C    -3.3151065   -2.9255507    3.9115593 
H    -5.1353495   -1.8682869    4.4425098 
H    -4.1555777    0.3901146    3.9889679 
H    -1.8176415    0.6005276    3.1846910 
H    -1.3798202   -3.7090652    3.3393358 
H    -3.7312281   -3.9155703    4.1247989 
C    -0.9485785   -3.5304943    0.1057738 
C    -0.9520761   -1.5397950   -2.1975621 
C     1.3422224    2.2296936   -1.7730625 
C     1.1455537    3.1346972    0.9989526 
C     0.5547647   -3.9387599    0.3073119 
C    -1.5534524   -4.6290024   -0.8129452 
C    -1.8847080   -2.2229266   -3.2588725 
C     0.4944495   -1.9270789   -2.6072188 
C     0.6696719    1.8116979   -3.0978904 
C     2.6776392    1.4368035   -1.7450508 
C     0.2959039    3.2756426    2.3079225 
C     1.4369175    4.5866990    0.5254223 
C     0.7350890   -5.2563238   -0.4816537 
C    -0.6788087   -5.8600283   -0.5191230 
C    -0.9282709   -2.9125914   -4.2615653 
C     0.3895598   -2.1289169   -4.1269577 
C     1.8643859    1.7476827   -4.0658280 
C     2.9979344    1.1005624   -3.2347888 
C     0.1115158    4.7961132    2.5195825 
C     1.3347508    5.4122440    1.8206713 
C    -3.1021163   -1.5046917   -0.1398919 
C    -1.2678132    2.9465813   -0.5814751 
C    -3.3790906   -0.1719179   -0.7947310 
C    -2.3665181    2.0396530   -1.0734670 
C    -2.6743918    0.9265931   -0.2803206 
C    -4.0195258   -0.0313415   -2.0397952 
C    -2.9797996    2.1546997   -2.3348987 
C    -3.8558829    1.1507859   -2.7802032 
H    -1.4594021   -3.5851573    1.0832318 
H    -1.0657743   -0.4456273   -2.3060242 
H     1.5590491    3.3128255   -1.8309481 
H     2.1040146    2.6487217    1.2451637 
H     0.7422232   -4.1207121    1.3803390 
H     1.2620520   -3.1493381   -0.0040556 
H    -1.4308824   -4.3622009   -1.8748182 
H    -2.6293232   -4.7875214   -0.6290218 
H    -2.6190164   -2.9210835   -2.8253377 
H    -2.4643154   -1.4348236   -3.7643766 
H     1.2340116   -1.1725554   -2.2922781 
H     0.7860778   -2.8860187   -2.1460148 
H     0.2032480    0.8166240   -2.9952326 
H    -0.1199589    2.5107308   -3.4198554 
H     3.4762021    2.0184329   -1.2550110 
H     2.5490422    0.5102557   -1.1530120 
H     0.8580608    2.8401644    3.1488859 
H    -0.6679097    2.7344385    2.2606164 
H     0.6712250    4.9402244   -0.1904205 
H     2.4173496    4.6705281    0.0278189 
H     1.4888495   -5.9200499   -0.0264572 
H     1.0695691   -5.0426630   -1.5145770 
H    -0.7966311   -6.6582077   -1.2715587 
H    -0.9387697   -6.2891850    0.4673288 
H    -1.3324930   -2.9223436   -5.2874365 
H    -0.7559954   -3.9661511   -3.9697961 
H     1.2605074   -2.6547980   -4.5535723 
H     0.3069618   -1.1491259   -4.6353396 
H     2.1465642    2.7743745   -4.3627704 
H     1.6380221    1.1905336   -4.9907446 
H     3.0044455    0.0068638   -3.3842492 
H     3.9924514    1.4675298   -3.5371942 
H     0.0272800    5.0680571    3.5851830 
H    -0.8122385    5.1438538    2.0193391 
H     1.2364128    6.4953161    1.6349185 
H     2.2410729    5.2560099    2.4359858 
H    -3.6532245   -2.3398129   -0.6037546 
H    -3.2904949   -1.5114733    0.9492913 
H    -1.0386832    3.7520465   -1.2989623 
H    -1.5480361    3.4231022    0.3748670 
H    -2.2172192    0.8380504    0.7142033 
H    -4.6023122   -0.8614622   -2.4527358 
H    -2.7677416    3.0203140   -2.9721639 
H    -4.3615187    1.2606545   -3.7451508 
