103
Energy =
C    -0.5931582   -0.5054243    3.1581287 
C     0.7828606   -0.5833331    2.8658286 
C     1.4841723    0.6146089    2.5006341 
H     1.2780865   -1.5602155    2.8087775 
Pd   -0.1152751    0.1718168    1.0125890 
P     0.0863381    2.3607702   -0.1220118 
P    -1.3855598   -1.5116137   -0.2022955 
H    -1.0153277    0.4991188    3.3165694 
H     1.1842278    1.5396567    3.0063797 
C    -3.2235523   -3.7220482    4.2132797 
C    -3.7397726   -2.4920319    3.7707673 
C    -2.8703149   -1.4423816    3.4588671 
C    -1.4678294   -1.6113791    3.5597130 
C    -0.9632548   -2.8429536    4.0382449 
C    -1.8363001   -3.8882857    4.3599057 
H    -3.9028148   -4.5435881    4.4624929 
H    -4.8214876   -2.3529961    3.6759536 
H    -3.2694536   -0.4833441    3.1092817 
H     0.1143377   -2.9754614    4.1748902 
H    -1.4350521   -4.8355545    4.7341139 
C     5.4541076    0.5962607    0.8426468 
C     4.6018475   -0.5014262    0.6341066 
C     3.3184681   -0.5101909    1.1883575 
C     2.8547526    0.5827402    1.9630719 
C     3.7304803    1.6728584    2.1751923 
C     5.0155778    1.6797147    1.6196649 
H     6.4575401    0.6037802    0.4052150 
H     4.9386143   -1.3496382    0.0293068 
H     2.6513412   -1.3565265    0.9907959 
H     3.4018373    2.5141898    2.7958326 
H     5.6804812    2.5311432    1.7977453 
C     1.1799652    2.6021972   -1.6069187 
C     0.7996562    3.6037390    1.0806293 
C    -1.3027352   -3.2013852    0.5780870 
C    -0.6696019   -1.5295790   -1.9200453 
C     0.7324756    1.9413341   -2.9280928 
C     2.6266538    2.0824748   -1.3645819 
C    -0.0817012    3.7733803    2.3660336 
C     1.0268553    5.0452969    0.5330059 
C     0.1469363   -3.7380796    0.8049281 
C    -2.0833941   -4.3501627   -0.1397064 
C    -1.1443232   -2.5083491   -3.0139432 
C     0.8731771   -1.6561157   -1.9900539 
C     2.0276294    1.9673708   -3.7591730 
C     3.1288294    1.5764457   -2.7493171 
C    -0.4588445    5.2696647    2.4107081 
C     0.7416078    5.9570989    1.7411241 
C     0.2476800   -5.0004360   -0.0714237 
C    -1.1719555   -5.5867179    0.0058516 
C    -0.2014114   -2.1415504   -4.1767983 
C     1.1746333   -1.8756362   -3.5034364 
C    -1.5275800    3.2309719   -0.6180969 
C    -3.2382005   -1.2897278   -0.4958935 
C    -2.4531169    2.2782653   -1.3256017 
C    -3.3711584    0.0107302   -1.2455262 
C    -2.8539583    1.1461041   -0.6064153 
C    -2.7823229    2.3579841   -2.6914094 
C    -3.6975077    0.0989289   -2.6116433 
C    -3.4486916    1.2897643   -3.3136424 
H     1.2067022    3.6958919   -1.7713653 
H     1.7770068    3.1707565    1.3504226 
H    -1.7718913   -3.0203528    1.5588053 
H    -0.9420018   -0.5086982   -2.2590694 
H    -0.1077745    2.4673216   -3.4081157 
H     0.4080565    0.9021471   -2.7502369 
H     2.6280992    1.2602869   -0.6288094 
H     3.2661391    2.8764627   -0.9450589 
H    -0.9641972    3.1056116    2.3779599 
H     0.5151870    3.5168676    3.2598376 
H     2.0399543    5.1711072    0.1161911 
H     0.3113631    5.2875841   -0.2740095 
H     0.9286058   -2.9882388    0.5906989 
H     0.2577374   -4.0166021    1.8671658 
H    -3.0807555   -4.4960575    0.3067821 
H    -2.2395113   -4.1277820   -1.2078868 
H    -2.2120320   -2.4021352   -3.2667249 
H    -0.9673957   -3.5530752   -2.7033394 
H     1.2087617   -2.5334263   -1.4140218 
H     1.3822982   -0.7763570   -1.5596577 
H     2.1992592    2.9935800   -4.1336067 
H     1.9879354    1.3029070   -4.6393705 
H     3.2504801    0.4791255   -2.7237205 
H     4.1115136    1.9987444   -3.0161238 
H    -0.6605810    5.6259288    3.4347354 
H    -1.3716848    5.4534292    1.8128099 
H     0.5460390    7.0033941    1.4514869 
H     1.6079674    5.9585015    2.4295638 
H     1.0315771   -5.6967787    0.2711249 
H     0.4849892   -4.7256370   -1.1170651 
H    -1.3734497   -6.3561490   -0.7586717 
H    -1.3254937   -6.0542867    0.9964399 
H    -0.5716391   -1.2209378   -4.6631958 
H    -0.1557760   -2.9253029   -4.9510310 
H     1.8572856   -2.7315315   -3.6370680 
H     1.6740162   -1.0003462   -3.9495874 
H    -1.9743410    3.6003522    0.3222581 
H    -1.2670237    4.1056394   -1.2373129 
H    -3.7113796   -1.2704263    0.5025695 
H    -3.6359902   -2.1535079   -1.0539697 
H    -2.6192429    1.0903369    0.4646828 
H    -2.5029451    3.2433505   -3.2730854 
H    -4.1182258   -0.7677634   -3.1331742 
H    -3.7231564    1.3637882   -4.3709496 
