103
Energy =
C     0.3857123   -0.9814124    2.5508299 
C     1.5257810   -0.8713683    1.7484907 
C     2.0486793    0.4126724    1.3539748 
H     2.0511450   -1.7766120    1.4207478 
Pd    0.1584577    0.0965814    0.2826030 
P     0.1777980    2.4313934   -0.4334495 
P    -1.4959992   -1.4799059   -0.6849666 
H    -0.0377915   -0.0488639    2.9502503 
H     1.8939308    1.2435378    2.0552842 
C    -1.3216267   -4.4993002    4.3036648 
C    -0.2324384   -4.6284384    3.4224583 
C     0.3428218   -3.4959364    2.8434679 
C    -0.1687359   -2.2026730    3.1248510 
C    -1.2504149   -2.0901957    4.0338697 
C    -1.8218006   -3.2255423    4.6161990 
H    -1.7690053   -5.3904477    4.7553363 
H     0.1709978   -5.6198848    3.1935745 
H     1.1936522   -3.6152398    2.1676282 
H    -1.6388351   -1.0963459    4.2822176 
H    -2.6551697   -3.1192318    5.3175942 
C     5.7321439    0.5748743   -0.8722765 
C     4.7461391   -0.3653446   -1.2147705 
C     3.5468074   -0.4170217   -0.4971392 
C     3.3050286    0.4719078    0.5757627 
C     4.3087472    1.4083028    0.9135794 
C     5.5104036    1.4592271    0.1959011 
H     6.6704053    0.6171675   -1.4345635 
H     4.9114550   -1.0552486   -2.0488605 
H     2.7724461   -1.1368972   -0.7830224 
H     4.1477798    2.0918121    1.7551987 
H     6.2790702    2.1877959    0.4733966 
C     1.8313563    3.2683117   -0.5503740 
C    -0.7201724    3.3362571    0.9327371 
C    -2.3953139   -2.5011700    0.5765417 
C    -0.4543775   -2.7019050   -1.6397951 
C     1.8252265    4.8221438   -0.5399403 
C     2.5900616    2.8478741   -1.8578445 
C    -0.0878293    3.2688360    2.3355532 
C    -2.1580161    2.8176657    1.1868864 
C    -3.2086878   -3.7272790    0.1114240 
C    -3.4102766   -1.6735379    1.4067825 
C     0.4992854   -3.5480983   -0.7735881 
C     0.4967534   -2.0390515   -2.6741487 
C     3.0803896    5.1808522   -1.3566368 
C     3.0291289    4.1760238   -2.5203142 
C    -1.1981394    3.8533424    3.2305106 
C    -2.5240293    3.3242668    2.6144176 
C    -3.9824135   -4.0898307    1.3939238 
C    -4.3955764   -2.7243117    2.0034093 
C     1.4490337   -4.1673028   -1.8147776 
C     1.6729863   -3.0442594   -2.8616752 
C    -0.6702121    3.1687752   -1.9780733 
C    -2.8729053   -1.1246620   -1.9407024 
C    -1.2332575    2.1024823   -2.8719337 
C    -2.3921138   -0.0473936   -2.8713493 
C    -2.0648903    1.1645878   -2.2581965 
C    -0.8558042    1.8973017   -4.2110476 
C    -2.0398434   -0.2376063   -4.2195767 
C    -1.3070614    0.7543846   -4.8924753 
H     2.4066461    2.9227319    0.3219712 
H    -0.7581602    4.3975203    0.6168759 
H    -1.6055086   -2.8634243    1.2581896 
H    -1.1585939   -3.3814691   -2.1580333 
H     1.8303478    5.2304685    0.4847270 
H     0.9319709    5.2302327   -1.0491540 
H     1.9720623    2.2274865   -2.5322352 
H     3.4643595    2.2358924   -1.5873905 
H     0.0904479    2.2099771    2.6040925 
H     0.8734285    3.8046508    2.4155905 
H    -2.8735727    3.1500181    0.4159940 
H    -2.1446548    1.7098501    1.1651699 
H    -3.9152890   -3.4489749   -0.6929352 
H    -2.5772374   -4.5501523   -0.2651396 
H    -2.9008101   -1.0688515    2.1746913 
H    -3.9568387   -0.9631790    0.7599985 
H    -0.0194004   -4.2955226   -0.1497576 
H     1.0605504   -2.8763719   -0.0973257 
H     0.8612432   -1.0740783   -2.2706734 
H    -0.0182761   -1.8019838   -3.6165088 
H     3.9869811    5.0085673   -0.7461540 
H     3.0935051    6.2343294   -1.6841166 
H     2.2737290    4.5071645   -3.2583359 
H     3.9867831    4.0801850   -3.0587196 
H    -1.1650038    4.9558796    3.1761561 
H    -1.0753119    3.5785341    4.2916090 
H    -2.9479957    2.5019543    3.2161107 
H    -3.2901242    4.1160420    2.5773666 
H    -3.3009962   -4.6193332    2.0843252 
H    -4.8425298   -4.7534245    1.2038642 
H    -5.4340915   -2.4708230    1.7310400 
H    -4.3497509   -2.7454903    3.1048678 
H     0.9519050   -5.0345531   -2.2850857 
H     2.3886111   -4.5353141   -1.3686366 
H     2.6413050   -2.5392961   -2.7008417 
H     1.7007072   -3.4504417   -3.8861831 
H    -1.4644907    3.8357146   -1.5976458 
H     0.0672814    3.7985377   -2.5004537 
H    -3.7594566   -0.8032513   -1.3656013 
H    -3.1182813   -2.0683791   -2.4554870 
H    -2.3551739    1.3170400   -1.2126781 
H    -0.2026031    2.6173977   -4.7164317 
H    -2.3018685   -1.1704492   -4.7312249 
H    -1.0367304    0.6085299   -5.9434596 
