103
Energy =
C     0.5088741   -1.8990221    1.5393986 
C     1.3023159   -0.7670568    1.9327213 
C     0.8274515    0.1957225    2.8269609 
H     2.3304866   -0.6927080    1.5593179 
Pd   -0.3117037   -0.1026861    0.5367692 
P     0.1423864    2.2174686   -0.2914173 
P    -2.0088127   -1.4456414   -0.6288097 
H    -0.2617617   -2.2172132    2.2508620 
H    -0.1609952    0.0244873    3.2747700 
C     2.3258331   -5.0858205   -0.7200597 
C     2.6548445   -3.7494573   -1.0020668 
C     2.0683707   -2.7111943   -0.2713598 
C     1.1379883   -2.9855400    0.7595573 
C     0.8319901   -4.3368957    1.0453399 
C     1.4175531   -5.3754169    0.3108145 
H     2.7806920   -5.8977213   -1.2964302 
H     3.3646846   -3.5160236   -1.8026214 
H     2.3076643   -1.6723444   -0.5210067 
H     0.1330798   -4.5719791    1.8555333 
H     1.1685119   -6.4151517    0.5463379 
C     3.0480486    3.3259512    4.7331018 
C     3.6691756    2.5473321    3.7392654 
C     2.9620544    1.5277598    3.1001826 
C     1.6077162    1.2662938    3.4368577 
C     1.0045134    2.0494063    4.4525016 
C     1.7160893    3.0685482    5.0932091 
H     3.6069623    4.1240816    5.2319678 
H     4.7125778    2.7372173    3.4684550 
H     3.4639232    0.9305800    2.3337533 
H    -0.0328541    1.8449869    4.7394370 
H     1.2346063    3.6604538    5.8777966 
C     1.5889577    1.8986100   -1.4332801 
C     0.7732707    3.4178550    0.9782224 
C    -3.3065329   -2.0965262    0.5689296 
C    -1.2972348   -2.9450059   -1.4605567 
C     1.3630124    0.6889221   -2.3708215 
C     2.8845079    1.4966943   -0.6950413 
C    -0.3360024    3.9319276    1.9331282 
C     1.4772713    4.7082935    0.5050976 
C    -3.9536234   -0.9341557    1.3675031 
C    -2.7811022   -3.0801127    1.6533978 
C    -0.5432942   -2.5834483   -2.7879281 
C    -2.2769868   -4.0907662   -1.8205523 
C     2.7758956    0.3177270   -2.8743797 
C     3.7638160    0.8324109   -1.7834524 
C     0.2320235    5.2506586    2.5400369 
C     1.5825920    5.5031115    1.8209610 
C    -3.0811949   -0.8337582    2.6263273 
C    -2.8211421   -2.3052966    3.0038173 
C    -1.0185800   -3.6365818   -3.8208682 
C    -1.5469472   -4.8060496   -2.9715282 
C    -0.9361822    3.3588971   -1.3527481 
C    -3.2166758   -0.8308636   -1.9733206 
C    -1.5879556    2.5156078   -2.4096975 
C    -2.6988361    0.3638786   -2.7173871 
C    -2.3755974    1.4673615   -1.9271824 
C    -1.2827073    2.5562470   -3.7819727 
C    -2.3828731    0.3977937   -4.0884027 
C    -1.7220416    1.5176639   -4.6211184 
H     1.7645249    2.8176663   -2.0260020 
H     1.5027545    2.8427085    1.5743047 
H    -4.0430618   -2.5918955   -0.0881241 
H    -0.5634952   -3.3497909   -0.7496901 
H     0.6435467    0.8867801   -3.1799870 
H     0.9389167   -0.1360840   -1.7619606 
H     2.6220542    0.7579099    0.0844071 
H     3.3823882    2.3406169   -0.1897222 
H    -1.2654421    4.1425927    1.3746500 
H    -0.5913472    3.1782002    2.6949468 
H     2.4538348    4.5221809    0.0268038 
H     0.8478897    5.2585383   -0.2190093 
H    -4.0144321    0.0155890    0.8055986 
H    -4.9873203   -1.2168498    1.6398522 
H    -3.4275423   -3.9728026    1.6902238 
H    -1.7726535   -3.4493145    1.4077175 
H     0.5425528   -2.6512140   -2.6141667 
H    -0.7439260   -1.5553214   -3.1324930 
H    -3.2475182   -3.7045306   -2.1870017 
H    -2.4882714   -4.7413601   -0.9552483 
H     2.9794334    0.8102083   -3.8406449 
H     2.8658547   -0.7685467   -3.0495652 
H     4.3855528    0.0247427   -1.3601760 
H     4.4592084    1.5740519   -2.2117766 
H     0.3665195    5.1710658    3.6314409 
H    -0.4688318    6.0841075    2.3631361 
H     1.7906617    6.5741640    1.6599142 
H     2.4126240    5.0908061    2.4229403 
H    -3.5469707   -0.2476500    3.4363539 
H    -2.1298248   -0.3286076    2.3513406 
H    -1.9012964   -2.4385772    3.6016812 
H    -3.6519086   -2.6804762    3.6260774 
H    -0.2193653   -3.9317739   -4.5211155 
H    -1.8451386   -3.2216530   -4.4281347 
H    -2.1988935   -5.4968758   -3.5327502 
H    -0.7024056   -5.3943164   -2.5653670 
H    -1.6771790    3.8280439   -0.6818863 
H    -0.2920238    4.1517443   -1.7676128 
H    -4.1520779   -0.5833428   -1.4417527 
H    -3.4264730   -1.6894291   -2.6327663 
H    -2.6239502    1.4440663   -0.8594752 
H    -0.6737843    3.3718339   -4.1873379 
H    -2.6349665   -0.4507861   -4.7340340 
H    -1.4963205    1.5540681   -5.6919114 
