96
Energy =
C     2.0808352    1.7037722    1.8277974 
C     0.9568585    1.5644344    2.6980219 
C     0.5450379    0.3072855    3.1939526 
H     0.3214011    2.4436728    2.8669282 
Pd    0.5830897    0.3683091    0.8808940 
P    -1.2817645   -1.0140396    0.5162834 
P     1.3581849    0.5512881   -1.3142471 
H     2.9110175    0.9911209    1.9475451 
H     1.2860100   -0.5068809    3.1786078 
C     3.1471045    5.5595762    0.2389290 
C     4.1383032    4.6816798    0.7005921 
C     3.7884144    3.4176744    1.1922256 
C     2.4378849    3.0157791    1.2444432 
C     1.4489909    3.9026958    0.7590511 
C     1.7999581    5.1620116    0.2620866 
H     3.4222929    6.5461655   -0.1478791 
H     5.1915307    4.9788519    0.6728198 
H     4.5677162    2.7359468    1.5482371 
H     0.3984036    3.5876201    0.7489047 
H     1.0223333    5.8347043   -0.1146800 
C    -2.7914733   -0.4885395    5.7890302 
C    -2.6441118    0.7900166    5.2244457 
C    -1.5668877    1.0673792    4.3794580 
C    -0.6125534    0.0683793    4.0703343 
C    -0.7688379   -1.2086604    4.6569528 
C    -1.8456408   -1.4842058    5.5067223 
H    -3.6357171   -0.7013463    6.4528410 
H    -3.3720597    1.5759810    5.4502420 
H    -1.4662753    2.0753854    3.9653078 
H    -0.0386924   -1.9939667    4.4359985 
H    -1.9454945   -2.4814627    5.9464640 
O     1.0799380   -2.9603205   -3.4341827 
O    -0.9264575   -3.6181321   -2.5256557 
C     0.5405462   -1.8644514   -2.6991092 
C    -0.3899941   -2.5812689   -1.7071919 
C     0.0795087   -4.0023086   -3.4878833 
C     1.7308346   -1.0803304   -2.1532471 
C    -1.5701129   -1.7790719   -1.1570566 
C    -0.5794397   -4.0405573   -4.8632657 
C     0.7447082   -5.3119336   -3.0746424 
C     2.9567679    1.4210954   -1.5610017 
C     0.1676446    1.3855847   -2.4307949 
C    -1.2724561   -2.4775541    1.6297008 
C    -2.8550618   -0.1026251    0.7784696 
C     4.1435568    0.7851218   -1.1372156 
C     0.4012607    1.4632481   -3.8217040 
C    -0.0370512   -3.1330319    1.8254309 
C    -4.1091262   -0.6388611    0.4130945 
C     3.0258913    2.7006370   -2.1436423 
C    -1.0126202    1.9355575   -1.8950731 
C    -2.4222867   -2.9662302    2.2774704 
C    -2.7988307    1.1965275    1.3205019 
C     5.3840177    1.4053865   -1.3332217 
C    -0.5428186    2.0732948   -4.6569368 
C     0.0397890   -4.2776336    2.6296565 
C    -5.2787810    0.1085476    0.6070214 
C     4.2709457    3.3179349   -2.3308039 
C    -1.9566206    2.5440724   -2.7349270 
C    -2.3387829   -4.1059292    3.0905673 
C    -3.9685331    1.9438681    1.5094881 
C     5.4501068    2.6702244   -1.9378050 
C    -1.7229475    2.6111038   -4.1157375 
C    -1.1138213   -4.7666519    3.2629675 
C    -5.2113217    1.3984324    1.1564048 
H    -0.0747862   -1.2169267   -3.3594086 
H     0.2166822   -3.0179539   -0.8838004 
H     2.4077165   -0.8611175   -2.9969001 
H     2.2930795   -1.7074912   -1.4398631 
H    -2.4208096   -2.4736945   -1.0549466 
H    -1.8686593   -0.9733350   -1.8510807 
H    -0.9917072   -3.0472839   -5.1047190 
H    -1.4014687   -4.7749708   -4.8694315 
H     0.1598990   -4.3219270   -5.6303997 
H     1.1453362   -5.2190038   -2.0519160 
H     1.5757767   -5.5470384   -3.7595457 
H     0.0122820   -6.1348416   -3.1014749 
H     4.1055094   -0.2011190   -0.6600228 
H     1.3207551    1.0519413   -4.2527163 
H     0.8723749   -2.7331438    1.3596772 
H    -4.1826173   -1.6378053   -0.0286399 
H     2.1122284    3.2173330   -2.4512774 
H    -1.1942504    1.8779134   -0.8165069 
H    -3.3795162   -2.4474577    2.1725859 
H    -1.8236932    1.6207374    1.5841366 
H     6.3007438    0.8983262   -1.0148179 
H    -0.3584183    2.1286115   -5.7347152 
H     1.0014141   -4.7819553    2.7700248 
H    -6.2463678   -0.3173177    0.3223864 
H     4.3143450    4.3139107   -2.7826694 
H    -2.8733010    2.9622132   -2.3066546 
H    -3.2366495   -4.4730428    3.5982243 
H    -3.9087281    2.9519784    1.9327318 
H     6.4200191    3.1538013   -2.0924819 
H    -2.4589833    3.0837643   -4.7742719 
H    -1.0548588   -5.6569237    3.8974946 
H    -6.1276585    1.9794459    1.3030137 
