96
Energy =
C     2.1018882    1.6099278    1.6260659 
C     1.1080113    1.4374705    2.6221136 
C     0.8127921    0.1564196    3.1656288 
H     0.4571909    2.2819341    2.8798201 
Pd    0.4835847    0.1655550    0.9407886 
P    -1.0498255   -1.6129799    0.8079237 
P     0.5309470    0.7699043   -1.3374698 
H     2.8890105    0.8424497    1.5731638 
H     1.6214265   -0.5901443    3.1730173 
C     3.2588712    5.3529262   -0.1437348 
C     2.0609670    5.2715407    0.5860263 
C     1.6526617    4.0556778    1.1395224 
C     2.4460388    2.8932691    0.9923004 
C     3.6390038    2.9863359    0.2388828 
C     4.0412249    4.2032069   -0.3244459 
H     3.5762532    6.3084643   -0.5737073 
H     1.4373264    6.1612486    0.7167137 
H     0.7084592    4.0136510    1.6908008 
H     4.2629475    2.0961621    0.1076892 
H     4.9736693    4.2553420   -0.8958799 
C    -2.2638810   -0.5178281    6.0994083 
C    -1.1156702   -1.3216655    6.0687830 
C    -0.1288149   -1.1040683    5.0998463 
C    -0.2648356   -0.0707365    4.1480572 
C    -1.4310289    0.7285655    4.1878331 
C    -2.4192693    0.5072969    5.1515911 
H    -3.0373539   -0.6899756    6.8548428 
H    -0.9881709   -2.1262354    6.7997662 
H     0.7652371   -1.7357171    5.0830686 
H    -1.5677631    1.5300894    3.4534284 
H    -3.3157256    1.1360285    5.1654082 
O     0.0798192   -1.6502280   -3.8661270 
O     0.4187146   -3.4881535   -2.5239841 
C    -0.6933197   -1.4848920   -2.6795506 
C     0.0868317   -2.3789249   -1.6989025 
C     0.6086370   -2.9958101   -3.8711009 
C    -0.8184445    0.0123903   -2.3796949 
C    -0.6273237   -2.9065517   -0.4633866 
C    -0.1989696   -3.8836654   -4.8125779 
C     2.0950355   -2.9179733   -4.2003454 
C     2.0928152    0.4602222   -2.2448808 
C     0.1562681    2.5577046   -1.5448069 
C    -1.3409970   -2.6625526    2.2885392 
C    -2.7126977   -0.9712562    0.3586575 
C     3.2012732   -0.0648834   -1.5527417 
C     1.0177868    3.4544484   -2.2032751 
C    -2.5692870   -2.6531818    2.9756138 
C    -3.6580423   -1.7199618   -0.3715297 
C     2.2031165    0.7282924   -3.6257452 
C    -1.0600005    3.0333685   -1.0067180 
C    -0.2982331   -3.4995560    2.7411057 
C    -3.0514262    0.3285017    0.7902913 
C     4.4118069   -0.2973557   -2.2209823 
C     0.6510989    4.8005191   -2.3457112 
C    -2.7608085   -3.4985281    4.0779957 
C    -4.9076297   -1.1649385   -0.6830092 
C     3.4164187    0.5050514   -4.2881872 
C    -1.4200666    4.3784118   -1.1534481 
C    -0.5015068   -4.3519573    3.8332319 
C    -4.3043488    0.8771750    0.4862630 
C     4.5224891   -0.0022993   -3.5877682 
C    -0.5663333    5.2645010   -1.8293700 
C    -1.7366693   -4.3574806    4.4996442 
C    -5.2316780    0.1328658   -0.2587966 
H    -1.7140229   -1.9056163   -2.8174721 
H     1.0100784   -1.8437899   -1.3843435 
H    -1.7544330    0.2155434   -1.8325606 
H    -0.8773641    0.5556544   -3.3380584 
H     0.0453740   -3.6209014    0.0398409 
H    -1.5313605   -3.4726734   -0.7445807 
H    -1.2666767   -3.8413193   -4.5424453 
H     0.1433985   -4.9283864   -4.7332765 
H    -0.0766348   -3.5429750   -5.8534054 
H     2.6137576   -2.3199730   -3.4343235 
H     2.2417390   -2.4366735   -5.1807831 
H     2.5295886   -3.9302398   -4.2268687 
H     3.1074748   -0.3018143   -0.4869541 
H     1.9804278    3.1131374   -2.5930272 
H    -3.3787669   -1.9932298    2.6497419 
H    -3.4309230   -2.7389856   -0.6989740 
H     1.3436352    1.1060416   -4.1874255 
H    -1.7314762    2.3469921   -0.4791599 
H     0.6771818   -3.4926129    2.2394701 
H    -2.3201814    0.9057206    1.3670226 
H     5.2664503   -0.7093961   -1.6747154 
H     1.3307126    5.4903552   -2.8561297 
H    -3.7193159   -3.4846115    4.6065113 
H    -5.6320897   -1.7516477   -1.2570304 
H     3.4956085    0.7179687   -5.3591273 
H    -2.3702451    4.7349421   -0.7419457 
H     0.3076946   -5.0099815    4.1664431 
H    -4.5549122    1.8869646    0.8275140 
H     5.4672740   -0.1797090   -4.1117280 
H    -0.8474486    6.3162419   -1.9457278 
H    -1.8958224   -5.0241040    5.3533658 
H    -6.2082243    0.5616613   -0.5058025 
