96
Energy =
C     0.0164923    0.4912633    3.1432432 
C     1.2045187    1.0924683    2.6301209 
C     1.1754708    2.2833101    1.8691447 
H     2.1424885    0.5248884    2.6865857 
Pd   -0.1155787    0.6179048    0.9356658 
P    -1.6679762   -1.1264802    0.6920027 
P     0.1498702    1.0414584   -1.3771688 
H    -0.8159401    1.1551547    3.4201989 
H     0.2812235    2.9204940    1.9539805 
C     0.0320725   -3.3366951    5.1171121 
C     0.8840525   -3.1121524    4.0225831 
C     0.8840142   -1.8714960    3.3757530 
C     0.0300349   -0.8300008    3.8090845 
C    -0.8280314   -1.0738795    4.9018539 
C    -0.8226387   -2.3139078    5.5528184 
H     0.0320396   -4.3075605    5.6230930 
H     1.5485628   -3.9082209    3.6704032 
H     1.5377928   -1.7143519    2.5089294 
H    -1.5037857   -0.2828717    5.2427282 
H    -1.4954094   -2.4832064    6.3994270 
C     4.6285980    4.1999248    0.1667561 
C     3.3375047    4.5500515   -0.2576706 
C     2.2206954    3.9303489    0.3101230 
C     2.3694600    2.9317063    1.2996283 
C     3.6764538    2.5945557    1.7222394 
C     4.7924965    3.2273038    1.1651074 
H     5.5034314    4.6884278   -0.2740587 
H     3.2013809    5.3062695   -1.0370375 
H     1.2178518    4.2036219   -0.0340753 
H     3.8240458    1.8526490    2.5136304 
H     5.7959329    2.9638115    1.5150296 
O     1.5478896   -1.9338563   -2.7103992 
O     1.3543797   -3.3189352   -0.8825896 
C     0.2389820   -1.7795923   -2.1664762 
C     0.4977882   -2.1997776   -0.7089382 
C     2.1261408   -3.1026271   -2.0960627 
C    -0.2937588   -0.3836623   -2.5020059 
C    -0.6868745   -2.6087830    0.1629794 
C     1.9524613   -4.3299483   -2.9868582 
C     3.5763710   -2.7868393   -1.7499717 
C    -0.9369319    2.3847445   -2.0072248 
C     1.8549103    1.4771539   -1.8966435 
C    -2.6646128   -1.6641320    2.1350532 
C    -2.9547994   -0.8279671   -0.5867671 
C    -1.3541751    3.3829808   -1.1017766 
C     2.9335122    0.9197164   -1.1842092 
C    -3.4710104   -0.6870243    2.7568022 
C    -3.5099401   -1.8609142   -1.3696414 
C    -1.3913288    2.4403704   -3.3414826 
C     2.1085780    2.3071686   -3.0060887 
C    -2.6826627   -2.9861575    2.6150763 
C    -3.3968541    0.4970249   -0.7743300 
C    -2.1988975    4.4196647   -1.5192949 
C     4.2497502    1.1675260   -1.5898476 
C    -4.2917662   -1.0321215    3.8363885 
C    -4.4680716   -1.5599565   -2.3474625 
C    -2.2390262    3.4773555   -3.7569406 
C     3.4283579    2.5549264   -3.4069680 
C    -3.5034535   -3.3248397    3.7012676 
C    -4.3597072    0.7934251   -1.7484740 
C    -2.6435268    4.4678869   -2.8497007 
C     4.4988287    1.9830714   -2.7035565 
C    -4.3094824   -2.3539193    4.3103969 
C    -4.8888971   -0.2341510   -2.5426710 
H    -0.4594693   -2.5187432   -2.6192232 
H     1.0398739   -1.3696554   -0.1942848 
H    -1.3948355   -0.4066440   -2.5282611 
H     0.0655696   -0.1376439   -3.5158992 
H    -0.2820660   -3.0468241    1.0917174 
H    -1.3072095   -3.3758877   -0.3304430 
H     0.8902320   -4.4583050   -3.2515555 
H     2.2912449   -5.2333530   -2.4540133 
H     2.5418739   -4.2142289   -3.9107992 
H     3.6131716   -1.9512117   -1.0342815 
H     4.1256948   -2.4949776   -2.6598056 
H     4.0606035   -3.6696250   -1.3026467 
H    -1.0308874    3.3298663   -0.0561162 
H     2.7386077    0.3026470   -0.2995592 
H    -3.4582113    0.3466644    2.3908716 
H    -3.1987987   -2.9006580   -1.2255851 
H    -1.0947116    1.6761983   -4.0658085 
H     1.2804825    2.7684422   -3.5537593 
H    -2.0589817   -3.7601902    2.1592487 
H    -2.9678742    1.3033662   -0.1701043 
H    -2.5156312    5.1858581   -0.8042100 
H     5.0823374    0.7346357   -1.0267556 
H    -4.9178714   -0.2689156    4.3100061 
H    -4.8894695   -2.3648205   -2.9585397 
H    -2.5855600    3.5088808   -4.7950823 
H     3.6199763    3.2007185   -4.2701967 
H    -3.5068536   -4.3547907    4.0722115 
H    -4.6797056    1.8299910   -1.8946370 
H    -3.3068982    5.2746894   -3.1778898 
H     5.5288736    2.1816979   -3.0169359 
H    -4.9498921   -2.6245013    5.1560921 
H    -5.6329121   -0.0052809   -3.3125691 
