96
Energy =
C    -0.2575066    0.7612534    3.1419222 
C     0.8160599    1.5507745    2.6275965 
C     0.5714796    2.5959895    1.7070203 
H     1.8494990    1.2587557    2.8553488 
Pd   -0.1787762    0.5704958    0.9281410 
P    -1.5452875   -1.3282567    0.7275916 
P     0.2971221    0.8850021   -1.3660325 
H    -1.2395378    1.2487680    3.2373747 
H    -0.4515593    3.0027625    1.6804521 
C     0.4365300   -2.4859305    5.8773315 
C     1.3148405   -2.2834717    4.7996300 
C     1.0838850   -1.2450237    3.8914288 
C    -0.0286718   -0.3848611    4.0449518 
C    -0.9184183   -0.6183113    5.1147768 
C    -0.6827507   -1.6544233    6.0267369 
H     0.6199847   -3.2958263    6.5908500 
H     2.1815045   -2.9397875    4.6676183 
H     1.7625397   -1.1058941    3.0410995 
H    -1.7950082    0.0264809    5.2367660 
H    -1.3802082   -1.8156862    6.8548620 
C     3.4735412    5.2781405    0.0188260 
C     2.1230338    5.6428619    0.1099356 
C     1.1876700    4.7438226    0.6356776 
C     1.5887838    3.4745347    1.1109031 
C     2.9567222    3.1244577    1.0210539 
C     3.8852827    4.0122038    0.4719639 
H     4.2058777    5.9754297   -0.4009460 
H     1.7927525    6.6256365   -0.2410213 
H     0.1301459    5.0253304    0.6836217 
H     3.2986424    2.1492092    1.3778537 
H     4.9378300    3.7196492    0.4005408 
O     0.7916572   -1.9550018   -3.4154542 
O     0.8895161   -3.5021505   -1.7162956 
C    -0.2948149   -1.7070926   -2.5264295 
C     0.2485163   -2.3310624   -1.2271630 
C     1.3943758   -3.2127737   -3.0425873 
C    -0.6214137   -0.2100570   -2.5658195 
C    -0.7361370   -2.7522217   -0.1439973 
C     0.9291802   -4.3284596   -3.9736196 
C     2.9050941   -3.0155839   -3.0029584 
C    -0.1034144    2.5512350   -2.0294329 
C     2.0756423    0.6241850   -1.7392501 
C    -2.2861457   -2.0973460    2.2249031 
C    -3.0261753   -0.8800308   -0.2709202 
C    -1.4570732    2.8921436   -2.2488697 
C     2.5809427    0.7878234   -3.0455778 
C    -3.4833782   -1.5602832    2.7454158 
C    -3.7643045   -1.8317413   -1.0031371 
C     0.8983569    3.5053374   -2.2944987 
C     2.9479899    0.2400042   -0.7032541 
C    -1.6745991   -3.1812832    2.8862977 
C    -3.4501040    0.4655862   -0.2665069 
C    -1.7961607    4.1558785   -2.7468082 
C     3.9445931    0.5945825   -3.2976051 
C    -4.0709764   -2.1194157    3.8877647 
C    -4.8889592   -1.4349548   -1.7399155 
C     0.5509914    4.7664615   -2.8018037 
C     4.3120670    0.0414007   -0.9588936 
C    -2.2718732   -3.7402121    4.0240448 
C    -4.5839190    0.8570499   -0.9930132 
C    -0.7912648    5.0950223   -3.0310863 
C     4.8121267    0.2272393   -2.2558767 
C    -3.4722778   -3.2169041    4.5239394 
C    -5.2989623   -0.0923107   -1.7383737 
H    -1.1978841   -2.2733785   -2.8455901 
H     0.9972426   -1.6397688   -0.7835608 
H    -1.6918471   -0.0534942   -2.3569149 
H    -0.4291864    0.1554456   -3.5888893 
H    -0.1639933   -3.3045923    0.6196078 
H    -1.4935930   -3.4474888   -0.5436683 
H    -0.1722084   -4.3685903   -3.9893627 
H     1.3115097   -5.2998240   -3.6198042 
H     1.2978681   -4.1475315   -4.9962205 
H     3.1568690   -2.2388801   -2.2639867 
H     3.2701933   -2.6920474   -3.9911507 
H     3.4032284   -3.9585224   -2.7255060 
H    -2.2518913    2.1686053   -2.0404755 
H     1.9126325    1.0689086   -3.8655827 
H    -3.9722120   -0.7173822    2.2455051 
H    -3.4706608   -2.8861073   -1.0010847 
H     1.9500360    3.2724005   -2.1019259 
H     2.5448513    0.0896195    0.3062680 
H    -0.7295805   -3.5994959    2.5289327 
H    -2.8771868    1.2086537    0.3035474 
H    -2.8480679    4.4052207   -2.9216736 
H     4.3316585    0.7249492   -4.3133389 
H    -5.0065824   -1.7017205    4.2737608 
H    -5.4510926   -2.1793521   -2.3130241 
H     1.3404761    5.4960994   -3.0083385 
H     4.9825062   -0.2578594   -0.1466766 
H    -1.7877664   -4.5848562    4.5238782 
H    -4.9046645    1.9039296   -0.9801607 
H    -1.0568382    6.0798167   -3.4290048 
H     5.8771663    0.0754961   -2.4593234 
H    -3.9371305   -3.6590732    5.4109851 
H    -6.1789510    0.2116694   -2.3143142 
