96
Energy =
C     2.1754690    1.4552146    1.6776258 
C     1.1662677    1.3133761    2.6630019 
C     0.7972825    0.0374775    3.1729433 
H     0.5601238    2.1855943    2.9370287 
Pd    0.4857610    0.1175333    0.9481848 
P    -1.1376482   -1.5745014    0.7643464 
P     0.5799215    0.7738178   -1.3140502 
H     2.9198466    0.6472433    1.6107915 
H     1.5641658   -0.7518828    3.1688512 
C     3.5476652    5.1697617    0.0043805 
C     2.3423883    5.1371635    0.7257615 
C     1.8641699    3.9328028    1.2474697 
C     2.5935928    2.7323258    1.0766437 
C     3.7948030    2.7774436    0.3320217 
C     4.2667357    3.9832749   -0.2000270 
H     3.9199746    6.1163149   -0.4006577 
H     1.7677893    6.0565170    0.8747636 
H     0.9153506    3.9296159    1.7923572 
H     4.3701231    1.8577878    0.1830460 
H     5.2042538    3.9974600   -0.7653376 
C    -2.3391778   -0.5363961    6.0648045 
C    -1.2335770   -1.3976761    6.0278968 
C    -0.2268902   -1.2116446    5.0728289 
C    -0.2997210   -0.1533188    4.1418053 
C    -1.4233278    0.7044477    4.1879604 
C    -2.4316829    0.5148070    5.1375349 
H    -3.1283575   -0.6839806    6.8091092 
H    -1.1552059   -2.2226066    6.7429428 
H     0.6332609   -1.8885610    5.0507067 
H    -1.5108870    1.5269034    3.4693496 
H    -3.2947151    1.1885882    5.1561654 
O     0.0113406   -1.5554252   -3.9043470 
O     0.2452707   -3.4419972   -2.6082063 
C    -0.7566656   -1.3784981   -2.7160675 
C    -0.0295363   -2.3374038   -1.7561437 
C     0.4671073   -2.9269995   -3.9418502 
C    -0.8026238    0.1156684   -2.3798369 
C    -0.7756384   -2.8571457   -0.5362996 
C    -0.3829342   -3.7460358   -4.9079868 
C     1.9569636   -2.9209200   -4.2647017 
C     2.1277614    0.4023247   -2.2222540 
C     0.3038933    2.5839332   -1.4791640 
C    -1.4901195   -2.6428878    2.2177199 
C    -2.7626513   -0.8375470    0.3229489 
C     2.2601327    0.6980051   -3.5955167 
C    -0.8879702    3.1122256   -0.9356795 
C    -2.7207635   -2.5893635    2.8984860 
C    -3.7435013   -1.5218207   -0.4233915 
C     3.2022447   -0.1990741   -1.5386583 
C     1.2170985    3.4479754   -2.1112111 
C    -0.4926074   -3.5409137    2.6551090 
C    -3.0338554    0.4700798    0.7777173 
C     3.4633406    0.4258664   -4.2580586 
C    -1.1732974    4.4780759   -1.0512029 
C    -2.9606680   -3.4506099    3.9789130 
C    -4.9611094   -0.8962118   -0.7274169 
C     4.4021366   -0.4803551   -2.2073168 
C     0.9251815    4.8151033   -2.2225486 
C    -0.7443277   -4.4080095    3.7253863 
C    -4.2548950    1.0896799    0.4805054 
C     4.5363356   -0.1579357   -3.5658014 
C    -0.2683726    5.3322904   -1.7010144 
C    -1.9825631   -4.3687292    4.3850079 
C    -5.2176715    0.4089517   -0.2801880 
H    -1.7979428   -1.7401436   -2.8671363 
H     0.9198391   -1.8607499   -1.4260094 
H    -1.7292015    0.3556845   -1.8315106 
H    -0.8274984    0.6842979   -3.3249010 
H    -0.1431300   -3.6173468   -0.0483966 
H    -1.7063756   -3.3687350   -0.8345162 
H    -1.4479941   -3.6534123   -4.6399760 
H    -0.0974122   -4.8093102   -4.8546277 
H    -0.2380551   -3.3859839   -5.9393637 
H     2.5038734   -2.3716982   -3.4819388 
H     2.1334557   -2.4231557   -5.2319324 
H     2.3366038   -3.9541032   -4.3163240 
H     1.4255592    1.1356188   -4.1512875 
H    -1.5991249    2.4511051   -0.4283245 
H    -3.4945359   -1.8822775    2.5848311 
H    -3.5691833   -2.5452579   -0.7690850 
H     3.0897199   -0.4564489   -0.4793838 
H     2.1621390    3.0641746   -2.5044752 
H     0.4849502   -3.5701515    2.1585098 
H    -2.2748851    0.9970380    1.3665517 
H     3.5600707    0.6607990   -5.3229397 
H    -2.1052445    4.8759135   -0.6358918 
H    -3.9207210   -3.4022811    4.5025676 
H    -5.7137005   -1.4333279   -1.3136608 
H     5.2300788   -0.9518286   -1.6680288 
H     1.6444766    5.4789467   -2.7126409 
H     0.0295111   -5.1128127    4.0467492 
H    -4.4529138    2.1051069    0.8391835 
H     5.4730739   -0.3733196   -4.0899809 
H    -0.4911134    6.4003069   -1.7931493 
H    -2.1796683   -5.0469524    5.2214875 
H    -6.1694411    0.8931056   -0.5215798 
