96
Energy =
C    -1.3804249    1.9388703    2.2516653 
C    -0.0995005    2.5221752    2.0543672 
C     0.2421461    3.1240028    0.8153416 
H     0.6705797    2.3848232    2.8238095 
Pd   -0.3030605    0.9349658    0.5447601 
P     1.1490319    0.5448683   -1.2520642 
P    -1.4326781   -1.1178582    0.6672638 
H    -2.2125222    2.3373229    1.6507184 
H    -0.5962294    3.4753843    0.1951337 
C    -2.5949741    0.0361919    5.9137590 
C    -1.2760382   -0.1184431    5.4547245 
C    -0.8717878    0.4893392    4.2621190 
C    -1.7799273    1.2584521    3.4993093 
C    -3.1057789    1.3919744    3.9636704 
C    -3.5065149    0.7938141    5.1644976 
H    -2.9101571   -0.4376576    6.8490970 
H    -0.5614896   -0.7176813    6.0286147 
H     0.1550949    0.3520480    3.9076249 
H    -3.8258603    1.9718725    3.3771287 
H    -4.5382410    0.9124083    5.5104325 
C     3.9373648    5.1183937   -0.0948427 
C     3.8695719    4.2587337    1.0146498 
C     2.6873274    3.5736565    1.3057573 
C     1.5372291    3.7470712    0.5002277 
C     1.6284245    4.5939029   -0.6286108 
C     2.8159568    5.2747638   -0.9223044 
H     4.8643202    5.6574710   -0.3157258 
H     4.7473254    4.1180817    1.6529549 
H     2.6599069    2.9003220    2.1680019 
H     0.7512524    4.7288200   -1.2709834 
H     2.8620918    5.9364989   -1.7933386 
O    -1.5385671   -3.3633993   -2.7726845 
O     0.4763507   -2.6210343   -3.5978838 
C    -0.8816441   -2.6172918   -1.7512445 
C     0.0598196   -1.7238247   -2.5715191 
C    -0.6278403   -3.5038852   -3.8889169 
C    -1.9708113   -1.9414078   -0.9232952 
C     1.3170328   -1.2025826   -1.8719378 
C    -0.0837387   -4.9269470   -3.9554489 
C    -1.3594704   -3.0520147   -5.1501065 
C    -3.0528779   -1.0515484    1.5335639 
C    -0.4412568   -2.3991402    1.5265521 
C     0.7281341    1.4725652   -2.7779056 
C     2.8965793    0.9298059   -0.8410698 
C    -4.0585966   -0.2342377    0.9739694 
C    -0.8433691   -3.7523165    1.5620675 
C     1.4613131    1.2949918   -3.9719053 
C     3.4786345    0.2306407    0.2393979 
C    -3.3240013   -1.7838924    2.7035033 
C     0.7609925   -2.0209191    2.1555263 
C    -0.3854975    2.3357628   -2.7762222 
C     3.6665968    1.8678822   -1.5531347 
C    -5.3304727   -0.1825415    1.5579241 
C    -0.0491877   -4.7036178    2.2156033 
C     1.0942195    1.9887700   -5.1320337 
C     4.8189438    0.4473361    0.5813799 
C    -4.5989332   -1.7234435    3.2857008 
C     1.5533250   -2.9746998    2.8097667 
C    -0.7512375    3.0277358   -3.9394593 
C     5.0078458    2.0809533   -1.2038225 
C    -5.6046840   -0.9341445    2.7117786 
C     1.1486806   -4.3171913    2.8388475 
C    -0.0085425    2.8578485   -5.1168583 
C     5.5881370    1.3704870   -0.1442745 
H    -0.2711289   -3.2895281   -1.1108770 
H    -0.5238739   -0.8833983   -3.0092611 
H    -2.7182640   -2.7057107   -0.6489180 
H    -2.4944710   -1.1827434   -1.5307763 
H     2.1477695   -1.2154852   -2.5975548 
H     1.6123970   -1.8474361   -1.0254212 
H     0.3860979   -5.1886564   -2.9935081 
H     0.6735802   -5.0065539   -4.7525299 
H    -0.9011606   -5.6358161   -4.1642665 
H    -1.6663802   -1.9982903   -5.0461827 
H    -2.2605356   -3.6675340   -5.3056233 
H    -0.7003616   -3.1507523   -6.0278629 
H    -3.8502070    0.3609794    0.0762961 
H    -1.7771546   -4.0673178    1.0837678 
H     2.3209698    0.6171205   -4.0011941 
H     2.8852228   -0.4938912    0.8083148 
H    -2.5430412   -2.3909981    3.1702496 
H     1.0683024   -0.9685480    2.1251415 
H    -0.9733912    2.4528021   -1.8588812 
H     3.2228177    2.4431454   -2.3700576 
H    -6.1090694    0.4446127    1.1112885 
H    -0.3660537   -5.7513215    2.2377113 
H     1.6696853    1.8474688   -6.0526045 
H     5.2647102   -0.1073491    1.4136818 
H    -4.7998271   -2.2921319    4.1991885 
H     2.4860301   -2.6696505    3.2955798 
H    -1.6191194    3.6950964   -3.9272059 
H     5.5970510    2.8158733   -1.7613635 
H    -6.5991955   -0.8945370    3.1677955 
H     1.7663268   -5.0651127    3.3465804 
H    -0.2926803    3.3966298   -6.0266307 
H     6.6366395    1.5397465    0.1215065 
