96
Energy =
C     1.3761065    2.2440329    1.7414139 
C     0.1730820    1.8380921    2.3849409 
C     0.1052681    0.6060461    3.0790924 
H    -0.7426976    2.4267573    2.2496068 
Pd    0.6209442    0.2982363    0.8730758 
P    -0.4780695   -1.7817058    0.6716200 
P     1.6648071    0.6259091   -1.2097464 
H     2.3100815    1.8337434    2.1513201 
H     1.0589210    0.1723258    3.4182946 
C     1.9241567    5.9829061   -0.3080610 
C     3.0290947    5.2335926    0.1212002 
C     2.8363046    4.0035515    0.7620633 
C     1.5348486    3.5007802    0.9897667 
C     0.4318528    4.2519360    0.5197602 
C     0.6257737    5.4824632   -0.1127777 
H     2.0717732    6.9491053   -0.8012618 
H     4.0448245    5.6117963   -0.0337805 
H     3.7024274    3.4282827    1.1064510 
H    -0.5865047    3.8706293    0.6441947 
H    -0.2396816    6.0522433   -0.4649999 
C    -3.2956725   -0.8622507    5.2587298 
C    -3.4968970   -0.0503953    4.1294183 
C    -2.4026143    0.4328990    3.4064790 
C    -1.0824612    0.1020647    3.7890948 
C    -0.8957751   -0.7249218    4.9187354 
C    -1.9913256   -1.1933825    5.6527599 
H    -4.1542147   -1.2357107    5.8263351 
H    -4.5126485    0.2068633    3.8118530 
H    -2.5769392    1.0622567    2.5292252 
H     0.1197677   -1.0024013    5.2199155 
H    -1.8250640   -1.8289562    6.5282103 
O    -0.4348960   -1.5020914   -3.7894344 
O    -1.1786294   -3.2418339   -2.4663291 
C     0.1112400   -1.3597537   -2.4856306 
C     0.0937774   -2.8113915   -1.9952953 
C    -1.4433950   -2.5364387   -3.7088456 
C     1.4771088   -0.6785988   -2.5374172 
C     0.2245391   -3.0648204   -0.4943147 
C    -2.8327192   -1.9151906   -3.6114766 
C    -1.2528229   -3.4699241   -4.8982144 
C     3.4857436    0.8389536   -1.1598432 
C     0.9427220    2.1014652   -2.0371399 
C    -0.4315351   -2.7545491    2.2324097 
C    -2.2387805   -1.5905116    0.1994900 
C     4.2259134    1.0682962   -2.3412899 
C    -0.4588067    2.1196391   -2.2170295 
C     0.8409056   -2.9903607    2.7974328 
C    -3.0732668   -2.6996616   -0.0516011 
C     4.1712354    0.6937454    0.0622154 
C     1.7102443    3.1871645   -2.4976544 
C    -1.5752184   -3.2811778    2.8588647 
C    -2.7626795   -0.2887590    0.0696947 
C     5.6209669    1.1848083   -2.2866793 
C    -1.0733659    3.1891078   -2.8792786 
C     0.9679651   -3.7720830    3.9523818 
C    -4.4177458   -2.5011078   -0.3903160 
C     5.5678919    0.8069742    0.1129466 
C     1.0872045    4.2574083   -3.1554817 
C    -1.4417020   -4.0611970    4.0174408 
C    -4.1054120   -0.0930278   -0.2822260 
C     6.2929060    1.0609929   -1.0601881 
C    -0.2998441    4.2589351   -3.3554642 
C    -0.1751901   -4.3156785    4.5605993 
C    -4.9366651   -1.2013117   -0.5021477 
H    -0.5913912   -0.7782677   -1.8466873 
H     0.9049043   -3.3672099   -2.5163311 
H     1.6008581   -0.1884718   -3.5171168 
H     2.3003027   -1.4046441   -2.4152166 
H     1.2915689   -3.1403960   -0.2201231 
H    -0.2348631   -4.0391613   -0.2546432 
H    -2.8697481   -1.2106288   -2.7647957 
H    -3.5887840   -2.6991340   -3.4444418 
H    -3.0703090   -1.3767133   -4.5430975 
H    -0.2447421   -3.9137462   -4.8663573 
H    -1.3618424   -2.9080736   -5.8402718 
H    -2.0037213   -4.2759065   -4.8711359 
H     3.7159388    1.1581204   -3.3063479 
H    -1.0739354    1.2940039   -1.8430864 
H     1.7362502   -2.5580569    2.3323962 
H    -2.6758477   -3.7171735    0.0014062 
H     3.6052305    0.4785474    0.9748821 
H     2.7894725    3.2162380   -2.3271555 
H    -2.5721526   -3.0684091    2.4627295 
H    -2.1034330    0.5714180    0.2423559 
H     6.1858528    1.3687505   -3.2063505 
H    -2.1589458    3.1860228   -3.0227246 
H     1.9594157   -3.9567635    4.3789550 
H    -5.0608292   -3.3662845   -0.5810737 
H     6.0896073    0.6922726    1.0686638 
H     1.6941995    5.0997900   -3.5021599 
H    -2.3381713   -4.4609556    4.5021500 
H    -4.5013774    0.9228370   -0.3828393 
H     7.3833016    1.1520958   -1.0221250 
H    -0.7797608    5.0962454   -3.8724440 
H    -0.0771209   -4.9276747    5.4630952 
H    -5.9870862   -1.0534818   -0.7732170 
