96
Energy =
C     2.0198153    1.7720950    1.8536165 
C     0.9177770    1.5349325    2.7326896 
C     0.6128552    0.2337655    3.1912271 
H     0.2233774    2.3600729    2.9399854 
Pd    0.5950791    0.3712615    0.8895257 
P    -1.2673056   -1.0028101    0.4905703 
P     1.3737848    0.6050125   -1.3040622 
H     2.8988842    1.1173611    1.9531381 
H     1.4236242   -0.5102845    3.1457194 
C     2.7999920    5.7080370    0.2947652 
C     1.4837137    5.2181992    0.3281586 
C     1.2257847    3.9343790    0.8193848 
C     2.2785706    3.1138066    1.2869168 
C     3.5973370    3.6093107    1.2261240 
C     3.8539576    4.8981116    0.7413707 
H     3.0023585    6.7137978   -0.0875690 
H     0.6576752    5.8382905   -0.0355603 
H     0.1991830    3.5479693    0.8186238 
H     4.4255934    2.9802791    1.5682436 
H     4.8837231    5.2678768    0.7063367 
C    -2.6055300   -0.9682937    5.7738069 
C    -1.5000484   -1.8047564    5.5620513 
C    -0.4651340   -1.3961750    4.7144591 
C    -0.5086553   -0.1410237    4.0649487 
C    -1.6230260    0.6978167    4.3015608 
C    -2.6609018    0.2854864    5.1416082 
H    -3.4197064   -1.2868889    6.4328379 
H    -1.4446907   -2.7809191    6.0534731 
H     0.3922830   -2.0559793    4.5483423 
H    -1.6824802    1.6829219    3.8303022 
H    -3.5171341    0.9468834    5.3091205 
O     1.3133514   -2.9807581   -3.3159176 
O    -0.6832083   -3.6905349   -2.4259538 
C     0.7055659   -1.8789700   -2.6462697 
C    -0.2230317   -2.5898663   -1.6466904 
C     0.3749997   -4.0811584   -3.3258174 
C     1.8452068   -1.0192846   -2.1047671 
C    -1.4568276   -1.8164767   -1.1747421 
C    -0.2315194   -4.2530357   -4.7146473 
C     1.0981464   -5.3184342   -2.8004668 
C     2.9265349    1.5594570   -1.5303806 
C     0.1725973    1.3643998   -2.4613053 
C    -1.4219424   -2.4219285    1.6492377 
C    -2.8230525   -0.0304508    0.6111987 
C     4.1429427    0.9939618   -1.0913135 
C    -1.0228241    1.9091784   -1.9565032 
C    -0.2699560   -3.2029998    1.8855334 
C    -4.0551149   -0.5273571    0.1343678 
C     2.9275482    2.8414679   -2.1119191 
C     0.4182448    1.3973406   -3.8519870 
C    -2.6310631   -2.7672450    2.2819718 
C    -2.7754753    1.2668162    1.1593492 
C     5.3469807    1.6869621   -1.2706624 
C    -1.9733175    2.4636645   -2.8259191 
C    -0.3393076   -4.3398877    2.7011414 
C    -5.2128092    0.2586593    0.2190459 
C     4.1360537    3.5318661   -2.2817953 
C    -0.5319825    1.9536412   -4.7171336 
C    -2.6908219   -3.8963245    3.1114341 
C    -3.9326111    2.0521736    1.2412739 
C     5.3461088    2.9545510   -1.8731638 
C    -1.7295765    2.4829106   -4.2063783 
C    -1.5529300   -4.6908155    3.3121696 
C    -5.1546510    1.5469580    0.7727578 
H     0.0821546   -1.2893513   -3.3516418 
H     0.3785323   -2.9532343   -0.7847008 
H     2.5237770   -0.7848092   -2.9429235 
H     2.4267682   -1.6009124   -1.3686404 
H    -2.2892857   -2.5357876   -1.0995083 
H    -1.7427776   -1.0349942   -1.9010449 
H    -0.6924785   -3.3053709   -5.0372107 
H    -1.0077324   -5.0354920   -4.6949749 
H     0.5498487   -4.5399964   -5.4366951 
H     1.4554268   -5.1336561   -1.7740262 
H     1.9661735   -5.5492208   -3.4394055 
H     0.4154679   -6.1834835   -2.7938428 
H     4.1571395    0.0063358   -0.6157402 
H    -1.2115666    1.8909099   -0.8788986 
H     0.6894005   -2.9109784    1.4413039 
H    -4.1203331   -1.5274475   -0.3057325 
H     1.9888940    3.3026963   -2.4325680 
H     1.3515093    0.9936804   -4.2599366 
H    -3.5232161   -2.1491972    2.1455582 
H    -1.8140173    1.6623022    1.5060601 
H     6.2879453    1.2342915   -0.9411610 
H    -2.9026415    2.8763453   -2.4201333 
H     0.5574296   -4.9455632    2.8682523 
H    -6.1635316   -0.1368387   -0.1528997 
H     4.1265997    4.5290862   -2.7329569 
H    -0.3387419    1.9736847   -5.7945984 
H    -3.6332082   -4.1513765    3.6068382 
H    -3.8793352    3.0593405    1.6677425 
H     6.2877559    3.4947234   -2.0147684 
H    -2.4705047    2.9125096   -4.8885182 
H    -1.6074306   -5.5752759    3.9551849 
H    -6.0610372    2.1580638    0.8341228 
