96
Energy =
C    -0.5055280    0.7321876    3.1248678 
C     0.7818698    1.2527838    2.7961381 
C     0.9237320    2.3235320    1.8828174 
H     1.6769797    0.7353231    3.1647207 
Pd   -0.1396896    0.5308302    0.9318890 
P     0.6827785    0.8229184   -1.2635473 
P    -1.8615474   -0.9941707    0.4452773 
H    -1.3561748    1.4285367    3.0744423 
H     0.0406524    2.9617860    1.7237492 
C    -0.9925253   -2.5086442    5.9095715 
C     0.0960809   -2.5125860    5.0214109 
C     0.2467936   -1.4794820    4.0907770 
C    -0.6849326   -0.4163331    4.0339080 
C    -1.7911368   -0.4428269    4.9102112 
C    -1.9384427   -1.4752479    5.8443616 
H    -1.1072577   -3.3147666    6.6414827 
H     0.8284343   -3.3260681    5.0549657 
H     1.0889900   -1.5007127    3.3890079 
H    -2.5325074    0.3619689    4.8661106 
H    -2.7980145   -1.4738456    6.5221072 
C     4.6005804    4.2397788    0.7527638 
C     4.6232250    2.9006351    1.1810931 
C     3.4376936    2.2588526    1.5478692 
C     2.1977891    2.9363503    1.4762641 
C     2.1888554    4.2758563    1.0262472 
C     3.3802554    4.9261107    0.6832321 
H     5.5326411    4.7429963    0.4757242 
H     5.5720322    2.3568359    1.2321368 
H     3.4760744    1.2195752    1.8858919 
H     1.2355229    4.8096453    0.9471528 
H     3.3522294    5.9677970    0.3481963 
O     0.2445087   -3.5404193   -1.9515202 
O     0.7150062   -1.9109049   -3.5055549 
C    -0.1477202   -2.2806023   -1.4211505 
C    -0.3750544   -1.4606580   -2.7047317 
C     0.9572095   -3.2991589   -3.1884242 
C    -1.3217838   -2.5113925   -0.4800497 
C    -0.3301329    0.0696989   -2.6379029 
C     2.4561493   -3.4788920   -2.9790200 
C     0.3576933   -4.2061432   -4.2586826 
C    -3.0813817   -0.1354686   -0.6344337 
C    -2.9064585   -1.6854730    1.7905457 
C     0.7633371    2.5753880   -1.8127345 
C     2.3766672    0.1527810   -1.4813177 
C    -3.2041391    1.2651657   -0.5144709 
C    -2.5053299   -2.8381898    2.4974228 
C    -0.4488412    3.2652075   -2.0391586 
C     3.0464593    0.2384424   -2.7196343 
C    -3.9115697   -0.8223532   -1.5433066 
C    -4.1088946   -1.0409682    2.1496594 
C     1.9846028    3.2538561   -1.9875351 
C     3.0141393   -0.4700308   -0.3912438 
C    -4.1286862    1.9692853   -1.2991286 
C    -3.3161940   -3.3592211    3.5132927 
C    -0.4347840    4.6010572   -2.4575687 
C     4.3461349   -0.2663822   -2.8483515 
C    -4.8258677   -0.1144196   -2.3360820 
C    -4.9107396   -1.5633296    3.1738107 
C     1.9908689    4.5898778   -2.4164447 
C     4.3126715   -0.9814524   -0.5247982 
C    -4.9343526    1.2800867   -2.2180504 
C    -4.5226430   -2.7287049    3.8497386 
C     0.7871298    5.2653836   -2.6543826 
C     4.9825700   -0.8709423   -1.7520073 
H     0.6901030   -1.8263641   -0.8490797 
H    -1.3444788   -1.7657250   -3.1579247 
H    -0.9988238   -3.2423225    0.2793767 
H    -2.1751681   -2.9634853   -1.0133666 
H    -1.3485998    0.4723366   -2.5125708 
H     0.0539704    0.4445390   -3.6017480 
H     2.7927131   -2.8387644   -2.1483876 
H     3.0033588   -3.1887074   -3.8905245 
H     2.6817681   -4.5312267   -2.7426686 
H    -0.7125827   -3.9765360   -4.3876337 
H     0.4572658   -5.2620494   -3.9584928 
H     0.8772793   -4.0545491   -5.2185752 
H    -2.5614471    1.8025090    0.1948077 
H    -1.5599249   -3.3386746    2.2672546 
H    -1.4086682    2.7571825   -1.8986239 
H     2.5564621    0.6992622   -3.5829609 
H    -3.8546056   -1.9113038   -1.6367082 
H    -4.4340184   -0.1423120    1.6153828 
H     2.9332763    2.7496839   -1.7799996 
H     2.4777005   -0.5592851    0.5618307 
H    -4.2158846    3.0558927   -1.1955293 
H    -2.9952741   -4.2576445    4.0492792 
H    -1.3803855    5.1228417   -2.6389409 
H     4.8622027   -0.1948422   -3.8111674 
H    -5.4604309   -0.6559906   -3.0450188 
H    -5.8487712   -1.0619397    3.4337913 
H     2.9476770    5.1041377   -2.5520095 
H     4.8000065   -1.4652031    0.3279676 
H    -5.6507317    1.8278686   -2.8387309 
H    -5.1553263   -3.1412159    4.6422203 
H     0.7975121    6.3076509   -2.9894956 
H     5.9977982   -1.2665029   -1.8593779 
