96
Energy =
C    -0.7117277    1.1327810    2.9575234 
C     0.5963565    1.6131603    2.6495334 
C     0.8001590    2.5601857    1.6187911 
H     1.4636427    1.1506785    3.1382405 
Pd   -0.2054747    0.6540470    0.8375827 
P     0.7636050    0.6531540   -1.3173226 
P    -1.8943037   -0.9327271    0.4446725 
H    -1.5543697    1.8137535    2.7642165 
H    -0.0696563    3.1670632    1.3226689 
C    -1.3916034   -1.7320365    6.0919471 
C    -0.2515003   -1.8480636    5.2792703 
C    -0.0363105   -0.9400071    4.2375568 
C    -0.9543010    0.1078959    3.9913466 
C    -2.1113617    0.1924235    4.7950513 
C    -2.3232841   -0.7144715    5.8403852 
H    -1.5569117   -2.4398665    6.9107099 
H     0.4707420   -2.6513370    5.4590578 
H     0.8463385   -1.0495920    3.5962864 
H    -2.8419280    0.9859414    4.6054364 
H    -3.2223196   -0.6276877    6.4587908 
C     4.5440956    4.3441954    0.4921401 
C     4.5383310    3.0733329    1.0939365 
C     3.3311700    2.4747935    1.4632430 
C     2.0985835    3.1256109    1.2210094 
C     2.1196247    4.3946314    0.5995595 
C     3.3310451    5.0047816    0.2531147 
H     5.4924501    4.8149385    0.2133863 
H     5.4816917    2.5495056    1.2788941 
H     3.3476223    1.4898499    1.9380150 
H     1.1736973    4.9055897    0.3893946 
H     3.3251952    5.9933367   -0.2169275 
O     0.3822597   -3.7686952   -1.4087444 
O     0.9657793   -2.3690956   -3.1389234 
C    -0.0503702   -2.4514439   -1.0929417 
C    -0.1819287   -1.8240182   -2.4927582 
C     1.1854759   -3.6957136   -2.6113733 
C    -1.2921381   -2.5594994   -0.2188528 
C    -0.1461944   -0.2992513   -2.6392884 
C     2.6647938   -3.8258846   -2.2685687 
C     0.6690684   -4.7520699   -3.5834609 
C    -3.0329400   -0.2419368   -0.8267080 
C    -3.0361856   -1.4359296    1.7951630 
C     0.8792198    2.3110603   -2.1024522 
C     2.4712304   -0.0181628   -1.3209922 
C    -3.8087965   -1.0556093   -1.6769781 
C    -4.2467582   -0.7368307    1.9866618 
C    -0.3096337    2.9351852   -2.5427111 
C     3.0287661   -0.4849924   -0.1154678 
C    -3.1533732    1.1608740   -0.9189213 
C    -2.7054530   -2.4917339    2.6699035 
C     2.1066964    2.9845274   -2.2528898 
C     3.2297974   -0.0861392   -2.5079564 
C    -4.6670337   -0.4724917   -2.6197059 
C    -5.1240538   -1.1125910    3.0132724 
C    -0.2640373    4.1978529   -3.1454574 
C     4.3352821   -0.9926101   -0.0861878 
C    -4.0225899    1.7413674   -1.8536792 
C    -3.5912258   -2.8673831    3.6876691 
C     2.1453490    4.2458852   -2.8663698 
C     4.5366422   -0.5874688   -2.4750128 
C    -4.7739834    0.9241624   -2.7114862 
C    -4.8041716   -2.1847786    3.8583696 
C     0.9661815    4.8540624   -3.3154242 
C     5.0929249   -1.0351547   -1.2655826 
H     0.7415294   -1.9109478   -0.5303835 
H    -1.1141335   -2.2020747   -2.9683942 
H    -1.0276084   -3.1757939    0.6560724 
H    -2.1048539   -3.0870913   -0.7460357 
H    -1.1725010    0.1024669   -2.6439042 
H     0.3050563   -0.0581528   -3.6167812 
H     2.9380380   -3.0687702   -1.5169046 
H     3.2779517   -3.6636709   -3.1697997 
H     2.8732676   -4.8305088   -1.8666500 
H    -0.3889269   -4.5560638   -3.8223038 
H     0.7475973   -5.7535264   -3.1297520 
H     1.2587022   -4.7315117   -4.5142121 
H    -3.7531908   -2.1465022   -1.6079023 
H    -4.5184766    0.0884054    1.3203874 
H    -1.2752699    2.4325635   -2.4246452 
H     2.4241893   -0.4550947    0.7998690 
H    -2.5525115    1.7969622   -0.2560694 
H    -1.7575823   -3.0289708    2.5703860 
H     3.0340710    2.5347167   -1.8855500 
H     2.8034503    0.2533619   -3.4570624 
H    -5.2593240   -1.1126343   -3.2815240 
H    -6.0669052   -0.5711781    3.1427610 
H    -1.1908401    4.6674964   -3.4914643 
H     4.7602496   -1.3540842    0.8558176 
H    -4.1090090    2.8312783   -1.9139995 
H    -3.3239810   -3.6925334    4.3548461 
H     3.1070467    4.7560789   -2.9810961 
H     5.1219819   -0.6356404   -3.3989079 
H    -5.4472962    1.3742121   -3.4481339 
H    -5.4952965   -2.4836336    4.6530498 
H     1.0020396    5.8376675   -3.7949577 
H     6.1146382   -1.4281795   -1.2464112 
