96
Energy =
C    -0.6487045    0.8195819    3.0741750 
C     0.5967936    1.4373476    2.7506421 
C     0.6669207    2.4796213    1.7971451 
H     1.5240310    1.0141721    3.1581163 
Pd   -0.2156636    0.5628633    0.9015248 
P     0.6414546    0.8215325   -1.2855961 
P    -1.7888044   -1.1241850    0.4480511 
H    -1.5546484    1.4374469    2.9814939 
H    -0.2649582    3.0296090    1.5928872 
C    -0.9125865   -2.3515482    5.9676837 
C     0.1862198   -2.2967832    5.0938366 
C     0.2664997   -1.2872043    4.1292004 
C    -0.7477611   -0.3065511    4.0231658 
C    -1.8611624   -0.3931286    4.8862529 
C    -1.9382601   -1.4017358    5.8543521 
H    -0.9725501   -3.1388799    6.7261230 
H     0.9816697   -3.0460169    5.1652334 
H     1.1178444   -1.2633627    3.4385860 
H    -2.6646927    0.3464767    4.8046830 
H    -2.8055260   -1.4477763    6.5206312 
C     4.1842252    4.6698178    0.6572884 
C     4.3166920    3.3601907    1.1520193 
C     3.1848855    2.6300899    1.5233157 
C     1.8908968    3.1864542    1.3899207 
C     1.7727674    4.4968169    0.8740075 
C     2.9090018    5.2369675    0.5261616 
H     5.0739822    5.2429992    0.3770713 
H     5.3092771    2.9092505    1.2518590 
H     3.3087588    1.6163396    1.9141607 
H     0.7774205    4.9363899    0.7470275 
H     2.7956139    6.2545975    0.1392894 
O     0.6001711   -3.5931352   -1.7554261 
O     0.9797376   -2.0081083   -3.3788615 
C     0.0853601   -2.3472860   -1.3025777 
C    -0.1699678   -1.6153221   -2.6329944 
C     1.3315516   -3.3516461   -2.9812370 
C    -1.0941432   -2.6321880   -0.3832763 
C    -0.2590359   -0.0855194   -2.6451491 
C     2.8323727   -3.3862381   -2.7176946 
C     0.8511481   -4.3610700   -4.0193381 
C    -3.0433804   -0.4270591   -0.7054608 
C    -2.8133348   -1.8343329    1.7993956 
C     0.5894644    2.5445460   -1.9238063 
C     2.3930745    0.2931987   -1.4231498 
C    -3.2822195    0.9630341   -0.6658166 
C    -2.3515591   -2.9266097    2.5627231 
C    -0.6677874    3.1124018   -2.2293939 
C     3.0908177    0.3763460   -2.6460474 
C    -3.7899863   -1.2272452   -1.5939118 
C    -4.0653586   -1.2605582    2.1055252 
C     1.7535288    3.3189435   -2.0905739 
C     3.0485246   -0.2154305   -0.2855358 
C    -4.2384942    1.5460896   -1.5094624 
C    -3.1487438   -3.4600191    3.5831592 
C    -0.7524816    4.4217948   -2.7172969 
C     4.4327402   -0.0174874   -2.7139752 
C    -4.7356488   -0.6399092   -2.4460845 
C    -4.8538983   -1.7946543    3.1338327 
C     1.6613985    4.6273471   -2.5890574 
C     4.3902749   -0.6155473   -0.3577283 
C    -4.9596680    0.7452788   -2.4077703 
C    -4.4030046   -2.9012841    3.8672558 
C     0.4142609    5.1809956   -2.9053726 
C     5.0854432   -0.5077091   -1.5710385 
H     0.8628681   -1.7941885   -0.7322895 
H    -1.0945190   -2.0260808   -3.0961340 
H    -0.7337983   -3.2949176    0.4205559 
H    -1.8890883   -3.1809027   -0.9159030 
H    -1.3119168    0.2315995   -2.5684734 
H     0.1213077    0.2730523   -3.6166553 
H     3.0829454   -2.6775635   -1.9127271 
H     3.3832889   -3.0947745   -3.6265511 
H     3.1408233   -4.4010180   -2.4188622 
H    -0.2298955   -4.2341253   -4.1926398 
H     1.0318264   -5.3874646   -3.6603437 
H     1.3887703   -4.2125324   -4.9697108 
H    -2.7047861    1.5882031    0.0275552 
H    -1.3692987   -3.3699345    2.3739507 
H    -1.5850530    2.5292968   -2.0963340 
H     2.5895086    0.7491403   -3.5446512 
H    -3.6431539   -2.3113882   -1.6254605 
H    -4.4384146   -0.4093703    1.5265913 
H     2.7332178    2.9112552   -1.8237242 
H     2.4928263   -0.3039242    0.6565289 
H    -4.4162628    2.6257577   -1.4678011 
H    -2.7798526   -4.3111816    4.1635812 
H    -1.7316281    4.8481610   -2.9596926 
H     4.9700110    0.0510536   -3.6653432 
H    -5.3039851   -1.2685232   -3.1392082 
H    -5.8302475   -1.3496840    3.3520306 
H     2.5747805    5.2168793   -2.7175032 
H     4.8914537   -1.0107168    0.5318539 
H    -5.7001787    1.1985801   -3.0746289 
H    -5.0245136   -3.3234468    4.6634945 
H     0.3479547    6.2020471   -3.2949637 
H     6.1342169   -0.8162979   -1.6307044 
