96
Energy =
C    -0.7681243    1.1318483    2.9451445 
C     0.5482509    1.6066522    2.6656993 
C     0.7799750    2.5476875    1.6353188 
H     1.4023206    1.1444384    3.1772858 
Pd   -0.2133373    0.6433662    0.8384497 
P     0.7980710    0.6521951   -1.2969897 
P    -1.8997057   -0.9369551    0.4050574 
H    -1.6038192    1.8137401    2.7265290 
H    -0.0799047    3.1567004    1.3155449 
C    -1.5346699   -1.7034305    6.0862295 
C    -0.3685225   -1.8222742    5.3117676 
C    -0.1248743   -0.9249782    4.2670435 
C    -1.0394447    0.1156194    3.9800987 
C    -2.2224157    0.2023511    4.7451654 
C    -2.4633464   -0.6942107    5.7931066 
H    -1.7222521   -2.4026471    6.9075799 
H     0.3517651   -2.6194243    5.5237081 
H     0.7783725   -1.0372962    3.6557593 
H    -2.9505798    0.9897555    4.5233847 
H    -3.3823943   -0.6058100    6.3810928 
C     4.5571942    4.3107801    0.5901601 
C     4.5319376    3.0439206    1.1998238 
C     3.3137765    2.4517456    1.5423067 
C     2.0899958    3.1055136    1.2655878 
C     2.1309886    4.3702170    0.6365683 
C     3.3528572    4.9737316    0.3162635 
H     5.5138693    4.7763127    0.3318060 
H     5.4685915    2.5183805    1.4119940 
H     3.3147662    1.4695419    2.0232651 
H     1.1923430    4.8824937    0.3986237 
H     3.3622252    5.9589202   -0.1607113 
O     0.3830637   -3.7644837   -1.4553125 
O     1.0036206   -2.3460842   -3.1568718 
C    -0.0424831   -2.4478850   -1.1270507 
C    -0.1492703   -1.8005812   -2.5200117 
C     1.2062575   -3.6811069   -2.6432830 
C    -1.2967702   -2.5581051   -0.2716196 
C    -0.0995286   -0.2741875   -2.6453323 
C     2.6787994   -3.8260408   -2.2776848 
C     0.6991704   -4.7208743   -3.6378604 
C    -3.0178515   -0.2242586   -0.8723518 
C    -3.0580719   -1.4578861    1.7342088 
C     0.9352905    2.3203635   -2.0568953 
C     2.4994702   -0.0331360   -1.2818117 
C    -3.7691874   -1.0211022   -1.7597575 
C    -2.7153209   -2.5007716    2.6201001 
C    -0.2513502    2.9740633   -2.4582590 
C     3.2713724   -0.1088061   -2.4597781 
C    -3.1456072    1.1797460   -0.9331090 
C    -4.2906121   -0.7915642    1.8987743 
C     2.1715865    2.9723008   -2.2263016 
C     3.0389839   -0.5029201   -0.0691710 
C    -4.6092242   -0.4200090   -2.7077081 
C    -3.6101730   -2.8972085    3.6216303 
C    -0.1957132    4.2448443   -3.0428031 
C     4.5739891   -0.6197871   -2.4106711 
C    -3.9967298    1.7779528   -1.8732247 
C    -5.1773750   -1.1880478    2.9095718 
C     2.2202988    4.2420719   -2.8216234 
C     4.3407870   -1.0212966   -0.0241162 
C    -4.7227016    0.9777421   -2.7682210 
C    -4.8448529   -2.2478301    3.7651638 
C     1.0428889    4.8796191   -3.2329591 
C     5.1121119   -1.0709029   -1.1943685 
H     0.7463490   -1.9219868   -0.5464857 
H    -1.0772073   -2.1650535   -3.0142032 
H    -1.0495884   -3.1872905    0.5991842 
H    -2.1052736   -3.0739347   -0.8166729 
H    -1.1221652    0.1370056   -2.6586256 
H     0.3670955   -0.0235109   -3.6131499 
H     2.9441746   -3.0824951   -1.5097590 
H     3.3082785   -3.6541991   -3.1657702 
H     2.8738941   -4.8380712   -1.8877868 
H    -0.3532958   -4.5142202   -3.8916562 
H     0.7633025   -5.7287769   -3.1963170 
H     1.3044738   -4.6920748   -4.5582837 
H    -3.7083513   -2.1129620   -1.7163429 
H    -1.7507637   -3.0114026    2.5409798 
H    -1.2231093    2.4875095   -2.3232770 
H     2.8585266    0.2308659   -3.4146985 
H    -2.5649366    1.8029511   -0.2407878 
H    -4.5715564    0.0235721    1.2240523 
H     3.0980997    2.5005913   -1.8853428 
H     2.4237363   -0.4674955    0.8387409 
H    -5.1818509   -1.0472848   -3.3985155 
H    -3.3334199   -3.7117398    4.2978736 
H    -1.1211601    4.7379394   -3.3585179 
H     5.1698698   -0.6735578   -3.3274936 
H    -4.0891143    2.8684756   -1.9087126 
H    -6.1372682   -0.6726013    3.0181800 
H     3.1885345    4.7362793   -2.9505121 
H     4.7515775   -1.3855973    0.9230756 
H    -5.3812130    1.4418677   -3.5094917 
H    -5.5431325   -2.5628265    4.5472634 
H     1.0865289    5.8697850   -3.6981376 
H     6.1301885   -1.4724749   -1.1627650 
