96
Energy =
C    -0.4982851    1.4006975    2.9413599 
C     0.9023363    1.4115725    2.7461874 
C     1.5070252    2.2810265    1.7873187 
H     1.5235720    0.6467998    3.2295677 
Pd    0.0925092    0.9054718    0.7678319 
P     0.9296310    1.1421582   -1.4029174 
P    -1.5088458   -0.7615901    0.3882753 
H    -1.0470923    2.2964684    2.6107042 
H     1.0101311    3.2427280    1.5889025 
C    -2.7462669   -1.0697210    5.6461141 
C    -3.3702874   -0.0362688    4.9322411 
C    -2.6233065    0.7573391    4.0552304 
C    -1.2399149    0.5307242    3.8649551 
C    -0.6269079   -0.5174328    4.5909586 
C    -1.3718737   -1.3034410    5.4735334 
H    -3.3259635   -1.6896036    6.3377194 
H    -4.4394083    0.1583350    5.0651327 
H    -3.1145734    1.5725439    3.5147780 
H     0.4408617   -0.7202558    4.4702714 
H    -0.8788735   -2.1075964    6.0282146 
C     5.7490063    2.2187227    1.0583770 
C     5.0506003    1.0098941    1.2173357 
C     3.6694954    1.0219067    1.4397681 
C     2.9583838    2.2430549    1.5070551 
C     3.6684643    3.4474617    1.3230149 
C     5.0525725    3.4348132    1.1089747 
H     6.8304752    2.2099551    0.8880581 
H     5.5863022    0.0561035    1.1661713 
H     3.1263399    0.0745100    1.5462632 
H     3.1299115    4.4002772    1.3535844 
H     5.5878609    4.3800791    0.9738736 
O    -0.1001910   -3.5422513   -2.1238984 
O     1.7715909   -2.5325650   -2.9910107 
C     0.0552001   -2.2829675   -1.4733915 
C     0.9021984   -1.5134436   -2.5041666 
C     1.0870145   -3.8026461   -2.8994587 
C    -1.3540488   -1.7546360   -1.1814962 
C     1.8041459   -0.3775409   -2.0209832 
C     2.0049396   -4.7778641   -2.1665192 
C     0.6489217   -4.2739407   -4.2821985 
C    -3.2647126   -0.2285397    0.3416561 
C    -1.3632905   -2.0615996    1.6834457 
C    -0.3402739    1.4947481   -2.6867525 
C     2.1387445    2.4966079   -1.6780385 
C    -3.5893065    1.0859333    0.7333598 
C    -0.0643255   -2.4938119    2.0323407 
C     0.0268337    1.5648536   -4.0483535 
C     1.6451388    3.8189130   -1.6495745 
C    -4.2933304   -1.0818568   -0.1130063 
C    -2.4764499   -2.6594750    2.3033971 
C    -1.6815169    1.7051243   -2.3200576 
C     3.5099829    2.2735272   -1.9026976 
C    -4.9144449    1.5391044    0.6854351 
C     0.1145241   -3.5477341    2.9372119 
C    -0.9468511    1.8121443   -5.0234551 
C     2.5082882    4.8984906   -1.8701636 
C    -5.6186615   -0.6276797   -0.1575120 
C    -2.2907884   -3.7002734    3.2244916 
C    -2.6549670    1.9553734   -3.2989235 
C     4.3689531    3.3602179   -2.1252743 
C    -5.9317552    0.6805366    0.2427029 
C    -1.0009213   -4.1580803    3.5295476 
C    -2.2888546    2.0027613   -4.6510716 
C     3.8719117    4.6700123   -2.1161951 
H     0.6429526   -2.4035920   -0.5379813 
H     0.2345149   -1.1489532   -3.3136339 
H    -2.0144199   -2.6320008   -1.0801166 
H    -1.7328960   -1.1353197   -2.0135177 
H     2.4468465   -0.0856433   -2.8693254 
H     2.4642230   -0.7409828   -1.2140716 
H     2.2263502   -4.3938145   -1.1570981 
H     2.9533977   -4.8911968   -2.7166051 
H     1.5198938   -5.7634163   -2.0781016 
H     0.0301317   -3.4965628   -4.7589639 
H     0.0535031   -5.1977258   -4.1968338 
H     1.5308716   -4.4717555   -4.9124696 
H    -2.7910580    1.7600236    1.0628015 
H     0.8110305   -1.9914827    1.6020275 
H     1.0729484    1.4322897   -4.3465378 
H     0.5777696    4.0007554   -1.4764372 
H    -4.0682708   -2.1036953   -0.4347532 
H    -3.4882880   -2.3083971    2.0812589 
H    -1.9671000    1.6712060   -1.2643833 
H     3.9254334    1.2622646   -1.8950029 
H    -5.1514859    2.5638798    0.9895815 
H     1.1258789   -3.8835233    3.1887405 
H    -0.6584048    1.8600264   -6.0785339 
H     2.1143948    5.9201091   -1.8596903 
H    -6.4089188   -1.2982745   -0.5102844 
H    -3.1626688   -4.1536112    3.7070310 
H    -3.6962752    2.1122722   -2.9991583 
H     5.4340100    3.1761931   -2.2978499 
H    -6.9678848    1.0320449    0.2030546 
H    -0.8640836   -4.9784903    4.2415145 
H    -3.0459070    2.1951206   -5.4183384 
H     4.5459329    5.5140766   -2.2945671 
