96
Energy =
C     1.8519139    1.7408242    1.7941876 
C     0.7625046    1.5530395    2.6814486 
C     0.4601700    0.2753370    3.2293056 
H     0.0545798    2.3757386    2.8406593 
Pd    0.3750974    0.2107895    0.9830415 
P     0.6381708    0.7610286   -1.2937095 
P    -1.0588123   -1.6375937    0.7425170 
H     2.6687226    1.0051146    1.8495939 
H     1.2920758   -0.4352570    3.3489303 
C     3.0523624    5.4780866    0.0413114 
C     3.8903045    4.3554009   -0.0220498 
C     3.4754569    3.1392652    0.5335549 
C     2.2140618    3.0195650    1.1613209 
C     1.3684996    4.1537726    1.1903820 
C     1.7884976    5.3694918    0.6453787 
H     3.3783062    6.4334528   -0.3825844 
H     4.8751144    4.4286490   -0.4947747 
H     4.1418094    2.2712373    0.4954791 
H     0.3742688    4.0899732    1.6427533 
H     1.1230902    6.2374524    0.6839725 
C    -2.8969589   -0.4548980    5.8229902 
C    -2.9865146    0.5361937    4.8313883 
C    -1.9054166    0.7754558    3.9779119 
C    -0.7100282    0.0285116    4.0942633 
C    -0.6393395   -0.9705968    5.0888002 
C    -1.7197946   -1.2061825    5.9475157 
H    -3.7432438   -0.6412027    6.4920423 
H    -3.9039926    1.1243346    4.7246218 
H    -1.9914719    1.5500239    3.2076368 
H     0.2766300   -1.5611309    5.1929691 
H    -1.6422662   -1.9837348    6.7138633 
O     0.8179378   -3.5248460   -2.3703551 
O     0.5430058   -1.7347733   -3.7895006 
C     0.3613083   -2.4116124   -1.6128640 
C    -0.3513393   -1.5745469   -2.6905420 
C     1.1231316   -3.0564024   -3.7046627 
C    -0.4515773   -2.9410181   -0.4409083 
C    -0.5654236   -0.0771240   -2.4467519 
C     2.6309272   -2.9229256   -3.8855169 
C     0.4510172   -3.9993936   -4.6975556 
C    -1.4531871   -2.6633565    2.2157106 
C    -2.6930717   -1.0868954    0.1067254 
C     0.2176295    2.5262029   -1.5888616 
C     2.2967358    0.4957518   -2.0263276 
C    -0.4221728   -3.4286218    2.8022651 
C    -3.5278277   -1.9025428   -0.6841429 
C    -1.0655484    2.9636791   -1.1924406 
C     2.5394439    0.7337556   -3.3957335 
C    -2.7474601   -2.7067569    2.7667418 
C    -3.1280001    0.2098034    0.4525630 
C     1.1071139    3.4417764   -2.1808921 
C     3.3471631    0.0362904   -1.2083936 
C    -0.6964935   -4.2639531    3.8920413 
C    -4.7621501   -1.4163831   -1.1387404 
C    -1.4608916    4.2883642   -1.4142923 
C     3.8231540    0.5463165   -3.9227034 
C    -3.0117570   -3.5344806    3.8675318 
C    -4.3658270    0.6900844    0.0048405 
C     0.7047743    4.7673903   -2.3990651 
C     4.6290547   -0.1607538   -1.7412507 
C    -1.9946164   -4.3231405    4.4224433 
C    -5.1814503   -0.1209004   -0.7989909 
C    -0.5769510    5.1924926   -2.0241896 
C     4.8695929    0.1044782   -3.0974066 
H     1.2261529   -1.8306510   -1.2229100 
H    -1.3354252   -2.0412695   -2.9176143 
H     0.1962963   -3.6110056    0.1486060 
H    -1.2965410   -3.5550392   -0.7957409 
H    -1.5601981    0.0996391   -2.0040092 
H    -0.5465843    0.4402002   -3.4209270 
H     3.0455523   -2.2866239   -3.0875458 
H     2.8566103   -2.4579171   -4.8588234 
H     3.1059563   -3.9161934   -3.8416877 
H    -0.6393114   -3.9964492   -4.5365553 
H     0.8253701   -5.0264402   -4.5561898 
H     0.6639404   -3.6778238   -5.7298303 
H     0.5999852   -3.3785696    2.4073969 
H    -3.2261726   -2.9206999   -0.9479440 
H    -1.7605267    2.2629951   -0.7168221 
H     1.7286799    1.0597742   -4.0540003 
H    -3.5509798   -2.1016077    2.3363560 
H    -2.4831963    0.8389888    1.0760203 
H     2.1177059    3.1316994   -2.4595396 
H     3.1521899   -0.1773517   -0.1513112 
H     0.1060092   -4.8664843    4.3299602 
H    -5.3999945   -2.0548838   -1.7584847 
H    -2.4619388    4.6146915   -1.1131616 
H     4.0048883    0.7352789   -4.9856127 
H    -4.0213086   -3.5620593    4.2898194 
H    -4.6914916    1.6985605    0.2801750 
H     1.4061139    5.4722319   -2.8568762 
H     5.4380017   -0.5218815   -1.0980271 
H    -2.2092482   -4.9763673    5.2743502 
H    -6.1454070    0.2540541   -1.1577285 
H    -0.8853968    6.2283335   -2.1991290 
H     5.8702262   -0.0452293   -3.5157090 
