105
Energy =
C    -3.2290882   -0.9618869   -0.0477946 
C    -3.1945338    0.1544690   -0.9137486 
C    -2.4904352    0.1020420   -2.1536098 
H    -3.6179117    1.1089793   -0.5774731 
Pd   -1.0635192   -0.2202638   -0.4505471 
P     0.8478832    0.3581822   -1.7113171 
P    -0.1989202   -0.6945378    1.7180359 
H    -2.9487169   -1.9364687   -0.4765157 
H    -2.4167134   -0.8865020   -2.6257088 
C    -5.3124200   -1.3029783    3.6978676 
C    -5.3556222   -0.0900385    2.9901230 
C    -4.6850780    0.0387898    1.7715612 
C    -3.9492649   -1.0430891    1.2313499 
C    -3.9358396   -2.2646336    1.9446547 
C    -4.6054890   -2.3913345    3.1663911 
H    -5.8385210   -1.4001639    4.6530608 
H    -5.9191857    0.7585164    3.3911154 
H    -4.7435333    0.9897899    1.2328545 
H    -3.3880046   -3.1195028    1.5349167 
H    -4.5753302   -3.3449745    3.7030186 
C    -2.1182556    3.3617878   -4.9375548 
C    -2.4039000    3.6291010   -3.5884232 
C    -2.5112982    2.5817628   -2.6694696 
C    -2.3504572    1.2382632   -3.0822658 
C    -2.0481646    0.9860741   -4.4400667 
C    -1.9341584    2.0367171   -5.3582132 
H    -2.0329558    4.1848420   -5.6544861 
H    -2.5319178    4.6618760   -3.2495534 
H    -2.7098750    2.8122021   -1.6177150 
H    -1.9103267   -0.0462822   -4.7773207 
H    -1.7078995    1.8182607   -6.4069795 
C     0.1415323   -1.6160062   -3.6115051 
C     0.3160364   -2.3714207   -4.7803691 
C     1.3735747   -2.0784570   -5.6524253 
C     2.2769042   -1.0514174   -5.3343103 
C     2.1128686   -0.3067494   -4.1598079 
C     1.0165155   -0.5575632   -3.3051507 
C     0.7798422    2.1570234   -2.0823708 
C     0.3660202    3.0091964   -1.0329420 
C     0.3272655    4.3964832   -1.2123553 
C     0.6643157    4.9506218   -2.4567188 
C     1.0120929    4.1075329   -3.5216050 
C     1.0698238    2.7184424   -3.3409987 
C     2.4814990   -0.1458000   -0.9941593 
C     2.4039794   -1.4874856   -0.5659595 
C     3.4583709   -2.1288659    0.0946874 
C     3.6844537    0.5823650   -0.8055185 
C     4.8166392   -0.1797000   -0.4329382 
C     4.7159350   -1.4970975    0.0240512 
C     3.7877544    2.0926080   -0.6944662 
C     3.5502067    2.6283100    0.8064064 
C     3.1708929    1.5150062    1.7590063 
C     1.8740254    0.9900428    1.7278903 
C     1.5816122   -0.3406219    2.0923560 
C     2.6235130   -1.1795032    2.5667012 
C     3.8380941   -0.5311639    2.8940626 
C     4.1238486    0.7757088    2.4878251 
C     2.6410813   -2.6957104    2.4894582 
C     3.1594729   -3.2480294    1.0681215 
C    -0.6221157   -2.4236282    2.1747951 
C    -0.5986182   -3.3821457    1.1374147 
C    -0.9131808   -4.7220006    1.3975780 
C    -1.2738123   -5.1161948    2.6962381 
C    -1.3260989   -4.1642277    3.7256125 
C    -1.0054086   -2.8233574    3.4696981 
C    -0.9516382    0.4285683    2.9708898 
C    -1.8994807    1.3825220    2.5597496 
C    -2.4383320    2.2925506    3.4803420 
C    -2.0304975    2.2564468    4.8203516 
C    -1.0638975    1.3247492    5.2342931 
C    -0.5142115    0.4244003    4.3138745 
H    -0.6685132   -1.8627876   -2.9185819 
H    -0.3723668   -3.1927454   -5.0051971 
H     1.5089538   -2.6635528   -6.5678472 
H     3.1241516   -0.8409187   -5.9951322 
H     2.8567836    0.4514839   -3.8932935 
H     0.0193150    5.0430631   -0.3841098 
H     0.6310537    6.0351770   -2.6028377 
H     1.2352755    4.5303572   -4.5063522 
H     1.3249018    2.0785616   -4.1884661 
H     1.4338902   -1.9983907   -0.6269819 
H     5.7842632    0.3308197   -0.3616223 
H     5.6000454   -1.9888382    0.4452330 
H     3.0713268    2.5972766   -1.3568098 
H     4.7962688    2.4074860   -1.0093010 
H     2.7535752    3.3904661    0.7665092 
H     4.4705400    3.1296943    1.1480938 
H     1.0781171    1.5882818    1.2695442 
H     4.6358641   -1.1272970    3.3525958 
H     5.1347632    1.1741144    2.6303432 
H     1.6492145   -3.1253350    2.6831238 
H     3.3171538   -3.0826034    3.2694556 
H     4.0585595   -3.8622593    1.2398431 
H     2.3788379   -3.9127768    0.6603035 
H    -0.3435836   -3.0704038    0.1171861 
H    -0.8860236   -5.4565660    0.5860999 
H    -1.5255030   -6.1616638    2.9018630 
H    -1.6267942   -4.4637605    4.7348998 
H    -1.0738952   -2.0901921    4.2771983 
H    -2.2015207    1.4145389    1.5070149 
H    -3.1775891    3.0291320    3.1487749 
H    -2.4515452    2.9645858    5.5415629 
H    -0.7240859    1.3120052    6.2750689 
H     0.2793921   -0.2605054    4.6314182 
H     0.0577473    2.5791222   -0.0735886 
