105
Energy =
C    -0.6387075   -1.3458579    3.0013720 
C    -0.6630519    0.0468965    3.2320820 
C    -1.6721098    0.8957339    2.6917347 
H     0.1747144    0.5171526    3.7630135 
Pd   -0.5296884   -0.0750299    1.0306912 
P    -1.0170882    1.5582390   -0.6408549 
P     0.8176510   -1.6541762   -0.1514223 
H    -1.5698676   -1.8166633    2.6537811 
H    -2.6568222    0.4506793    2.4839632 
C     2.1927144   -4.1435102    4.6395723 
C     1.0523535   -4.5906157    3.9573626 
C     0.1433909   -3.6680591    3.4281111 
C     0.3549668   -2.2759182    3.5615534 
C     1.5001462   -1.8430562    4.2737640 
C     2.4073206   -2.7643553    4.8017987 
H     2.9063739   -4.8630680    5.0537771 
H     0.8664549   -5.6624827    3.8357478 
H    -0.7455559   -4.0271750    2.9007445 
H     1.6853303   -0.7752503    4.4259068 
H     3.2866996   -2.4069068    5.3472094 
C    -1.7061364    5.1112928    3.5580783 
C    -0.4950708    4.4740683    3.2350858 
C    -0.4768727    3.1048140    2.9525141 
C    -1.6713577    2.3481048    2.9639018 
C    -2.8820362    3.0028638    3.2754875 
C    -2.8959044    4.3690779    3.5860497 
H    -1.7198569    6.1822828    3.7851154 
H     0.4364912    5.0482524    3.1984388 
H     0.4677834    2.6204928    2.6847635 
H    -3.8176701    2.4337913    3.2761168 
H    -3.8428008    4.8584104    3.8362689 
C     1.0379638   -4.4791007    0.2739758 
C     0.4867018   -5.7545176    0.4624485 
C    -0.9048242   -5.9243144    0.5270082 
C    -1.7507196   -4.8081663    0.4257911 
C    -1.2018663   -3.5313567    0.2498982 
C     0.1953379   -3.3582014    0.1471246 
C     2.5566446   -1.5838467    0.4521743 
C     3.5970424   -2.2546124   -0.2273552 
C     4.9152792   -2.1557532    0.2350036 
C     5.2125777   -1.3714956    1.3618352 
C     4.1884276   -0.6794798    2.0229720 
C     2.8667153   -0.7854861    1.5679437 
C     1.1250874   -1.4420589   -1.9660823 
C     1.6744621   -0.1628829   -2.2006814 
C     1.8262409    0.3708052   -3.4854578 
C     0.7641899   -2.2583887   -3.0700578 
C     1.2303832   -1.8261778   -4.3359816 
C     1.7307888   -0.5403916   -4.5560859 
C    -0.2666662   -3.3759566   -3.0671916 
C    -1.7828909   -2.8491220   -3.1693107 
C    -1.8492064   -1.3493511   -3.3530382 
C    -1.6955158   -0.5108265   -2.2380682 
C    -1.1612182    0.7914887   -2.3252059 
C    -0.7949453    1.3031816   -3.6017297 
C    -1.2431413    0.5638007   -4.7191561 
C    -1.7500761   -0.7359613   -4.6137549 
C     0.2454793    2.3768373   -3.8694671 
C     1.7579154    1.8701558   -3.6739902 
C     0.2587815    2.8832818   -0.5560940 
C     1.4748324    2.5859250    0.0936019 
C     2.4847886    3.5510240    0.2049485 
C     2.2832838    4.8352663   -0.3205520 
C     1.0686844    5.1492443   -0.9521778 
C     0.0613631    4.1830012   -1.0700326 
C    -2.6360045    2.4418565   -0.5131460 
C    -3.7850886    1.8871276   -1.1212295 
C    -5.0239149    2.5309015   -1.0159014 
C    -5.1364833    3.7403471   -0.3125016 
C    -4.0035975    4.2918217    0.2988152 
C    -2.7622571    3.6443458    0.2137026 
H     2.1242567   -4.3602672    0.2393061 
H     1.1500072   -6.6196145    0.5641429 
H    -1.3298048   -6.9231622    0.6695765 
H    -2.8366417   -4.9310376    0.4929270 
H    -1.8625321   -2.6579884    0.1952281 
H     5.7165878   -2.6811792   -0.2947614 
H     6.2460103   -1.2907981    1.7145139 
H     4.4163106   -0.0565069    2.8942592 
H     2.0616676   -0.2395686    2.0716943 
H     1.8521259    0.4949857   -1.3424058 
H     1.0570639   -2.4785837   -5.1997927 
H     1.9274450   -0.2080327   -5.5817260 
H    -0.1856319   -4.0163366   -2.1783980 
H    -0.0747016   -4.0186078   -3.9417431 
H    -2.3103247   -3.1447952   -2.2473378 
H    -2.2731317   -3.3693649   -4.0085122 
H    -1.8581233   -0.9337351   -1.2372493 
H    -1.0489732    0.9713983   -5.7180300 
H    -1.9343975   -1.3166752   -5.5246406 
H     0.1076725    3.2646682   -3.2393785 
H     0.1277121    2.7066271   -4.9142875 
H     2.3404160    2.1939203   -4.5526094 
H     2.1777383    2.3780227   -2.7893637 
H     1.6229138    1.5892222    0.5269611 
H     3.4245427    3.2970549    0.7059435 
H     3.0673595    5.5945526   -0.2333697 
H     0.9039167    6.1533888   -1.3561617 
H    -0.8823095    4.4441829   -1.5592364 
H    -3.7128110    0.9600013   -1.6974910 
H    -5.9020006    2.0912063   -1.5002076 
H    -6.1033156    4.2495911   -0.2437221 
H    -4.0773722    5.2295955    0.8585441 
H    -1.8967166    4.0861527    0.7152271 
H     3.3786928   -2.8313082   -1.1326219 
