105
Energy =
C    -2.6117614    0.4870315   -2.0390332 
C    -3.0956983   -0.4173195   -1.0489798 
C    -3.3243805    0.0127734    0.2775173 
H    -3.2092394   -1.4763548   -1.3132807 
Pd   -1.0933446    0.1995755   -0.3936879 
P    -0.2575094   -0.3192125    1.7815913 
P     0.8772654    0.8902975   -1.5555590 
H    -2.8260013    1.5553176   -1.8804525 
H    -3.4164061    1.0985690    0.4248038 
C    -2.3502563   -0.7413221   -6.1488553 
C    -1.7706520   -1.5381537   -5.1474401 
C    -1.8278603   -1.1368908   -3.8097123 
C    -2.4585602    0.0746438   -3.4483368 
C    -3.0133546    0.8799626   -4.4674225 
C    -2.9725040    0.4675968   -5.8047179 
H    -2.3057951   -1.0582921   -7.1957943 
H    -1.2607466   -2.4691161   -5.4147738 
H    -1.3507939   -1.7460125   -3.0326948 
H    -3.4997569    1.8254708   -4.2019272 
H    -3.4226583    1.0946712   -6.5813191 
C    -4.9880494   -2.2754881    3.5139165 
C    -4.7688877   -0.8969210    3.6491147 
C    -4.2214586   -0.1682956    2.5880779 
C    -3.8717070   -0.8006827    1.3715207 
C    -4.1027199   -2.1915584    1.2513390 
C    -4.6563508   -2.9171203    2.3090211 
H    -5.4206492   -2.8488858    4.3402269 
H    -5.0318988   -0.3850803    4.5804435 
H    -4.0669554    0.9088890    2.6987740 
H    -3.8524013   -2.7125978    0.3230083 
H    -4.8282197   -3.9919754    2.1952881 
C    -1.6135997    1.9729622    2.7293706 
C    -1.9648293    2.9362302    3.6863311 
C    -1.4804578    2.8280743    4.9975204 
C    -0.6256424    1.7685876    5.3421244 
C    -0.2619356    0.8150391    4.3829697 
C    -0.7768903    0.8940333    3.0703338 
C    -0.9080378   -1.9723736    2.2568567 
C    -0.9967430   -2.9437781    1.2357199 
C    -1.3622972   -4.2617328    1.5354771 
C    -1.6831217   -4.6140575    2.8546993 
C    -1.6630091   -3.6376824    3.8621406 
C    -1.2765541   -2.3222647    3.5697107 
C     1.5694648   -0.2886994    2.1025323 
C     2.0717159    0.9927595    1.7892682 
C     3.4404918    1.2791855    1.7430179 
C     2.4747940   -1.3259684    2.4493711 
C     3.8070979   -0.9197819    2.7094293 
C     4.2959964    0.3389790    2.3510892 
C     2.2328331   -2.8212318    2.3175737 
C     2.4558543   -3.3777682    0.8244607 
C     2.9375582   -2.2960286   -0.1163879 
C     2.0152855   -1.3785729   -0.6443037 
C     2.3671291   -0.0594492   -0.9958745 
C     3.7220765    0.3554739   -0.8644951 
C     4.6661215   -0.6693247   -0.6331201 
C     4.2966422   -1.9648087   -0.2542337 
C     4.2000775    1.7839204   -0.6741719 
C     3.9369343    2.3570359    0.8048701 
C     1.0467685    2.7166134   -1.3559060 
C     1.7899761    3.5136152   -2.2538682 
C     1.8768921    4.8983164   -2.0616351 
C     1.2170363    5.5079886   -0.9816284 
C     0.4522753    4.7292898   -0.1016218 
C     0.3628835    3.3436624   -0.2946554 
C     0.9666598    0.6641222   -3.3802604 
C     0.2274709    1.5238136   -4.2215414 
C     0.2879009    1.3745245   -5.6112851 
C     1.0657289    0.3537745   -6.1788160 
C     1.7858888   -0.5161943   -5.3487733 
C     1.7398328   -0.3652466   -3.9558691 
H    -1.9868384    2.0609393    1.7040299 
H    -2.6143840    3.7719469    3.4052822 
H    -1.7540930    3.5774214    5.7474388 
H    -0.2265412    1.6939361    6.3589379 
H     0.4457866    0.0219361    4.6468561 
H    -1.4079347   -5.0098801    0.7372614 
H    -1.9716283   -5.6427675    3.0938185 
H    -1.9493437   -3.8998585    4.8857472 
H    -1.2679328   -1.5730061    4.3654957 
H     1.3722784    1.7536141    1.4254184 
H     4.5139189   -1.6745603    3.0735876 
H     5.3700713    0.5416466    2.4302595 
H     1.2254336   -3.1114496    2.6444000 
H     2.9450115   -3.3411959    2.9787221 
H     1.4990591   -3.7959525    0.4708393 
H     3.1802415   -4.2075512    0.8699260 
H     0.9495326   -1.6433396   -0.6473318 
H     5.7277893   -0.3975017   -0.6077548 
H     5.0701643   -2.6720668    0.0658920 
H     3.7398467    2.4785408   -1.3885084 
H     5.2858126    1.8060916   -0.8614477 
H     4.8763853    2.8057437    1.1682770 
H     3.1881832    3.1636282    0.7302631 
H     2.2961628    3.0517380   -3.1076931 
H     2.4605518    5.5055145   -2.7612429 
H     1.2891411    6.5908522   -0.8366609 
H    -0.0797678    5.1963914    0.7334821 
H    -0.2515092    2.7377413    0.3814460 
H    -0.3861409    2.3211146   -3.7899055 
H    -0.2853630    2.0509719   -6.2524423 
H     1.1078398    0.2375355   -7.2666140 
H     2.3970168   -1.3134103   -5.7845416 
H     2.3190176   -1.0411691   -3.3202826 
H    -0.7747249   -2.6601522    0.1999696 
