105
Energy =
C    -2.0484971    2.4635899   -0.7424582 
C    -2.9499925    1.4289979   -0.4131082 
C    -2.9479017    0.8653405    0.9025418 
H    -3.5762537    0.9731495   -1.1912402 
Pd   -0.9833265    0.5136672   -0.0623961 
P    -0.0951163   -0.6846269    1.8433909 
P     0.7633697    0.2326887   -1.6657423 
H    -1.5365100    2.9546881    0.0998994 
H    -2.6901870    1.5311619    1.7392788 
C    -1.8316569    4.7824390   -4.3434898 
C    -0.8285865    4.8820685   -3.3668492 
C    -0.9090129    4.1103509   -2.2048392 
C    -1.9811901    3.2087367   -2.0024157 
C    -2.9809405    3.1137875   -2.9997885 
C    -2.9087556    3.9006652   -4.1531594 
H    -1.7779085    5.3943178   -5.2496027 
H     0.0135213    5.5658506   -3.5113816 
H    -0.1343040    4.1998247   -1.4353681 
H    -3.8359908    2.4451264   -2.8580961 
H    -3.6997281    3.8320612   -4.9070786 
C    -5.4967513   -2.4546227    1.9174944 
C    -4.6373121   -2.5472170    0.8098509 
C    -3.8117572   -1.4693826    0.4720087 
C    -3.8149285   -0.2860529    1.2444839 
C    -4.6741964   -0.2107545    2.3610437 
C    -5.5167819   -1.2814931    2.6863858 
H    -6.1457979   -3.2961789    2.1808111 
H    -4.6069910   -3.4646953    0.2129182 
H    -3.1221208   -1.5533740   -0.3758896 
H    -4.6759511    0.6932930    2.9787392 
H    -6.1830277   -1.2036523    3.5519019 
C    -2.0754562   -1.2115201    3.7990669 
C    -2.7846847   -0.9659936    4.9834350 
C    -2.4790672    0.1494363    5.7747492 
C    -1.4563447    1.0239338    5.3756091 
C    -0.7300931    0.7754265    4.2030827 
C    -1.0260007   -0.3529456    3.4075008 
C    -0.0042369   -2.5198861    1.8085915 
C     0.1283927   -3.2967870    2.9826982 
C     0.1819499   -4.6928819    2.8979657 
C     0.0971596   -5.3323160    1.6488602 
C    -0.0564773   -4.5695954    0.4836963 
C    -0.1146792   -3.1704606    0.5668606 
C     1.5277970    0.1489365    2.2002395 
C     1.4927929    1.4764598    1.7286997 
C     2.5926146    2.3410387    1.8019709 
C     2.7149029   -0.3267075    2.8268013 
C     3.6704426    0.6520863    3.1765717 
C     3.6305690    1.9575088    2.6681079 
C     3.1462663   -1.7797981    2.8716197 
C     3.9776541   -2.2325193    1.5699933 
C     3.9306128   -1.1949886    0.4706851 
C     2.7905850   -1.0637134   -0.3356968 
C     2.4478989    0.1649285   -0.9411241 
C     3.2669220    1.3065608   -0.7164526 
C     4.5549094    1.0618453   -0.1979958 
C     4.8846068   -0.1608331    0.3950983 
C     2.7383589    2.7388178   -0.7202100 
C     2.7575346    3.3987195    0.7262271 
C     0.8506218    1.2279587   -3.2190542 
C    -0.3369184    1.3141416   -3.9744816 
C    -0.3335357    1.9288332   -5.2306704 
C     0.8518944    2.4803762   -5.7406377 
C     2.0365183    2.3948366   -4.9963054 
C     2.0426183    1.7619202   -3.7442631 
C     0.5020771   -1.4142288   -2.4699697 
C    -0.8169346   -1.8992974   -2.5796776 
C    -1.0822450   -3.0940211   -3.2634635 
C    -0.0277246   -3.8159939   -3.8418660 
C     1.2865664   -3.3304204   -3.7489126 
C     1.5531879   -2.1296025   -3.0771855 
H    -2.3426908   -2.0767064    3.1844629 
H    -3.5891708   -1.6482223    5.2761787 
H    -3.0344179    0.3378343    6.6993638 
H    -1.2085815    1.8972813    5.9878604 
H     0.0818174    1.4524486    3.9210143 
H     0.2882649   -5.2861576    3.8120689 
H     0.1396030   -6.4249460    1.5903734 
H    -0.1393979   -5.0542754   -0.4944614 
H    -0.2571112   -2.5814678   -0.3415005 
H     0.6193661    1.7859643    1.1314210 
H     4.5580973    0.3331291    3.7355957 
H     4.4861045    2.6230897    2.8307790 
H     2.2849323   -2.4498042    2.9658779 
H     3.7846668   -1.9455477    3.7551688 
H     3.5575403   -3.1919458    1.2237018 
H     5.0223497   -2.4163752    1.8705683 
H     2.0843348   -1.9000725   -0.3831833 
H     5.2568202    1.8991097   -0.1073932 
H     5.8393162   -0.2601557    0.9234864 
H     1.7010526    2.7412914   -1.0958564 
H     3.3140838    3.3894890   -1.4025671 
H     3.7113333    3.9312917    0.8784691 
H     1.9571041    4.1608341    0.7588930 
H    -1.2640929    0.8798566   -3.5854979 
H    -1.2602464    1.9820926   -5.8096122 
H     0.8535669    2.9660706   -6.7219086 
H     2.9691619    2.8055950   -5.3971082 
H     2.9830201    1.6601410   -3.1955714 
H    -1.6369475   -1.3372580   -2.1151892 
H    -2.1109736   -3.4612688   -3.3395159 
H    -0.2294623   -4.7525118   -4.3720893 
H     2.1098288   -3.8856905   -4.2103114 
H     2.5790152   -1.7513382   -3.0234916 
H     0.1852397   -2.8107848    3.9619652 
