105
Energy =
C     0.3406591   -0.3341616    3.4009332 
C     1.0680376    0.7968855    2.9968065 
C     0.4137472    1.9638104    2.4736388 
H     2.1626666    0.7412566    2.9767783 
Pd   -0.0173391    0.2669858    1.1402641 
P    -1.4554021    1.4173554   -0.3420094 
P     0.5179422   -1.7150570   -0.1249693 
H    -0.7481783   -0.2194692    3.5163678 
H    -0.5713515    2.2237002    2.8818525 
C     1.8338341   -3.8527814    5.3389313 
C     0.4742191   -3.7410485    5.0082301 
C     0.0095823   -2.5998592    4.3469637 
C     0.8944215   -1.5509008    3.9970744 
C     2.2661710   -1.6907547    4.3160362 
C     2.7263149   -2.8264271    4.9856883 
H     2.1987413   -4.7373142    5.8711168 
H    -0.2252263   -4.5387035    5.2784115 
H    -1.0546969   -2.5051692    4.1022857 
H     2.9759359   -0.8996432    4.0578413 
H     3.7882464   -2.9143638    5.2353439 
C     2.6350258    5.2785711    0.8340543 
C     3.2323349    4.0102409    0.9244750 
C     2.5126699    2.9248848    1.4348036 
C     1.1833039    3.0871231    1.8993271 
C     0.6026768    4.3737684    1.8132555 
C     1.3156689    5.4524365    1.2772213 
H     3.1984058    6.1246951    0.4275817 
H     4.2655570    3.8663167    0.5910052 
H     2.9913487    1.9400574    1.4677796 
H    -0.4170864    4.5283774    2.1748762 
H     0.8389004    6.4361520    1.2176272 
C    -2.0199636   -2.8511138   -0.4465983 
C    -2.9364430   -3.8633682   -0.7689638 
C    -2.4742407   -5.1351625   -1.1330899 
C    -1.0928728   -5.3934552   -1.1722294 
C    -0.1758113   -4.3842498   -0.8575896 
C    -0.6358788   -3.0963980   -0.4967876 
C     1.9422834   -2.5790764    0.6823700 
C     3.2711724   -2.1503692    0.4828328 
C     4.3332032   -2.8281367    1.0989654 
C     4.0856520   -3.9440284    1.9109330 
C     2.7652207   -4.3617044    2.1302879 
C     1.6975361   -3.6747301    1.5392066 
C     1.2843307   -1.0434302   -1.6797065 
C     1.8800324    0.2096178   -1.4167045 
C     2.4652990    0.9975413   -2.4158587 
C     1.3054916   -1.5459590   -3.0128964 
C     2.1885332   -0.9014469   -3.9068403 
C     2.7498431    0.3514527   -3.6321997 
C     0.2547549   -2.4635649   -3.6173902 
C    -0.8418357   -1.6644578   -4.4655443 
C    -0.9429395   -0.2145093   -4.0401427 
C    -1.4073488    0.1233345   -2.7607219 
C    -0.9967222    1.3100254   -2.1138440 
C    -0.0677809    2.1743164   -2.7595372 
C     0.0928157    1.9875251   -4.1475337 
C    -0.3240033    0.8117506   -4.7803398 
C     0.9619641    3.0234365   -2.0164790 
C     2.4386994    2.5075357   -2.2731456 
C    -1.9747541    3.1491627    0.0418347 
C    -2.6119368    3.3510797    1.2863669 
C    -3.0806924    4.6187286    1.6492446 
C    -2.9123788    5.7064852    0.7762928 
C    -2.2988566    5.5086978   -0.4678629 
C    -1.8403358    4.2353377   -0.8410651 
C    -3.1282113    0.6375659   -0.2186633 
C    -3.4666103   -0.0713403    0.9510014 
C    -4.7627898   -0.5785670    1.1255761 
C    -5.7283611   -0.3844208    0.1275251 
C    -5.3997366    0.3294063   -1.0368482 
C    -4.1106479    0.8501203   -1.2076470 
H    -2.3849837   -1.8650432   -0.1522971 
H    -4.0100267   -3.6522751   -0.7267551 
H    -3.1862060   -5.9291039   -1.3817385 
H    -0.7283396   -6.3864551   -1.4550441 
H     0.8977961   -4.5911306   -0.9072597 
H     5.3606800   -2.4931774    0.9218250 
H     4.9180660   -4.4844506    2.3733548 
H     2.5582923   -5.2230427    2.7726212 
H     0.6743610   -4.0125559    1.7275653 
H     1.7245552    0.6577183   -0.4208300 
H     2.2975119   -1.3154330   -4.9165172 
H     3.2816672    0.8870115   -4.4271120 
H    -0.2673841   -3.0274857   -2.8382964 
H     0.7271366   -3.2016256   -4.2886382 
H    -1.8026494   -2.1942614   -4.3422982 
H    -0.5765462   -1.7123996   -5.5349759 
H    -1.9898974   -0.6170970   -2.2009490 
H     0.7144895    2.6956059   -4.7079579 
H    -0.0359491    0.6335203   -5.8224532 
H     0.7639888    2.9933728   -0.9296635 
H     0.9194579    4.0879435   -2.3084523 
H     2.8376983    2.9677390   -3.1930665 
H     3.0596825    2.8659258   -1.4351949 
H    -2.7623304    2.5061436    1.9680306 
H    -3.5793309    4.7579943    2.6139957 
H    -3.2736947    6.7001242    1.0603523 
H    -2.1853927    6.3461927   -1.1640843 
H    -1.4046645    4.0907263   -1.8323969 
H    -2.7004989   -0.2357182    1.7197760 
H    -5.0140781   -1.1297689    2.0375821 
H    -6.7397384   -0.7832003    0.2578161 
H    -6.1551980    0.4898797   -1.8130329 
H    -3.8664721    1.4195136   -2.1102555 
H     3.4851870   -1.3057823   -0.1794498 
