105
Energy =
C     0.2402139   -0.3149859    3.3868428 
C     1.0346975    0.8036327    3.0722354 
C     0.4137425    1.9925322    2.5457701 
H     2.1274433    0.7245189    3.1134337 
Pd    0.0846343    0.3446026    1.1462542 
P    -1.3912486    1.4168716   -0.3750944 
P     0.5543927   -1.6157236   -0.1622449 
H    -0.8409182   -0.1348353    3.4880505 
H    -0.5885941    2.2485302    2.9133763 
C     1.3846454   -4.2264640    4.7188672 
C     0.0334006   -3.8483113    4.6724887 
C    -0.3167011   -2.5640369    4.2435298 
C     0.6762127   -1.6297162    3.8574074 
C     2.0342062   -2.0189809    3.9361103 
C     2.3816782   -3.3056799    4.3542191 
H     1.6622318   -5.2333351    5.0470102 
H    -0.7467481   -4.5564335    4.9705000 
H    -1.3722622   -2.2732799    4.1940790 
H     2.8235157   -1.3138344    3.6652578 
H     3.4362644   -3.5943544    4.3942585 
C     2.6337989    5.2931518    0.8839587 
C     3.2537335    4.0421836    1.0413837 
C     2.5405145    2.9624774    1.5723507 
C     1.1928689    3.1137566    1.9857806 
C     0.5872640    4.3827849    1.8290392 
C     1.2967245    5.4553659    1.2767942 
H     3.1927912    6.1351910    0.4632191 
H     4.2995805    3.9077186    0.7455203 
H     3.0378931    1.9904873    1.6614525 
H    -0.4504360    4.5252033    2.1436537 
H     0.8023461    6.4254184    1.1619006 
C    -1.7733811   -3.0119513   -1.2079452 
C    -2.8633332   -3.8748905   -1.0250554 
C    -3.0111572   -4.5886188    0.1710590 
C    -2.0614894   -4.4251551    1.1917801 
C    -0.9705949   -3.5674082    1.0104138 
C    -0.7992978   -2.8593350   -0.2036108 
C     2.0278885   -2.5456462    0.4694522 
C     3.1317926   -1.7841929    0.9065470 
C     4.3157268   -2.4128478    1.3105236 
C     4.4062236   -3.8130032    1.2987550 
C     3.3125522   -4.5766114    0.8659205 
C     2.1313292   -3.9496689    0.4425078 
C     1.3152592   -0.9608308   -1.7336650 
C     1.8951603    0.2910492   -1.4441370 
C     2.5591305    1.0682778   -2.4001517 
C     1.4592251   -1.4886094   -3.0459220 
C     2.3958352   -0.8461289   -3.8845277 
C     2.9318153    0.4143438   -3.5866803 
C     0.4756401   -2.4436775   -3.6859296 
C    -0.7037175   -1.6633456   -4.4591838 
C    -0.8103724   -0.2035583   -4.0565475 
C    -1.3427050    0.1750504   -2.8145553 
C    -0.9318486    1.3551595   -2.1544931 
C     0.0242280    2.2055128   -2.7763869 
C     0.2396699    1.9933488   -4.1543940 
C    -0.1419999    0.8028855   -4.7812924 
C     1.0272319    3.0738884   -2.0180964 
C     2.5169260    2.5779622   -2.2435002 
C    -2.0006817    3.1056919    0.0323721 
C    -2.6767806    3.2467264    1.2650422 
C    -3.1730195    4.4929706    1.6637146 
C    -2.9938555    5.6170288    0.8394044 
C    -2.3402172    5.4790134   -0.3926057 
C    -1.8509793    4.2281288   -0.8015084 
C    -2.9770795    0.4772932   -0.2683075 
C    -3.1272365   -0.5573332    0.6733849 
C    -4.3521903   -1.2293298    0.7978619 
C    -5.4305048   -0.8740355   -0.0230562 
C    -5.2883479    0.1614531   -0.9631466 
C    -4.0713613    0.8422455   -1.0823352 
H    -1.7020065   -2.4535769   -2.1390329 
H    -3.6047615   -3.9772953   -1.8238305 
H    -3.8630278   -5.2618277    0.3108621 
H    -2.1638837   -4.9683261    2.1373139 
H    -0.2469560   -3.4484640    1.8222336 
H     5.1668779   -1.8082584    1.6411695 
H     5.3291008   -4.3072337    1.6194377 
H     3.3799571   -5.6693229    0.8428981 
H     1.2961702   -4.5603119    0.0862114 
H     1.6708646    0.7567265   -0.4696069 
H     2.5850624   -1.2778322   -4.8745688 
H     3.5198261    0.9415950   -4.3467300 
H     0.0390793   -3.1171033   -2.9337314 
H     0.9895735   -3.0822885   -4.4234877 
H    -1.6510245   -2.2021860   -4.2787429 
H    -0.5032525   -1.7293765   -5.5411080 
H    -1.9886307   -0.5229645   -2.2747956 
H     0.8820990    2.6924802   -4.7024150 
H     0.2007666    0.6033776   -5.8027586 
H     0.8054408    3.0498013   -0.9353768 
H     0.9724724    4.1356106   -2.3186971 
H     2.9367223    3.0516279   -3.1470974 
H     3.1136506    2.9314211   -1.3852946 
H    -2.8313478    2.3697802    1.9050305 
H    -3.7023679    4.5882283    2.6174085 
H    -3.3770175    6.5936703    1.1523556 
H    -2.2177093    6.3462290   -1.0498020 
H    -1.3771705    4.1285409   -1.7812577 
H    -2.2756189   -0.8425581    1.3034381 
H    -4.4542824   -2.0376587    1.5285464 
H    -6.3865285   -1.4000317    0.0690925 
H    -6.1329959    0.4444012   -1.5999198 
H    -3.9667869    1.6569331   -1.8071063 
H     3.0663358   -0.6901147    0.9202521 
