105
Energy =
C    -2.9113702    0.1465556   -1.8101727 
C    -2.6966656   -1.1904125   -1.4379726 
C    -2.7528619   -1.6050898   -0.0638253 
H    -2.3681916   -1.9053083   -2.2013939 
Pd   -1.1287797   -0.1356319   -0.2839471 
P    -0.5123187   -0.0339047    1.9964572 
P     0.7784769    0.8731859   -1.3599397 
H    -3.3436333    0.8180344   -1.0522668 
H    -3.4695044   -1.0970073    0.5941466 
C    -3.1932391    1.7535414   -5.7730350 
C    -2.9570222    0.3792339   -5.5994470 
C    -2.8203921   -0.1567829   -4.3172415 
C    -2.9323907    0.6725572   -3.1760092 
C    -3.1572492    2.0576346   -3.3672455 
C    -3.2829304    2.5941475   -4.6524392 
H    -3.3072728    2.1670833   -6.7803882 
H    -2.8795341   -0.2773671   -6.4715764 
H    -2.6457634   -1.2306137   -4.2038710 
H    -3.2423862    2.7108829   -2.4912236 
H    -3.4638842    3.6661031   -4.7816359 
C    -1.6785647   -5.6007630    1.1562078 
C    -1.2091179   -5.0905351   -0.0657121 
C    -1.5345468   -3.7884080   -0.4594393 
C    -2.3668764   -2.9713824    0.3461607 
C    -2.8409411   -3.5058807    1.5666440 
C    -2.4919745   -4.7996904    1.9710872 
H    -1.4167678   -6.6179469    1.4649652 
H    -0.5819741   -5.7117207   -0.7140492 
H    -1.1322360   -3.4036320   -1.4028893 
H    -3.4932142   -2.9002937    2.2010782 
H    -2.8691334   -5.1858617    2.9235373 
C    -0.2572460    2.1801469    3.7741780 
C    -0.5989792    3.4545185    4.2447236 
C    -1.5344750    4.2400592    3.5511058 
C    -2.1309938    3.7484458    2.3812066 
C    -1.7796607    2.4788903    1.8989618 
C    -0.8350069    1.6899328    2.5849065 
C    -1.5332898   -0.9113990    3.2627953 
C    -2.9032002   -0.5700361    3.3094676 
C    -3.7495046   -1.1487898    4.2619228 
C    -3.2404332   -2.0845086    5.1777437 
C    -1.8783922   -2.4123672    5.1494607 
C    -1.0236935   -1.8226732    4.2046924 
C     1.2619196   -0.3429841    2.3396060 
C     2.1062455    0.7717646    2.1398727 
C     3.5029061    0.6445750    2.1359796 
C     1.8361281   -1.6339827    2.5140717 
C     3.2045284   -1.6645913    2.8514258 
C     4.0308937   -0.5528705    2.6571837 
C     1.1734164   -2.9297370    2.0500288 
C     1.9606219   -3.5875147    0.8412883 
C     2.5605093   -2.5214748   -0.0558375 
C     1.7325689   -1.5084991   -0.5559094 
C     2.1977343   -0.2031790   -0.8278683 
C     3.5755493    0.0916460   -0.6153429 
C     4.4307915   -1.0194177   -0.4465937 
C     3.9457787   -2.3004108   -0.1563141 
C     4.1278071    1.4560400   -0.2351511 
C     4.3627063    1.6045111    1.3405669 
C     1.2317878    2.6528073   -1.2916933 
C     2.0824739    3.2498489   -2.2510319 
C     2.4325329    4.5997140   -2.1340209 
C     1.9434640    5.3699332   -1.0644561 
C     1.0941013    4.7861608   -0.1150185 
C     0.7357970    3.4347205   -0.2328981 
C     0.6881873    0.5439765   -3.1796541 
C     0.1835418    1.5396429   -4.0447733 
C     0.1413214    1.3192343   -5.4272143 
C     0.5606890    0.0933184   -5.9631522 
C     1.0186520   -0.9169849   -5.1055225 
C     1.0879898   -0.6950322   -3.7225162 
H     0.4604053    1.5671930    4.3291000 
H    -0.1393069    3.8329934    5.1635890 
H    -1.8017936    5.2328646    3.9276167 
H    -2.8647858    4.3536259    1.8389161 
H    -2.2284193    2.0954496    0.9735472 
H    -4.8075965   -0.8687507    4.2903278 
H    -3.9018689   -2.5427889    5.9200731 
H    -1.4688742   -3.1227462    5.8751764 
H     0.0432458   -2.0563568    4.2257938 
H     1.6651867    1.7306074    1.8444144 
H     3.6662698   -2.6272056    3.1004932 
H     5.1147106   -0.6641862    2.7745893 
H     0.1360751   -2.7294503    1.7256482 
H     1.1049469   -3.6800860    2.8577939 
H     1.2511685   -4.2417248    0.3074683 
H     2.7668285   -4.2321376    1.2306850 
H     0.6439860   -1.6846560   -0.5761143 
H     5.5093107   -0.8365357   -0.3686386 
H     4.6500751   -3.0860745    0.1407267 
H     3.4496803    2.2547325   -0.5511117 
H     5.0940152    1.6350893   -0.7379293 
H     5.4252606    1.4142155    1.5664906 
H     4.1543075    2.6557175    1.6062929 
H     2.4821086    2.6548446   -3.0782158 
H     3.0953806    5.0530085   -2.8784000 
H     2.2225917    6.4252345   -0.9781431 
H     0.7000648    5.3778379    0.7177996 
H     0.0643371    2.9871497    0.5027019 
H    -0.1539823    2.5006039   -3.6459875 
H    -0.2304295    2.1108004   -6.0848956 
H     0.5279405   -0.0748840   -7.0445718 
H     1.3476754   -1.8784762   -5.5136071 
H     1.4851056   -1.4803174   -3.0718857 
H    -3.3071287    0.1702468    2.6094727 
