105
Energy =
C    -0.2834465   -1.0922972    3.0799386 
C    -0.1758757    0.3105661    3.2741072 
C    -1.1957786    1.1954783    2.8482171 
H     0.7637894    0.7238840    3.6587591 
Pd   -0.2979396    0.0205217    1.0796561 
P    -0.9116074    1.5898022   -0.5904122 
P     0.6606404   -1.7698807   -0.1191704 
H    -1.2998036   -1.4947999    2.9636326 
H    -2.1901886    0.7626290    2.6651149 
C     2.5787632   -4.0389615    4.3612183 
C     1.2981289   -4.4207868    3.9368079 
C     0.3805351   -3.4510181    3.5169760 
C     0.7241947   -2.0793882    3.5029319 
C     2.0229399   -1.7123345    3.9277366 
C     2.9346899   -2.6799050    4.3565880 
H     3.2975781   -4.7942436    4.6953283 
H     1.0073851   -5.4763623    3.9414904 
H    -0.6213834   -3.7574607    3.2017505 
H     2.3296053   -0.6623989    3.9201802 
H     3.9335032   -2.3736663    4.6825080 
C    -1.2692172    5.4708916    3.3015217 
C    -2.3722350    4.7829989    2.7747100 
C    -2.3378474    3.3898149    2.6514733 
C    -1.1899627    2.6553554    3.0291382 
C    -0.0935587    3.3614335    3.5783365 
C    -0.1357626    4.7514588    3.7156913 
H    -1.2952613    6.5607150    3.4021604 
H    -3.2673996    5.3320410    2.4648085 
H    -3.2082526    2.8566531    2.2570965 
H     0.8035759    2.8231558    3.9016668 
H     0.7207377    5.2801825    4.1467741 
C    -1.4498351   -3.4404817    0.6496177 
C    -2.1534453   -4.6497714    0.7363034 
C    -1.5889700   -5.8254504    0.2203547 
C    -0.3311349   -5.7837980   -0.4022415 
C     0.3678629   -4.5742324   -0.5019129 
C    -0.1777388   -3.3924082    0.0460155 
C     2.3590589   -1.9296139    0.6072592 
C     3.0082237   -3.1541028    0.8485642 
C     4.3180194   -3.1728249    1.3486624 
C     4.9973937   -1.9759077    1.6134281 
C     4.3462725   -0.7505812    1.4110900 
C     3.0328976   -0.7284440    0.9262196 
C     1.0351786   -1.5679277   -1.9234037 
C     1.8711839   -0.4592132   -2.1664935 
C     2.2045778   -0.0440720   -3.4607752 
C     0.4999895   -2.2905095   -3.0293720 
C     1.1306719   -2.0686743   -4.2732107 
C     1.9554930   -0.9620334   -4.4989952 
C    -0.8574253   -2.9884423   -3.0523253 
C    -1.9200753   -2.1994921   -3.9312098 
C    -1.6781626   -0.7049719   -3.8530340 
C    -1.6517919   -0.0666616   -2.6071444 
C    -0.8662608    1.0801951   -2.3698043 
C    -0.0704662    1.6122742   -3.4246177 
C    -0.3966639    1.1704765   -4.7253391 
C    -1.1698758    0.0261057   -4.9442693 
C     1.2700836    2.3197544   -3.2406947 
C     2.4859590    1.4220184   -3.7263715 
C    -0.1318156    3.2442640   -0.4905510 
C     0.8600467    3.4583593    0.4840886 
C     1.5071577    4.6985267    0.5771356 
C     1.1702402    5.7325230   -0.3063260 
C     0.1929222    5.5221295   -1.2933204 
C    -0.4527938    4.2845005   -1.3922767 
C    -2.7310043    1.8453386   -0.3208605 
C    -3.3917460    3.0695087   -0.5384502 
C    -4.7648726    3.1898727   -0.2792017 
C    -5.4976747    2.0938429    0.1989906 
C    -4.8492273    0.8695394    0.4211882 
C    -3.4767033    0.7496030    0.1668740 
H    -1.8934768   -2.5176816    1.0389732 
H    -3.1430325   -4.6731926    1.2042766 
H    -2.1350400   -6.7719392    0.2888593 
H     0.1015747   -6.6958998   -0.8260778 
H     1.3184485   -4.5429025   -1.0432826 
H     4.8052983   -4.1347804    1.5377008 
H     6.0231424   -1.9982038    1.9955836 
H     4.8560325    0.1908264    1.6414509 
H     2.5153390    0.2320626    0.8079610 
H     2.1452426    0.1895136   -1.3267692 
H     0.8202685   -2.6763722   -5.1316948 
H     2.2813836   -0.7348637   -5.5204026 
H    -1.2613938   -3.0706861   -2.0356050 
H    -0.7781712   -4.0181837   -3.4445090 
H    -2.9248829   -2.4833669   -3.5688855 
H    -1.8528979   -2.5253530   -4.9831036 
H    -2.1347284   -0.5616983   -1.7553638 
H     0.1197742    1.6268446   -5.5782802 
H    -1.2514881   -0.3798575   -5.9589755 
H     1.4302658    2.5580847   -2.1806209 
H     1.3047605    3.2793056   -3.7871149 
H     2.6570590    1.5720520   -4.8058849 
H     3.3917262    1.7794319   -3.2034436 
H     1.1246993    2.6435391    1.1667449 
H     2.2719958    4.8560938    1.3441512 
H     1.6752870    6.7013511   -0.2348800 
H    -0.0581375    6.3226671   -1.9969130 
H    -1.1723248    4.1119728   -2.1990995 
H    -2.8385474    3.9472418   -0.8787215 
H    -5.2613120    4.1515601   -0.4454021 
H    -6.5684386    2.1944068    0.4036547 
H    -5.4100380    0.0090201    0.8006099 
H    -2.9686510   -0.2027297    0.3684758 
H     2.4941668   -4.1015592    0.6762608 
