105
Energy =
C     0.3329339   -0.8592559    3.2194539 
C     0.3446491    0.5660822    3.2277637 
C    -0.8288839    1.3037369    2.9525007 
H     1.3017333    1.0840658    3.3692362 
Pd   -0.1307616   -0.0333821    1.1695037 
P    -0.8754444    1.5353053   -0.4678648 
P     0.4229239   -1.9446317   -0.1541436 
H    -0.6331768   -1.3477899    3.4200694 
H    -1.7779494    0.7570521    3.0486640 
C     3.7992323   -3.0564667    4.4931580 
C     3.9343345   -2.0445393    3.5280240 
C     2.8104655   -1.3402912    3.0866936 
C     1.5273802   -1.6404928    3.5965847 
C     1.4012633   -2.6790881    4.5454641 
C     2.5301194   -3.3707782    5.0008071 
H     4.6810630   -3.6054357    4.8388758 
H     4.9192913   -1.8146570    3.1095523 
H     2.9138456   -0.5701301    2.3130361 
H     0.4109331   -2.9272208    4.9438272 
H     2.4182576   -4.1614129    5.7500763 
C    -1.3203755    5.5715979    3.0993886 
C    -2.4283441    4.7275779    2.9359996 
C    -2.2500277    3.3412373    2.8838467 
C    -0.9609892    2.7665285    2.9847477 
C     0.1452950    3.6327907    3.1518592 
C    -0.0345564    5.0169048    3.2110265 
H    -1.4558595    6.6571005    3.1453042 
H    -3.4357717    5.1487372    2.8567579 
H    -3.1219837    2.6907959    2.7693289 
H     1.1556368    3.2238128    3.2405964 
H     0.8341814    5.6694899    3.3420611 
C    -2.3334815   -2.4423756    0.0018195 
C    -3.5028155   -3.2129407   -0.0626702 
C    -3.4226066   -4.5768387   -0.3772406 
C    -2.1698399   -5.1680569   -0.6109052 
C    -1.0012631   -4.3982355   -0.5496711 
C    -1.0739497   -3.0174558   -0.2628391 
C     1.7215708   -3.1018815    0.4486912 
C     1.4220308   -3.9924973    1.5024487 
C     2.3930000   -4.8848905    1.9698226 
C     3.6798953   -4.8849671    1.4105563 
C     3.9905938   -3.9887887    0.3785834 
C     3.0193048   -3.1003341   -0.1034107 
C     1.1060605   -1.4568405   -1.8063366 
C     1.8466156   -0.2612449   -1.7069724 
C     2.4150119    0.3756952   -2.8215142 
C     0.9656521   -2.0822788   -3.0770243 
C     1.7997776   -1.5921598   -4.1061589 
C     2.5026159   -0.3868454   -3.9991256 
C    -0.1630411   -3.0089008   -3.4928014 
C    -1.5482314   -2.2447401   -3.7801421 
C    -1.3754117   -0.7422227   -3.7535977 
C    -1.4447982   -0.0696888   -2.5285621 
C    -0.7391670    1.1255814   -2.2721697 
C     0.0280592    1.7177838   -3.3096635 
C    -0.1868880    1.1965467   -4.6095300 
C    -0.8506561   -0.0114130   -4.8380736 
C     1.2178775    2.6483575   -3.1372423 
C     2.5920410    1.8777036   -2.8107184 
C    -0.0076135    3.1272202   -0.1603864 
C     1.3430642    3.0525500    0.2451276 
C     2.1122325    4.2147763    0.3796708 
C     1.5277197    5.4689126    0.1496323 
C     0.1682054    5.5538359   -0.1867424 
C    -0.5993766    4.3913685   -0.3435987 
C    -2.6922285    1.8499256   -0.4028929 
C    -3.3196319    2.6485758   -1.3843146 
C    -4.7062567    2.8432008   -1.3548571 
C    -5.4873116    2.2197767   -0.3682859 
C    -4.8775677    1.3931948    0.5858732 
C    -3.4871036    1.2105631    0.5666569 
H    -2.3944042   -1.3807532    0.2686472 
H    -4.4724710   -2.7456489    0.1374258 
H    -4.3324509   -5.1838382   -0.4276522 
H    -2.1017419   -6.2366206   -0.8396505 
H    -0.0295912   -4.8730625   -0.7196179 
H     2.1459829   -5.5742068    2.7828811 
H     4.4384227   -5.5820088    1.7811636 
H     4.9920649   -3.9843916   -0.0641006 
H     3.2705402   -2.4174439   -0.9199655 
H     1.8485376    0.2623312   -0.7416550 
H     1.7771610   -2.1023383   -5.0761552 
H     3.0049245    0.0224274   -4.8829556 
H    -0.3606504   -3.7893216   -2.7470471 
H     0.1428526   -3.5220757   -4.4187614 
H    -2.2742658   -2.5526072   -3.0088767 
H    -1.9307356   -2.5887389   -4.7554621 
H    -1.9485112   -0.5686158   -1.6931183 
H     0.3132409    1.6896276   -5.4513322 
H    -0.8493046   -0.4440014   -5.8449972 
H     1.0508517    3.3984968   -2.3526509 
H     1.3590010    3.1997148   -4.0809690 
H     3.3465918    2.1878304   -3.5522181 
H     2.9445347    2.2153786   -1.8222853 
H     1.7909516    2.0736044    0.4541379 
H     3.1638680    4.1414862    0.6757060 
H     2.1243236    6.3807593    0.2558849 
H    -0.3012960    6.5324156   -0.3295105 
H    -1.6577166    4.4746948   -0.6035973 
H    -2.7254532    3.0960707   -2.1881366 
H    -5.1815632    3.4709459   -2.1156594 
H    -6.5723758    2.3655278   -0.3552713 
H    -5.4831725    0.8866999    1.3448088 
H    -3.0124914    0.5590736    1.3076275 
H     0.4228414   -3.9986258    1.9497293 
