105
Energy =
C    -2.5873374    1.3647032   -1.6734167 
C    -3.1726026    0.2950127   -0.9585023 
C    -3.2477662    0.3174445    0.4661457 
H    -3.4686673   -0.6136714   -1.4971592 
Pd   -1.1007403    0.3769892   -0.1878124 
P    -0.2633957   -0.3794746    1.8866418 
P     0.8469708    0.6341870   -1.5355129 
H    -2.4591291    2.3156651   -1.1335412 
H    -3.3097360    1.3103049    0.9306944 
C    -2.2468651    1.7871422   -5.9385606 
C    -1.8148451    2.8067237   -5.0779705 
C    -1.9362991    2.6546504   -3.6925816 
C    -2.4836726    1.4750769   -3.1357043 
C    -2.9342414    0.4650408   -4.0191336 
C    -2.8145933    0.6192056   -5.4022597 
H    -2.1539690    1.9042064   -7.0231557 
H    -1.3819488    3.7260621   -5.4849599 
H    -1.5982180    3.4557594   -3.0270747 
H    -3.3905640   -0.4485554   -3.6254758 
H    -3.1683373   -0.1739970   -6.0686700 
C    -4.8588438   -2.8282062    2.9205506 
C    -4.7557756   -1.5187121    3.4116317 
C    -4.2210887   -0.5064795    2.6058574 
C    -3.7793429   -0.7821109    1.2915019 
C    -3.8696659   -2.1124672    0.8190028 
C    -4.4101585   -3.1204744    1.6219071 
H    -5.2800900   -3.6207363    3.5474915 
H    -5.0991602   -1.2814159    4.4238446 
H    -4.1505615    0.5148306    2.9937149 
H    -3.5029067   -2.3652507   -0.1811911 
H    -4.4718462   -4.1435520    1.2380419 
C    -1.6133173    1.7529085    3.1674215 
C    -1.9947249    2.5326708    4.2691985 
C    -1.6179863    2.1484848    5.5634166 
C    -0.8289074    1.0019168    5.7495310 
C    -0.4344613    0.2311366    4.6490785 
C    -0.8580000    0.5795778    3.3473858 
C    -0.7556979   -2.1361969    2.1096135 
C    -0.6493908   -2.9766352    0.9777716 
C    -0.9603045   -4.3381051    1.0669799 
C    -1.4201430   -4.8725463    2.2801872 
C    -1.5909184   -4.0321108    3.3893702 
C    -1.2633227   -2.6713117    3.3093693 
C     1.5491554   -0.1190846    2.1765926 
C     1.8908838    1.1996772    1.8112227 
C     3.2084328    1.6716118    1.8410769 
C     2.5570007   -1.0004477    2.6457471 
C     3.8002822   -0.4049388    2.9633971 
C     4.1350882    0.8913089    2.5607884 
C     2.5044900   -2.5153138    2.5658891 
C     3.0417807   -3.0879335    1.1588222 
C     3.3845140   -1.9825375    0.1834861 
C     2.3568147   -1.2971803   -0.4742730 
C     2.4847481    0.0405940   -0.9019977 
C     3.7180329    0.7180162   -0.7159943 
C     4.8201158   -0.0931917   -0.3548498 
C     4.6674345   -1.4049112    0.1042872 
C     3.8913731    2.2217267   -0.5991755 
C     3.6290945    2.7720166    0.8915345 
C     0.9676446    2.3787952   -2.0996740 
C     1.3939772    2.7629762   -3.3857496 
C     1.4411173    4.1202730   -3.7347694 
C     1.0596496    5.1051725   -2.8112218 
C     0.6125577    4.7295737   -1.5341576 
C     0.5583984    3.3743057   -1.1848007 
C     0.7434854   -0.4471413   -3.0247146 
C    -0.3862758   -1.2653347   -3.2035594 
C    -0.4590203   -2.1508245   -4.2883154 
C     0.5999709   -2.2254357   -5.2028179 
C     1.7438642   -1.4312304   -5.0172710 
C     1.8250170   -0.5575250   -3.9263334 
H    -1.8861626    2.0679171    2.1557823 
H    -2.5819081    3.4437233    4.1136204 
H    -1.9184714    2.7530148    6.4253405 
H    -0.5036250    0.7163034    6.7552295 
H     0.2291216   -0.6266477    4.8012049 
H    -0.8570561   -4.9778843    0.1843922 
H    -1.6687694   -5.9362662    2.3534028 
H    -1.9886784   -4.4340622    4.3266618 
H    -1.4214220   -2.0306908    4.1796906 
H     1.1173929    1.8302959    1.3530747 
H     4.5775986   -1.0353199    3.4112247 
H     5.1625514    1.2474362    2.6963237 
H     1.4855352   -2.8940745    2.7240483 
H     3.1346422   -2.9389425    3.3651935 
H     2.2557750   -3.7406011    0.7423560 
H     3.9257793   -3.7173378    1.3524302 
H     1.3683175   -1.7671998   -0.5329084 
H     5.8095977    0.3749783   -0.2937542 
H     5.5334542   -1.9338703    0.5179894 
H     3.2278192    2.7635991   -1.2861308 
H     4.9255126    2.4817327   -0.8783879 
H     4.5498551    3.2615129    1.2490398 
H     2.8456791    3.5467549    0.8316389 
H     1.6712409    2.0078215   -4.1254595 
H     1.7702500    4.4078506   -4.7386418 
H     1.0985797    6.1633620   -3.0893666 
H     0.2975888    5.4917150   -0.8139096 
H     0.1835062    3.0810011   -0.1966993 
H    -1.2035369   -1.2120885   -2.4756062 
H    -1.3446139   -2.7817591   -4.4176868 
H     0.5445022   -2.9145042   -6.0519313 
H     2.5840405   -1.5070488   -5.7152453 
H     2.7435324    0.0144102   -3.7560660 
H    -0.3346840   -2.5558387    0.0163131 
