105
Energy =
C     0.4766874   -0.7469795    3.2305722 
C     0.3576643    0.6733184    3.2064996 
C    -0.8847009    1.2934624    2.9438479 
H     1.2659086    1.2800586    3.3127230 
Pd   -0.1057436   -0.0180185    1.1743955 
P    -1.0196348    1.4394055   -0.4805333 
P     0.5886463   -1.9030676   -0.1203700 
H    -0.4357455   -1.3161711    3.4664140 
H    -1.7769275    0.6641547    3.0746605 
C     4.1592202   -2.5892550    4.4604356 
C     4.1773134   -1.5959654    3.4670924 
C     2.9834454   -1.0067290    3.0413063 
C     1.7463900   -1.4064821    3.5946795 
C     1.7392489   -2.4254603    4.5727003 
C     2.9373670   -3.0011167    5.0123803 
H     5.0956409   -3.0479460    4.7939785 
H     5.1262029   -1.2907971    3.0147398 
H     2.9965701   -0.2515158    2.2464037 
H     0.7860900   -2.7498773    5.0054028 
H     2.9168426   -3.7777354    5.7840281 
C    -1.7649199    5.5005326    3.0070385 
C    -2.7933208    4.5547411    2.8859531 
C    -2.4889007    3.1897894    2.8609750 
C    -1.1506734    2.7382811    2.9469794 
C    -0.1258973    3.7061520    3.0712304 
C    -0.4315145    5.0689404    3.1038260 
H    -1.9989514    6.5697894    3.0319851 
H    -3.8366488    4.8795533    2.8186174 
H    -3.2991720    2.4595775    2.7792627 
H     0.9193800    3.3938708    3.1466587 
H     0.3756559    5.8013969    3.2024799 
C    -2.1102238   -2.6384867    0.1006687 
C    -3.2068793   -3.5114204    0.0767279 
C    -3.0107113   -4.8699648   -0.2087710 
C    -1.7145246   -5.3528687   -0.4541624 
C    -0.6186211   -4.4808319   -0.4335657 
C    -0.8092983   -3.1055668   -0.1761357 
C     1.9944854   -2.9298405    0.4786408 
C     1.7956072   -3.8113562    1.5633441 
C     2.8483571   -4.6069701    2.0281461 
C     4.1166893   -4.5175568    1.4346457 
C     4.3266485   -3.6291692    0.3710996 
C     3.2735719   -2.8376270   -0.1080274 
C     1.1963845   -1.3942652   -1.7954234 
C     1.8300522   -0.1363472   -1.7354201 
C     2.3208125    0.5225993   -2.8737807 
C     1.0909122   -2.0588120   -3.0494792 
C     1.8615612   -1.5212481   -4.1041209 
C     2.4560682   -0.2561634   -4.0362190 
C     0.0423743   -3.0912690   -3.4235930 
C    -1.4104769   -2.4597510   -3.6985401 
C    -1.3714852   -0.9475805   -3.7072742 
C    -1.4800311   -0.2556644   -2.4959319 
C    -0.8787113    1.0026796   -2.2781580 
C    -0.1843385    1.6361984   -3.3422814 
C    -0.3741364    1.0684167   -4.6265019 
C    -0.9315213   -0.1985397   -4.8167486 
C     0.9206401    2.6724255   -3.2128481 
C     2.3638162    2.0342308   -2.8981552 
C    -0.2927230    3.1092410   -0.2244936 
C     1.0662858    3.1650059    0.1554092 
C     1.7303157    4.3941221    0.2493206 
C     1.0317159    5.5852995    0.0034570 
C    -0.3357038    5.5405715   -0.3076366 
C    -0.9986709    4.3108437   -0.4235345 
C    -2.8555624    1.5917380   -0.3852363 
C    -3.5705066    2.3061314   -1.3716812 
C    -4.9682049    2.3769462   -1.3175418 
C    -5.6713048    1.7119207   -0.3000040 
C    -4.9718734    0.9679627    0.6606148 
C    -3.5712484    0.9092937    0.6160606 
H    -2.2612989   -1.5803435    0.3444305 
H    -4.2107305   -3.1276120    0.2855391 
H    -3.8633585   -5.5565888   -0.2271186 
H    -1.5552344   -6.4164019   -0.6598882 
H     0.3885207   -4.8710321   -0.6122045 
H     2.6795344   -5.2904338    2.8658005 
H     4.9390836   -5.1392382    1.8030867 
H     5.3130552   -3.5554121   -0.0984460 
H     3.4470075   -2.1602392   -0.9490219 
H     1.8026226    0.4068738   -0.7813991 
H     1.8691542   -2.0542138   -5.0620239 
H     2.9048908    0.1755700   -4.9379551 
H    -0.0711572   -3.8694733   -2.6580965 
H     0.3760518   -3.5955986   -4.3448213 
H    -2.0920135   -2.8131563   -2.9064323 
H    -1.7787247   -2.8583994   -4.6584272 
H    -1.9243279   -0.7776805   -1.6410181 
H     0.0656398    1.5845035   -5.4879692 
H    -0.9078776   -0.6525380   -5.8139241 
H     0.7015100    3.4221375   -2.4408132 
H     0.9950184    3.2128666   -4.1704196 
H     3.0740328    2.3929778   -3.6611983 
H     2.7030227    2.4242437   -1.9244227 
H     1.6040160    2.2350868    0.3759934 
H     2.7894253    4.4218453    0.5258224 
H     1.5458665    6.5490227    0.0778060 
H    -0.8936148    6.4696781   -0.4625551 
H    -2.0647403    4.2933917   -0.6642915 
H    -3.0341325    2.7845822   -2.1980894 
H    -5.5122695    2.9397304   -2.0830897 
H    -6.7646379    1.7606065   -0.2675151 
H    -5.5150992    0.4294458    1.4443136 
H    -3.0258797    0.3220867    1.3619865 
H     0.8115809   -3.8865221    2.0371297 
