105
Energy =
C    -2.5254784    1.2263172   -1.6855492 
C    -3.1468834    0.1808244   -0.9516580 
C    -3.2714225    0.2402964    0.4573010 
H    -3.4340381   -0.7385677   -1.4752258 
Pd   -1.0619724    0.2791944   -0.2052969 
P    -0.1776889   -0.5268562    1.8445377 
P     0.8393955    0.7661255   -1.5144303 
H    -2.5061587    2.2161025   -1.2076313 
H    -3.1732065    1.2294845    0.9278583 
C    -2.1142778    1.3974576   -5.9654075 
C    -1.8781773    2.5324059   -5.1766596 
C    -2.0092819    2.4588070   -3.7852319 
C    -2.3698563    1.2481325   -3.1496930 
C    -2.5960137    0.1104755   -3.9599645 
C    -2.4758413    0.1875439   -5.3495971 
H    -2.0186585    1.4525794   -7.0547011 
H    -1.6006580    3.4820446   -5.6456210 
H    -1.8381908    3.3537746   -3.1794453 
H    -2.8635152   -0.8470968   -3.5038916 
H    -2.6576573   -0.7040586   -5.9575820 
C    -5.1262349   -2.6752330    3.0162826 
C    -4.6459041   -1.4634680    3.5342042 
C    -4.0619356   -0.5184197    2.6838043 
C    -3.9222797   -0.7745232    1.3001170 
C    -4.4306989   -1.9923647    0.7894345 
C    -5.0283551   -2.9283384    1.6377732 
H    -5.5872581   -3.4144370    3.6792498 
H    -4.7326505   -1.2485184    4.6042751 
H    -3.7058323    0.4330072    3.0902920 
H    -4.3602647   -2.2146271   -0.2805376 
H    -5.4201989   -3.8632053    1.2237521 
C    -1.1489382    1.9451613    2.7433271 
C    -1.7206116    2.8548207    3.6425037 
C    -2.0647216    2.4367923    4.9370006 
C    -1.8306698    1.1086318    5.3219086 
C    -1.2544797    0.1983306    4.4238408 
C    -0.9036007    0.6071664    3.1229462 
C    -0.6482923   -2.2280115    2.3339449 
C    -1.4120375   -2.9954646    1.4355792 
C    -1.7716742   -4.3121746    1.7554879 
C    -1.3666870   -4.8725592    2.9742015 
C    -0.5895306   -4.1190885    3.8697005 
C    -0.2255965   -2.8053819    3.5529958 
C     1.6352506   -0.3541591    2.1775958 
C     2.0632036    0.9857275    2.0772254 
C     3.4134638    1.3438033    2.1720077 
C     2.6001253   -1.3823518    2.3800843 
C     3.8712664   -0.9558190    2.8223621 
C     4.2841689    0.3753377    2.7082689 
C     2.4848340   -2.8092939    1.8490645 
C     3.4917606   -3.0792374    0.6518450 
C     3.6725834   -1.8268404   -0.1836866 
C     2.5490314   -1.1865850   -0.7186411 
C     2.5115023    0.2041804   -0.9454217 
C     3.6510617    0.9933671   -0.6134208 
C     4.8566473    0.2837129   -0.4204625 
C     4.8762276   -1.0962153   -0.1934909 
C     3.6097685    2.4399821   -0.1276733 
C     3.9273473    2.5584288    1.4245281 
C     1.0371539    2.5151601   -2.0278166 
C     2.0475302    2.9199816   -2.9279126 
C     2.1987851    4.2739336   -3.2528687 
C     1.3643083    5.2399781   -2.6680202 
C     0.3814924    4.8500915   -1.7465393 
C     0.2194087    3.4941981   -1.4298571 
C     0.5964710   -0.2525400   -3.0443572 
C     0.9185304    0.1766142   -4.3447675 
C     0.7528549   -0.6884515   -5.4357549 
C     0.2667941   -1.9893537   -5.2468779 
C    -0.0924233   -2.4143369   -3.9597068 
C     0.0574026   -1.5478118   -2.8700838 
H    -0.9064792    2.2703502    1.7229771 
H    -1.9044808    3.8877603    3.3291550 
H    -2.5190836    3.1420244    5.6403714 
H    -2.1052255    0.7719960    6.3270007 
H    -1.1137532   -0.8380330    4.7377957 
H    -2.3722568   -4.8973174    1.0520275 
H    -1.6469459   -5.9008216    3.2250829 
H    -0.2558586   -4.5617646    4.8139373 
H     0.4242131   -2.2443247    4.2324534 
H     1.3401843    1.7493811    1.7645664 
H     4.6154095   -1.7158329    3.0889262 
H     5.3334065    0.6292171    2.8974614 
H     1.4665554   -2.9950506    1.4814473 
H     2.6742991   -3.5572754    2.6397770 
H     3.0895269   -3.9243227    0.0638930 
H     4.4704062   -3.3994951    1.0478251 
H     1.6220959   -1.7628156   -0.8187416 
H     5.7793215    0.8549953   -0.2627338 
H     5.8097231   -1.5750621    0.1232680 
H     2.6154797    2.8712996   -0.2980421 
H     4.3273274    3.0741406   -0.6784981 
H     5.0160371    2.6480166    1.5787719 
H     3.4715943    3.4988343    1.7842260 
H     2.7429857    2.1839179   -3.3429445 
H     2.9819400    4.5782755   -3.9549187 
H     1.4912688    6.2979493   -2.9196235 
H    -0.2578473    5.6016543   -1.2719636 
H    -0.5382096    3.1871062   -0.7007182 
H     1.2742450    1.1928393   -4.5249599 
H     1.0009511   -0.3350983   -6.4417778 
H     0.1487634   -2.6624207   -6.1022831 
H    -0.5013136   -3.4180229   -3.8030643 
H    -0.2630414   -1.8726142   -1.8719382 
H    -1.7197551   -2.5540691    0.4814267 
