105
Energy =
C    -0.3977083   -1.1618622    3.1369810 
C    -0.2551410    0.2339178    3.3080930 
C    -1.2489160    1.1382114    2.8283569 
H     0.6830782    0.6332200    3.7125706 
Pd   -0.3764828   -0.0208495    1.1137932 
P    -1.0608469    1.5425163   -0.5191196 
P     0.7750346   -1.6908783   -0.1357848 
H    -1.4032928   -1.5349093    2.8883990 
H    -2.2753866    0.7504322    2.7878234 
C     2.2553845   -4.2511451    4.5165243 
C     1.0575588   -4.5715193    3.8613488 
C     0.2036638   -3.5541917    3.4220414 
C     0.5332686   -2.1926655    3.6188075 
C     1.7355671   -1.8872992    4.3005313 
C     2.5857468   -2.9041736    4.7412708 
H     2.9245665   -5.0455385    4.8626384 
H     0.7839109   -5.6177926    3.6918996 
H    -0.7308792   -3.8122039    2.9131066 
H     2.0086611   -0.8458323    4.4975571 
H     3.5111492   -2.6473826    5.2667679 
C    -1.0477300    5.4275224    3.1043229 
C    -2.2781660    4.7786059    2.9266076 
C    -2.3284358    3.3829897    2.8285359 
C    -1.1494173    2.6067763    2.9074006 
C     0.0859973    3.2779243    3.0642560 
C     0.1339279    4.6706189    3.1691933 
H    -1.0062300    6.5185782    3.1851657 
H    -3.2044028    5.3598088    2.8709538 
H    -3.2933805    2.8828681    2.6975640 
H     1.0201759    2.7076385    3.0923048 
H     1.0994535    5.1714079    3.2909237 
C     0.6384544   -4.5339128    0.2516855 
C    -0.0733195   -5.7243394    0.4580427 
C    -1.4741283   -5.7101543    0.5361721 
C    -2.1679724   -4.4945522    0.4224461 
C    -1.4593702   -3.3030206    0.2226011 
C    -0.0508796   -3.3133222    0.1151523 
C     2.5190217   -1.8412388    0.4418139 
C     3.4387513   -2.6839207   -0.2206731 
C     4.7721457   -2.7386165    0.2023178 
C     5.2090851   -1.9332815    1.2672441 
C     4.3108467   -1.0649186    1.9015195 
C     2.9715034   -1.0190980    1.4891617 
C     1.1247835   -1.4094198   -1.9341205 
C     1.7521428   -0.1562572   -2.0917622 
C     2.0179694    0.4039943   -3.3464096 
C     0.7934328   -2.1737281   -3.0832276 
C     1.3646700   -1.7362937   -4.3019380 
C     1.9462779   -0.4731949   -4.4469965 
C    -0.3074742   -3.2161022   -3.1636703 
C    -1.7581573   -2.5786131   -3.4515175 
C    -1.7146968   -1.0677143   -3.5223643 
C    -1.6511394   -0.3223073   -2.3392231 
C    -1.0426924    0.9485132   -2.2751914 
C    -0.5162764    1.5343306   -3.4551517 
C    -0.8773586    0.9075286   -4.6709062 
C    -1.4463861   -0.3686340   -4.7160608 
C     0.5942032    2.5682056   -3.5014532 
C     2.0646569    1.9091002   -3.4987471 
C    -0.0831852    3.0830626   -0.2976761 
C    -0.6289561    4.3808553   -0.3344048 
C     0.2025954    5.4983178   -0.1755117 
C     1.5811667    5.3381761    0.0233523 
C     2.1260813    4.0479649    0.1092069 
C     1.2966431    2.9296531   -0.0307479 
C    -2.8534605    1.9782799   -0.4548621 
C    -3.7234005    1.2805482    0.4031044 
C    -5.1005464    1.5464509    0.3942390 
C    -5.6223863    2.5104376   -0.4792032 
C    -4.7680607    3.1823235   -1.3683061 
C    -3.3952257    2.9065792   -1.3713392 
H     1.7304666   -4.5592597    0.2179909 
H     0.4725735   -6.6671508    0.5670465 
H    -2.0245675   -6.6426756    0.6976859 
H    -3.2600271   -4.4738324    0.4984361 
H    -2.0005749   -2.3510086    0.1614441 
H     5.4780029   -3.3985782   -0.3125243 
H     6.2549543   -1.9723270    1.5889732 
H     4.6508007   -0.4213157    2.7195987 
H     2.2667328   -0.3318602    1.9702463 
H     1.9067295    0.4611150   -1.1992894 
H     1.2115135   -2.3521377   -5.1959447 
H     2.2308053   -0.1240763   -5.4460713 
H    -0.3718545   -3.8133460   -2.2444202 
H    -0.0755464   -3.9137662   -3.9850908 
H    -2.4357816   -2.9051549   -2.6441415 
H    -2.1426210   -2.9998800   -4.3948364 
H    -1.9570970   -0.8011515   -1.3996232 
H    -0.5643601    1.3788848   -5.6100236 
H    -1.5637499   -0.8707256   -5.6830120 
H     0.5306679    3.2692031   -2.6580323 
H     0.4927347    3.1627971   -4.4243275 
H     2.5726254    2.1847968   -4.4373534 
H     2.6326151    2.3637106   -2.6693089 
H    -1.7027923    4.5277189   -0.4690333 
H    -0.2355946    6.5011510   -0.2013388 
H     2.2255970    6.2159714    0.1366823 
H     3.1955132    3.9106729    0.2999775 
H     1.7195793    1.9253565    0.0827218 
H    -3.3212364    0.5093826    1.0670233 
H    -5.7653769    0.9947289    1.0670442 
H    -6.6964274    2.7227432   -0.4848949 
H    -5.1753188    3.9118713   -2.0759463 
H    -2.7488197    3.3936006   -2.1090401 
H     3.1197463   -3.2719326   -1.0880476 
