105
Energy =
C    -2.5832748    1.3712659   -1.6739823 
C    -3.1710919    0.3038821   -0.9577969 
C    -3.2452245    0.3275207    0.4668745 
H    -3.4704277   -0.6042400   -1.4955859 
Pd   -1.0985603    0.3791495   -0.1885976 
P    -0.2644125   -0.3792811    1.8863353 
P     0.8503733    0.6306334   -1.5357915 
H    -2.4508130    2.3220561   -1.1348383 
H    -3.3030800    1.3208050    0.9310154 
C    -2.2467735    1.7897787   -5.9398259 
C    -1.8044406    2.8058551   -5.0803081 
C    -1.9245167    2.6551816   -3.6946398 
C    -2.4807395    1.4803845   -3.1364552 
C    -2.9413357    0.4738633   -4.0187326 
C    -2.8232247    0.6267568   -5.4021486 
H    -2.1551464    1.9059045   -7.0246299 
H    -1.3648812    3.7215505   -5.4883898 
H    -1.5786369    3.4536581   -3.0299999 
H    -3.4044487   -0.4358445   -3.6239132 
H    -3.1851422   -0.1634756   -6.0677078 
C    -4.8678562   -2.8097284    2.9244948 
C    -4.7572861   -1.5007048    3.4152080 
C    -4.2187406   -0.4913340    2.6084055 
C    -3.7805269   -0.7694108    1.2933655 
C    -3.8781504   -2.0994176    0.8213299 
C    -4.4224788   -3.1045353    1.6252822 
H    -5.2925338   -3.5999149    3.5520824 
H    -5.0977901   -1.2615130    4.4279507 
H    -4.1423775    0.5296723    2.9959745 
H    -3.5142760   -2.3543156   -0.1793744 
H    -4.4898544   -4.1273740    1.2417262 
C    -0.4382066    0.2339622    4.6484442 
C    -0.8304327    1.0082434    5.7472505 
C    -1.6115755    2.1597499    5.5582041 
C    -1.9824154    2.5453721    4.2626963 
C    -1.6033569    1.7621599    3.1625783 
C    -0.8563055    0.5839261    3.3454227 
C    -0.7634932   -2.1340104    2.1101375 
C    -1.2739811   -2.6665917    3.3098126 
C    -1.6063591   -4.0261940    3.3904361 
C    -1.4374104   -4.8679886    2.2820064 
C    -0.9751198   -4.3358411    1.0687240 
C    -0.6596057   -2.9754654    0.9788275 
C     1.5488802   -0.1256019    2.1773998 
C     1.8958121    1.1917568    1.8119264 
C     3.2151251    1.6587281    1.8422385 
C     2.5531632   -1.0107299    2.6471581 
C     3.7986809   -0.4199730    2.9649120 
C     4.1385293    0.8750205    2.5624137 
C     2.4949073   -2.5253823    2.5672654 
C     3.0288947   -3.0999926    1.1597327 
C     3.3766549   -1.9958348    0.1847750 
C     2.3520951   -1.3064543   -0.4737077 
C     2.4855018    0.0308422   -0.9013345 
C     3.7213860    0.7033337   -0.7147553 
C     4.8199839   -0.1120941   -0.3525210 
C     4.6618583   -1.4231365    0.1066678 
C     3.9004317    2.2063719   -0.5978867 
C     3.6402116    2.7575635    0.8928238 
C     0.9771617    2.3754371   -2.0982310 
C     0.5708861    3.3717261   -1.1828826 
C     0.6291362    4.7269872   -1.5316024 
C     1.0772257    5.1018578   -2.8085464 
C     1.4557296    4.1162610   -3.7325825 
C     1.4045373    2.7589439   -3.3841870 
C     0.7446534   -0.4477081   -3.0269072 
C     1.8278954   -0.5618317   -3.9260703 
C     1.7445827   -1.4321800   -5.0195045 
C     0.5964985   -2.2190957   -5.2102310 
C    -0.4645337   -2.1406255   -4.2984236 
C    -0.3894015   -1.2587528   -3.2108833 
H     0.2194306   -0.6279376    4.8029900 
H    -0.5093773    0.7215144    6.7539921 
H    -1.9103120    2.7669338    6.4188717 
H    -2.5633039    3.4600741    4.1049132 
H    -1.8716270    2.0779862    2.1499242 
H    -2.0064838   -4.4260671    4.3276124 
H    -1.6893112   -5.9308959    2.3558358 
H    -0.8735498   -4.9765373    0.1866050 
H    -0.3431167   -2.5563221    0.0172316 
H     1.1248399    1.8253146    1.3535973 
H     4.5735216   -1.0533634    3.4127905 
H     5.1672293    1.2273763    2.6984367 
H     1.4746829   -2.9004479    2.7261812 
H     3.1241615   -2.9512994    3.3660506 
H     2.2395829   -3.7485474    0.7431280 
H     3.9098109   -3.7338304    1.3529416 
H     1.3618793   -1.7727281   -0.5333779 
H     5.8111652    0.3523398   -0.2904013 
H     5.5254452   -1.9552987    0.5213517 
H     3.2388298    2.7506025   -1.2848638 
H     4.9355136    2.4626485   -0.8770823 
H     4.5628588    3.2433299    1.2505578 
H     2.8599083    3.5354253    0.8328142 
H     0.1949466    3.0790770   -0.1949868 
H     0.3166246    5.4897705   -0.8109613 
H     1.1191623    6.1600568   -3.0862201 
H     1.7857435    4.4033376   -4.7363140 
H     1.6793669    2.0032204   -4.1242467 
H     2.7490744    0.0046274   -3.7518842 
H     2.5861163   -1.5110329   -5.7155089 
H     0.5392263   -2.9055478   -6.0613443 
H    -1.3536784   -2.7656083   -4.4321930 
H    -1.2081999   -1.2028712   -2.4849217 
H    -1.4307176   -2.0248875    4.1795572 
