105
Energy =
C     0.0599574   -1.0728429    3.0581616 
C    -0.1617200    0.3237308    3.2043492 
C    -1.3705259    0.9360094    2.8028237 
H     0.6576958    0.9520291    3.5774113 
Pd   -0.2539987   -0.0574879    1.0425063 
P    -1.0244871    1.5020854   -0.6126012 
P     0.7842035   -1.8187144   -0.2143752 
H    -0.8260275   -1.7239255    3.0183525 
H    -2.2535781    0.2883898    2.6943322 
C     3.5696018   -2.8185714    4.8090533 
C     2.3282069   -3.4636813    4.9092513 
C     1.2004437   -2.9166743    4.2847135 
C     1.2911087   -1.7002601    3.5718054 
C     2.5539017   -1.0744925    3.4575425 
C     3.6807559   -1.6285079    4.0700852 
H     4.4528019   -3.2480652    5.2927993 
H     2.2372430   -4.3955726    5.4769244 
H     0.2297955   -3.4179274    4.3723514 
H     2.6505706   -0.1599253    2.8616518 
H     4.6538149   -1.1389547    3.9633389 
C    -2.3045248    5.0627793    3.5565630 
C    -0.9833081    4.6967439    3.2433875 
C    -0.6646869    3.3583258    2.9977142 
C    -1.6660370    2.3602740    3.0280391 
C    -2.9912825    2.7438517    3.3327414 
C    -3.3033213    4.0797856    3.6134581 
H    -2.5509953    6.1103889    3.7578166 
H    -0.1985848    5.4583841    3.1917829 
H     0.3665709    3.0888305    2.7546309 
H    -3.7803147    1.9846388    3.3512675 
H    -4.3333081    4.3558313    3.8613475 
C    -1.7085392   -3.0058053    0.2481567 
C    -2.6401141   -4.0517864    0.3144036 
C    -2.2493013   -5.3558412   -0.0206321 
C    -0.9241171   -5.6112147   -0.4102032 
C     0.0065930   -4.5668242   -0.4781181 
C    -0.3804954   -3.2459393   -0.1623380 
C     2.3775202   -2.5133591    0.4157995 
C     3.6051273   -1.9321350    0.0310764 
C     4.8156616   -2.4488678    0.5107794 
C     4.8214027   -3.5540936    1.3736736 
C     3.6062151   -4.1282070    1.7710770 
C     2.3915340   -3.6053568    1.3097638 
C     1.2628964   -1.3541699   -1.9461644 
C     1.7727208   -0.0388250   -1.9779661 
C     2.1266551    0.6156460   -3.1672845 
C     1.1198753   -2.0670203   -3.1689772 
C     1.7570069   -1.4986079   -4.2964462 
C     2.2470942   -0.1892842   -4.3136944 
C     0.1321512   -3.1882479   -3.4513778 
C    -1.3935960   -2.7032388   -3.5044564 
C    -1.4928817   -1.1971937   -3.6031967 
C    -1.4861868   -0.4379404   -2.4250717 
C    -1.0029372    0.8869178   -2.3621040 
C    -0.4987558    1.4912304   -3.5468485 
C    -0.7874191    0.8160402   -4.7567348 
C    -1.2689204   -0.4954533   -4.8015278 
C     0.5425843    2.5977258   -3.6283135 
C     2.0234856    2.1225365   -3.2345713 
C    -0.0256679    3.0374521   -0.4383479 
C    -0.4487636    4.2927233   -0.9270440 
C     0.3495245    5.4279955   -0.7401215 
C     1.5824960    5.3262790   -0.0745814 
C     2.0149046    4.0837116    0.4094837 
C     1.2105661    2.9487210    0.2336901 
C    -2.7878885    2.0555919   -0.4442476 
C    -3.8275359    1.2837308   -1.0112330 
C    -5.1639712    1.6777749   -0.8752905 
C    -5.4898223    2.8530476   -0.1809019 
C    -4.4672838    3.6198497    0.3898104 
C    -3.1269054    3.2214307    0.2737539 
H    -2.0097076   -1.9850465    0.5216711 
H    -3.6682060   -3.8466562    0.6297039 
H    -2.9726666   -6.1761338    0.0305142 
H    -0.6127221   -6.6303972   -0.6612449 
H     1.0393480   -4.7804518   -0.7717764 
H     5.7589948   -1.9922507    0.1935990 
H     5.7689723   -3.9648214    1.7369837 
H     3.5967735   -4.9821528    2.4550846 
H     1.4559447   -4.0585449    1.6458818 
H     1.7423498    0.5493364   -1.0522266 
H     1.7347646   -2.0616837   -5.2367825 
H     2.5898269    0.2447465   -5.2597604 
H     0.1949025   -4.0100809   -2.7264209 
H     0.3895811   -3.6142025   -4.4346066 
H    -1.9008752   -3.0525370   -2.5896547 
H    -1.8771802   -3.1994036   -4.3625896 
H    -1.7184805   -0.9502437   -1.4835812 
H    -0.4867578    1.2953558   -5.6956745 
H    -1.3313898   -1.0131923   -5.7653562 
H     0.2968159    3.4669474   -3.0051116 
H     0.5663662    2.9515732   -4.6717722 
H     2.7224712    2.5426616   -3.9770347 
H     2.2771384    2.5599860   -2.2550748 
H    -1.4019055    4.3828482   -1.4576541 
H     0.0097614    6.3967066   -1.1205999 
H     2.2035247    6.2169419    0.0666721 
H     2.9735828    3.9972039    0.9311514 
H     1.5319535    1.9793391    0.6381627 
H    -3.6003506    0.3828190   -1.5874253 
H    -5.9525885    1.0693126   -1.3301144 
H    -6.5343292    3.1681888   -0.0890595 
H    -4.7030924    4.5356742    0.9409451 
H    -2.3524660    3.8313993    0.7454461 
H     3.6247622   -1.0887094   -0.6651948 
