105
Energy =
C     0.2887803   -0.3391371    3.4007862 
C     1.0328544    0.7861222    3.0110398 
C     0.3945659    1.9586940    2.4798399 
H     2.1271408    0.7203084    3.0062142 
Pd   -0.0292249    0.2668207    1.1388938 
P    -1.4506680    1.4194712   -0.3571742 
P     0.5237990   -1.7114480   -0.1214780 
H    -0.8008086   -0.2144794    3.4976548 
H    -0.5933264    2.2263121    2.8759646 
C     1.7099167   -3.8857332    5.3417421 
C     2.6144510   -2.8546239    5.0367119 
C     2.1787546   -1.7089441    4.3674892 
C     0.8196596   -1.5642196    4.0008174 
C    -0.0776182   -2.6171725    4.3038003 
C     0.3630082   -3.7683904    4.9639861 
H     2.0553086   -4.7782254    5.8736798 
H     3.6664108   -2.9462573    5.3243750 
H     2.8966641   -0.9133746    4.1482277 
H    -1.1322480   -2.5183638    4.0218280 
H    -0.3455493   -4.5698542    5.1965820 
C     2.6567159    5.2541923    0.8581690 
C     3.2457816    3.9830231    0.9620437 
C     2.5132858    2.9037761    1.4670340 
C     1.1785790    3.0753296    1.9126021 
C     0.6058940    4.3646331    1.8126493 
C     1.3321918    5.4370521    1.2820024 
H     3.2302760    6.0955542    0.4560863 
H     4.2827001    3.8320333    0.6435024 
H     2.9861339    1.9165714    1.5112170 
H    -0.4181992    4.5260498    2.1588467 
H     0.8616363    6.4230280    1.2112914 
C    -0.1522254   -4.3825157   -0.8636760 
C    -1.0629905   -5.3951662   -1.1854176 
C    -2.4457048   -5.1430689   -1.1532723 
C    -2.9157516   -3.8741479   -0.7890546 
C    -2.0057024   -2.8584694   -0.4593445 
C    -0.6202499   -3.0977115   -0.5023547 
C     1.9448991   -2.5638221    0.7044668 
C     3.2702011   -2.1110534    0.5355275 
C     4.3309474   -2.7744904    1.1689635 
C     4.0862662   -3.8999938    1.9685575 
C     2.7691519   -4.3419802    2.1572912 
C     1.7019268   -3.6696634    1.5484396 
C     1.3026120   -1.0389833   -1.6695223 
C     1.8942410    0.2150316   -1.4015566 
C     2.4877330    1.0033587   -2.3954716 
C     1.3348636   -1.5409054   -3.0026742 
C     2.2248679   -0.8955636   -3.8890868 
C     2.7831450    0.3575599   -3.6094193 
C     0.2885863   -2.4577759   -3.6162483 
C    -0.7965733   -1.6580508   -4.4777610 
C    -0.9033579   -0.2085907   -4.0517758 
C    -1.3793800    0.1274758   -2.7761444 
C    -0.9758382    1.3141695   -2.1247714 
C    -0.0421206    2.1799674   -2.7614841 
C     0.1307064    1.9947822   -4.1482015 
C    -0.2793708    0.8191368   -4.7856586 
C     0.9806418    3.0286704   -2.0083279 
C     2.4595951    2.5133230   -2.2526569 
C    -1.9715834    3.1509909    0.0252531 
C    -2.6156830    3.3517825    1.2663950 
C    -3.0841238    4.6196506    1.6289423 
C    -2.9089096    5.7086362    0.7588637 
C    -2.2889419    5.5119107   -0.4822795 
C    -1.8304509    4.2384166   -0.8550879 
C    -3.1245900    0.6394730   -0.2512391 
C    -3.4740932   -0.0726122    0.9131913 
C    -4.7717767   -0.5806071    1.0739722 
C    -5.7278542   -0.3837283    0.0673805 
C    -5.3882918    0.3335382   -1.0917264 
C    -4.0976217    0.8545976   -1.2489343 
H     0.9226444   -4.5841068   -0.9081130 
H    -0.6925522   -6.3859247   -1.4684177 
H    -3.1526981   -5.9395594   -1.4078843 
H    -3.9905298   -3.6680475   -0.7527759 
H    -2.3765219   -1.8742583   -0.1656944 
H     5.3558300   -2.4205194    1.0152940 
H     4.9182303   -4.4288767    2.4449228 
H     2.5639247   -5.2113129    2.7893459 
H     0.6812882   -4.0261578    1.7143400 
H     1.7288995    0.6634797   -0.4074532 
H     2.3423067   -1.3090448   -4.8980307 
H     3.3213220    0.8936003   -4.3997116 
H    -0.2433983   -3.0180815   -2.8412109 
H     0.7659531   -3.1990430   -4.2804452 
H    -1.7588061   -2.1883685   -4.3681192 
H    -0.5173018   -1.7042818   -5.5437146 
H    -1.9658330   -0.6141171   -2.2218506 
H     0.7564998    2.7040526   -4.7025167 
H     0.0179113    0.6421408   -5.8253896 
H     0.7731360    2.9971985   -0.9233480 
H     0.9404605    4.0934997   -2.2994312 
H     2.8662232    2.9738033   -3.1690873 
H     3.0732697    2.8715717   -1.4092637 
H    -2.7716534    2.5057519    1.9454868 
H    -3.5878917    4.7581521    2.5911333 
H    -3.2698346    6.7024629    1.0427580 
H    -2.1702735    6.3504058   -1.1764296 
H    -1.3892878    4.0946763   -1.8441401 
H    -2.7155489   -0.2382715    1.6891680 
H    -5.0316653   -1.1343204    1.9820502 
H    -6.7403455   -0.7830683    0.1868631 
H    -6.1364372    0.4963629   -1.8744805 
H    -3.8448815    1.4263715   -2.1476738 
H     3.4834966   -1.2584885   -0.1167017 
