105
Energy =
C    -2.6032501    0.4985656   -2.0482569 
C    -3.0918368   -0.4072373   -1.0615482 
C    -3.3268170    0.0211604    0.2641977 
H    -3.2050506   -1.4657866   -1.3279436 
Pd   -1.0914007    0.2067205   -0.3988348 
P    -0.2657767   -0.3240814    1.7773878 
P     0.8848385    0.8940822   -1.5504099 
H    -2.8180467    1.5665921   -1.8887176 
H    -3.4167856    1.1069285    0.4129822 
C    -2.3271760   -0.7237116   -6.1589759 
C    -1.7528501   -1.5229963   -5.1564838 
C    -1.8147188   -1.1236497   -3.8183927 
C    -2.4449668    0.0883075   -3.4576142 
C    -2.9943196    0.8960945   -4.4776971 
C    -2.9488388    0.4856870   -5.8154405 
H    -2.2792932   -1.0392778   -7.2061878 
H    -1.2433276   -2.4543565   -5.4231705 
H    -1.3414486   -1.7346291   -3.0405015 
H    -3.4802607    1.8419826   -4.2126994 
H    -3.3947060    1.1147731   -6.5928907 
C    -5.0039915   -2.2704868    3.4911757 
C    -4.7801843   -0.8931107    3.6307870 
C    -4.2288624   -0.1632137    2.5726491 
C    -3.8794872   -0.7932147    1.3547412 
C    -4.1159452   -2.1827967    1.2298210 
C    -4.6734864   -2.9095679    2.2845925 
H    -5.4389716   -2.8449875    4.3154701 
H    -5.0427231   -0.3830919    4.5632484 
H    -4.0707280    0.9130588    2.6868350 
H    -3.8666959   -2.7018314    0.3000863 
H    -4.8497668   -3.9833039    2.1670946 
C    -1.6180444    1.9694173    2.7271309 
C    -1.9711754    2.9301100    3.6860072 
C    -1.4947202    2.8148254    4.9994837 
C    -0.6458587    1.7507315    5.3446060 
C    -0.2801336    0.7997986    4.3836194 
C    -0.7876579    0.8857474    3.0685553 
C    -0.9226922   -1.9774329    2.2428302 
C    -1.0096899   -2.9441876    1.2171760 
C    -1.3784608   -4.2628317    1.5099775 
C    -1.7043144   -4.6203183    2.8265572 
C    -1.6862399   -3.6482802    3.8382481 
C    -1.2968666   -2.3322075    3.5527943 
C     1.5597636   -0.2994970    2.1074644 
C     2.0673481    0.9813644    1.8013207 
C     3.4371633    1.2646067    1.7660535 
C     2.4600359   -1.3402041    2.4574767 
C     3.7913459   -0.9381060    2.7284576 
C     4.2858415    0.3207831    2.3779593 
C     2.2152679   -2.8342959    2.3183291 
C     2.4429506   -3.3848324    0.8236173 
C     2.9317864   -2.3003393   -0.1102795 
C     2.0143176   -1.3801461   -0.6416752 
C     2.3701795   -0.0601352   -0.9863280 
C     3.7246337    0.3526936   -0.8444020 
C     4.6658594   -0.6740691   -0.6097639 
C     4.2922305   -1.9700648   -0.2371652 
C     4.2038097    1.7797243   -0.6470703 
C     3.9427607    2.3448636    0.8357677 
C     1.0593511    2.7195153   -1.3466233 
C     0.3781466    3.3464606   -0.2836167 
C     0.4710570    4.7316074   -0.0885229 
C     1.2365451    5.5099507   -0.9681735 
C     1.8943555    4.9003404   -2.0494609 
C     1.8041576    3.5161350   -2.2436744 
C     0.9809379    0.6714710   -3.3751901 
C     1.7576743   -0.3553646   -3.9504476 
C     1.8090222   -0.5028082   -5.3435675 
C     1.0911761    0.3685806   -6.1741046 
C     0.3102587    1.3871829   -5.6069476 
C     0.2441023    1.5325910   -4.2170709 
H    -1.9847458    2.0633257    1.6999175 
H    -2.6163578    3.7691184    3.4046946 
H    -1.7696789    3.5622489    5.7508376 
H    -0.2526135    1.6705737    6.3632819 
H     0.4234552    0.0032879    4.6482959 
H    -1.4230895   -5.0072839    0.7082585 
H    -1.9948201   -5.6496926    3.0603374 
H    -1.9767589   -3.9143434    4.8596704 
H    -1.2901228   -1.5863470    4.3517780 
H     1.3724556    1.7452418    1.4351412 
H     4.4936744   -1.6956197    3.0956330 
H     5.3597999    0.5205716    2.4656081 
H     1.2059523   -3.1240141    2.6396761 
H     2.9236646   -3.3586086    2.9800975 
H     1.4865280   -3.7986689    0.4640269 
H     3.1647309   -4.2169147    0.8687549 
H     0.9483315   -1.6436796   -0.6525856 
H     5.7276997   -0.4037594   -0.5765347 
H     5.0626720   -2.6791060    0.0864104 
H     3.7430472    2.4784103   -1.3569253 
H     5.2893882    1.8025709   -0.8352260 
H     4.8847797    2.7840601    1.2040183 
H     3.2002210    3.1574928    0.7647631 
H    -0.2376348    2.7413676    0.3919180 
H    -0.0588899    5.1985292    0.7480167 
H     1.3109036    6.5924818   -0.8218551 
H     2.4795011    5.5071170   -2.7481948 
H     2.3091840    3.0543421   -3.0982214 
H     2.3352141   -1.0322443   -3.3143992 
H     2.4225947   -1.2983117   -5.7790305 
H     1.1377813    0.2553723   -7.2620404 
H    -0.2610909    2.0648364   -6.2485338 
H    -0.3718437    2.3282352   -3.7857172 
H    -0.7832824   -2.6565906    0.1834763 
