103
Energy =
C     0.5571034    1.5922803   -2.6488787 
C     0.0452340    2.2463004   -1.5257266 
C     0.8511241    2.4546559   -0.3504222 
H    -0.9801255    2.6342365   -1.5437950 
Pd    0.3759855    0.3194108   -0.4350179 
P     1.6506974    0.0696640    1.6350056 
P    -1.0581275   -1.5437477   -1.2616091 
H     1.6252320    1.3312610   -2.6327205 
H     1.9346464    2.5318746   -0.5147125 
C    -1.2827572    1.0771883   -6.4855493 
C    -2.0352797    1.6172601   -5.4266513 
C    -1.4534266    1.7991458   -4.1707402 
C    -0.1028562    1.4309625   -3.9399156 
C     0.6464453    0.9098550   -5.0242388 
C     0.0630059    0.7342225   -6.2829620 
H    -1.7432078    0.9372834   -7.4688236 
H    -3.0797005    1.9028291   -5.5879470 
H    -2.0512845    2.2263917   -3.3614223 
H     1.6980725    0.6449080   -4.8704126 
H     0.6585316    0.3325418   -7.1087048 
C    -0.6558603    4.6530033    3.0361196 
C    -1.5214415    3.8432260    2.2809914 
C    -1.0403283    3.1462538    1.1687708 
C     0.3209627    3.2333832    0.7891551 
C     1.1722000    4.0750243    1.5423841 
C     0.6896463    4.7746160    2.6559697 
H    -1.0319291    5.1943839    3.9100376 
H    -2.5740486    3.7486631    2.5670197 
H    -1.7182751    2.4959939    0.6055261 
H     2.2198564    4.1912373    1.2425906 
H     1.3646753    5.4213255    3.2257939 
C    -0.9459434   -1.7416748   -3.1058128 
C    -2.8409021   -1.1085559   -0.9404449 
C     0.6626746    0.7074234    3.0742394 
C     3.1936611    1.1115351    1.5699550 
C    -1.9456482   -2.7358049   -3.7890045 
C     0.4714939   -2.1976232   -3.5450761 
C    -3.2650431    0.3018754   -1.4048287 
C    -3.2140514   -1.1775506    0.5780861 
C     1.1964917    0.5032971    4.5286305 
C    -0.7959372    0.1910322    3.0890422 
C     4.0984993    0.7260107    0.3476455 
C     4.1280763    1.1060724    2.8133270 
C    -1.0660151   -3.6742629   -4.6533624 
C     0.2251095   -2.8749679   -4.9027747 
C    -4.4862057    0.6113285   -0.5227254 
C    -4.0477832    0.1009114    0.8623445 
C    -0.0621588    0.1714770    5.3810510 
C    -1.2658906    0.5638090    4.5017850 
C     5.5085839    0.4969802    0.9400807 
C     5.5218574    1.3628547    2.2110520 
C    -1.0520985   -3.3639327   -0.7070898 
C     2.3629020   -1.5945700    2.1879617 
C    -0.4870826   -3.4812599    0.6807805 
C     1.2732107   -2.6246674    2.1416262 
C     0.7739321   -2.9088783    0.8686524 
C    -1.1886224   -3.9501543    1.8058135 
C     0.5803940   -3.1123567    3.2652269 
C    -0.6257451   -3.8097843    3.0861960 
H    -1.1236883   -0.7305470   -3.5065980 
H    -3.4357590   -1.8556848   -1.4976491 
H     0.6229900    1.7925854    2.8741829 
H     2.8208307    2.1385680    1.4410112 
H    -2.6515466   -2.1638941   -4.4151189 
H    -2.5581792   -3.3072183   -3.0705575 
H     0.8879604   -2.9392466   -2.8352474 
H     1.1836991   -1.3569634   -3.5808172 
H    -2.4549670    1.0227765   -1.1819650 
H    -3.4690345    0.3479536   -2.4874018 
H    -3.7922466   -2.0938345    0.7827773 
H    -2.3178053   -1.2232060    1.2183428 
H     1.9441798   -0.3030116    4.6050993 
H     1.6942350    1.4239251    4.8746940 
H    -1.3921057    0.6486413    2.2837499 
H    -0.8272623   -0.9043032    2.9529562 
H     4.1117090    1.5579216   -0.3789298 
H     3.7218771   -0.1570403   -0.2016975 
H     4.1307220    0.1251991    3.3199039 
H     3.8202274    1.8566044    3.5595791 
H    -1.5709827   -3.9916065   -5.5810447 
H    -0.8242989   -4.5915265   -4.0846134 
H     1.0702466   -3.5012186   -5.2357076 
H     0.0523928   -2.1018212   -5.6749702 
H    -5.3607329    0.0393013   -0.8852292 
H    -4.7651743    1.6792591   -0.5268025 
H    -3.4099742    0.8614364    1.3497222 
H    -4.8945631   -0.0890860    1.5423424 
H    -0.0536612    0.6844083    6.3570681 
H    -0.0987186   -0.9137250    5.5839252 
H    -2.2006713    0.0574595    4.7968086 
H    -1.4420955    1.6551410    4.5543333 
H     6.3142608    0.7439183    0.2287414 
H     5.6320275   -0.5663792    1.2192476 
H     6.3421227    1.1121532    2.9048994 
H     5.6276542    2.4313465    1.9423743 
H    -2.0803628   -3.7542344   -0.7839683 
H    -0.4295616   -3.9092522   -1.4389529 
H     2.7971983   -1.4675628    3.1923289 
H     3.1843406   -1.8241613    1.4859351 
H     1.3248477   -2.5399076   -0.0048359 
H    -2.1781352   -4.4050404    1.6874044 
H     0.9572517   -2.9147822    4.2745294 
H    -1.1617767   -4.1975425    3.9586592 
