103
Energy =
C     0.2933503    2.9829846   -0.6560744 
C     0.9352491    2.3202868   -1.7088154 
C     0.2145607    1.4093589   -2.5629778 
H     2.0160518    2.4407172   -1.8547788 
Pd    0.2605196    0.5213850   -0.5787077 
P    -1.0553487   -1.3264278   -1.3971913 
P     1.2586934    0.1595070    1.6625440 
H    -0.8019254    2.8936355   -0.5985267 
H    -0.8315999    1.6650986   -2.7810115 
C     1.9736269    5.8194398    2.0884025 
C     0.6724724    5.3254345    2.2748411 
C     0.1315052    4.4189991    1.3579828 
C     0.8860456    3.9703742    0.2458900 
C     2.1817112    4.5101468    0.0501823 
C     2.7187413    5.4195779    0.9656071 
H     2.3988682    6.5313009    2.8031525 
H     0.0775264    5.6538623    3.1330985 
H    -0.8841402    4.0372433    1.5026699 
H     2.7660436    4.2321937   -0.8319509 
H     3.7195784    5.8302009    0.7982865 
C     2.2237891   -0.8591173   -5.6318985 
C     2.8184073   -0.7061686   -4.3679298 
C     2.1769694    0.0421245   -3.3748812 
C     0.9221316    0.6491228   -3.6212551 
C     0.3435679    0.4969537   -4.9017535 
C     0.9881564   -0.2499705   -5.8969968 
H     2.7254228   -1.4464598   -6.4076211 
H     3.7843274   -1.1762117   -4.1560060 
H     2.6388503    0.1408117   -2.3845575 
H    -0.6128293    0.9850118   -5.1225162 
H     0.5266038   -0.3512176   -6.8846571 
C     0.2189945    0.2781535    3.2016751 
C     2.5434810    1.4880406    1.9237883 
C    -2.1054683   -0.9834801   -2.8977970 
C    -2.1479677   -1.9083246   -0.0159990 
C    -0.6107735   -0.9754928    3.5588354 
C    -0.8084158    1.4425713    3.1611937 
C     3.6054504    1.5064856    0.7902867 
C     3.3567033    1.4392023    3.2642221 
C    -3.2958620   -0.0096621   -2.7440157 
C    -2.6880674   -2.2081417   -3.6754498 
C    -3.2306036   -2.9772977   -0.2685553 
C    -2.9258747   -0.7737317    0.6986980 
C    -1.6181011   -0.4188209    4.5813790 
C    -2.0212991    0.9637184    4.0168512 
C     4.8466598    2.1188528    1.4590427 
C     4.8466349    1.4535754    2.8452503 
C    -3.9963783   -0.1540097   -4.1050299 
C    -3.9985897   -1.6804243   -4.3334749 
C    -3.9568217   -3.0017393    1.0902694 
C    -4.0115096   -1.5140573    1.5373761 
C     2.3085986   -1.3904663    1.9907906 
C    -0.0796193   -2.8568903   -1.9325058 
C     1.6955202   -2.6032386    1.3442827 
C     0.5577060   -3.3830352   -0.6746704 
C     1.4520936   -2.5180586   -0.0321018 
C     1.2025129   -3.7174834    2.0474340 
C     0.0798773   -4.5040735    0.0306556 
C     0.4462248   -4.6909789    1.3733568 
H     0.9314612    0.4546350    4.0293571 
H     1.9751984    2.4324599    1.8860786 
H    -1.3822683   -0.5040284   -3.5784720 
H    -1.4176425   -2.3295258    0.7039740 
H     0.0070439   -1.7947599    3.9611659 
H    -1.1304086   -1.3702270    2.6681358 
H    -1.1171513    1.6402537    2.1170461 
H    -0.3608609    2.3759325    3.5405152 
H     3.8397710    0.4803739    0.4455169 
H     3.2574492    2.0665268   -0.0906917 
H     3.1084960    2.3288207    3.8676019 
H     3.1224958    0.5616126    3.8909953 
H    -3.9808036   -0.3475085   -1.9461854 
H    -2.9874277    1.0224168   -2.5011163 
H    -1.9577819   -2.5551650   -4.4254068 
H    -2.9015937   -3.0658003   -3.0174057 
H    -2.8186934   -3.9568999   -0.5625443 
H    -3.9233667   -2.6443464   -1.0628560 
H    -3.3997061   -0.1023014   -0.0350502 
H    -2.2537548   -0.1478806    1.3051158 
H    -1.1129021   -0.2984383    5.5571808 
H    -2.4808694   -1.0873505    4.7425405 
H    -2.9195001    0.8709892    3.3822393 
H    -2.2713038    1.6793940    4.8172167 
H     4.7090175    3.2119995    1.5606543 
H     5.7755534    1.9478736    0.8887859 
H     5.2226470    0.4172053    2.7549508 
H     5.4873021    1.9692377    3.5800075 
H    -3.3987520    0.3545145   -4.8853807 
H    -5.0068801    0.2874915   -4.1220609 
H    -4.8741872   -2.1261039   -3.8289946 
H    -4.0693576   -1.9515578   -5.3995991 
H    -3.3565108   -3.5922088    1.8057149 
H    -4.9535473   -3.4699914    1.0335580 
H    -5.0063530   -1.0777912    1.3464926 
H    -3.8247683   -1.4159096    2.6196020 
H     3.3062133   -1.1757105    1.5681863 
H     2.4252832   -1.5044672    3.0814142 
H     0.6506514   -2.5099357   -2.6863623 
H    -0.7625544   -3.5811219   -2.4038747 
H     1.8455079   -1.6585697   -0.5906379 
H     1.3931299   -3.8182630    3.1215336 
H    -0.6070833   -5.2063821   -0.4541223 
H     0.0867756   -5.5708834    1.9168432 
