103
Energy =
C     0.2134882    2.7679462   -0.8840613 
C     0.9764664    2.1586924   -1.8932871 
C     0.3319066    1.2543114   -2.8126356 
H     2.0642539    2.2963267   -1.9291052 
Pd    0.2155283    0.3958465   -0.8009118 
P    -1.2807433   -1.3554087   -1.6047829 
P     1.1427889   -0.0281437    1.4302645 
H    -0.8797399    2.6603027   -0.9556664 
H    -0.6855467    1.5173413   -3.1285708 
C     1.4717347    5.5433105    2.1316091 
C     0.2164477    4.9175697    2.2110998 
C    -0.1864638    4.0337141    1.2059537 
C     0.6669333    3.7373494    0.1143281 
C     1.9149136    4.4001550    0.0315165 
C     2.3105391    5.2933628    1.0321498 
H     1.7882367    6.2405222    2.9140017 
H    -0.4491042    5.1254289    3.0549373 
H    -1.1634704    3.5426502    1.2675956 
H     2.5687730    4.2330322   -0.8299076 
H     3.2740925    5.8064103    0.9520764 
C     2.5178778   -1.2407230   -5.5614922 
C     3.0434603   -0.9729197   -4.2860865 
C     2.3491512   -0.1435396   -3.3994081 
C     1.1058848    0.4293176   -3.7641022 
C     0.5990535    0.1628327   -5.0571298 
C     1.2979814   -0.6635482   -5.9462932 
H     3.0617496   -1.8906966   -6.2543648 
H     3.9974718   -1.4159855   -3.9823558 
H     2.7612359    0.0472478   -2.4007136 
H    -0.3431763    0.6258439   -5.3720024 
H     0.8920771   -0.8530174   -6.9453420 
C    -0.0796649   -0.3085892    2.8079293 
C     2.2496247    1.3659135    1.9814502 
C    -2.2061739   -0.9358428   -3.1695169 
C    -2.6493231   -1.6880026   -0.3771596 
C    -0.8603396    0.9664381    3.2167754 
C     0.4139203   -0.9456323    4.1475425 
C     3.4640755    1.5943721    1.0433453 
C     2.8856170    1.3338855    3.3888223 
C    -3.2183022    0.2274323   -3.1017958 
C    -3.0162134   -2.0870537   -3.8325012 
C    -3.0787261   -0.3934300    0.3546253 
C    -2.3196964   -2.6511343    0.7880257 
C    -1.4895985    0.5574860    4.5590029 
C    -0.3400393   -0.1806679    5.2710356 
C     4.4703604    2.4389117    1.8812722 
C     3.8758720    2.5120239    3.3118171 
C    -3.8859869    0.1452715   -4.4845592 
C    -4.1035468   -1.3729904   -4.6967596 
C    -3.9346698   -0.9076007    1.5272622 
C    -3.2986812   -2.2652000    1.9343050 
C     2.3171476   -1.5097273    1.5309426 
C    -0.4843969   -3.0006933   -2.1051535 
C     1.6699819   -2.7348794    0.9435726 
C     0.3117491   -3.5174605   -0.9335896 
C     1.2537589   -2.6365283   -0.3894629 
C     1.3093769   -3.8800885    1.6775367 
C    -0.0049117   -4.6843629   -0.2140359 
C     0.5337983   -4.8812900    1.0675737 
H    -0.8020120   -1.0040913    2.3495170 
H     1.6072339    2.2636564    1.9287024 
H    -1.4039829   -0.6482520   -3.8717156 
H    -3.5078904   -2.0865793   -0.9521549 
H    -1.5965179    1.2735732    2.4547804 
H    -0.1727087    1.8180761    3.3728325 
H     1.5042234   -0.8693682    4.2848947 
H     0.1722654   -2.0219038    4.1491528 
H     3.9264904    0.6324324    0.7602756 
H     3.1638062    2.0881018    0.1062518 
H     2.1495062    1.4440507    4.2019564 
H     3.4317940    0.3855861    3.5509348 
H    -3.9721168    0.0343177   -2.3166070 
H    -2.7578925    1.2067077   -2.8823222 
H    -2.3602589   -2.7371047   -4.4340167 
H    -3.4937626   -2.7291193   -3.0699370 
H    -3.6140373    0.3248353   -0.2872904 
H    -2.1668556    0.1183512    0.7222906 
H    -1.2713680   -2.5088093    1.1065724 
H    -2.4127586   -3.7057248    0.4898705 
H    -2.3357614   -0.1315554    4.3775636 
H    -1.8781878    1.4150371    5.1342152 
H     0.3356214    0.5591706    5.7379619 
H    -0.6888346   -0.8496221    6.0750037 
H     4.6088841    3.4451436    1.4527448 
H     5.4614089    1.9546968    1.8883865 
H     4.6459660    2.4747072    4.1002803 
H     3.3160056    3.4561807    3.4388990 
H    -3.1948329    0.5472242   -5.2490371 
H    -4.8202303    0.7276061   -4.5490778 
H    -5.1101834   -1.6651236   -4.3522824 
H    -4.0356308   -1.6553243   -5.7601190 
H    -4.9729489   -1.0593224    1.1834777 
H    -3.9757821   -0.1850668    2.3601072 
H    -2.7593711   -2.1905835    2.8944197 
H    -4.0731656   -3.0377287    2.0718213 
H     3.2135991   -1.2213439    0.9542490 
H     2.6213002   -1.6489876    2.5807133 
H     0.1482954   -2.7459563   -2.9771861 
H    -1.2643932   -3.7070050   -2.4331635 
H     1.5547143   -1.7577032   -0.9753093 
H     1.6278690   -3.9886156    2.7201013 
H    -0.7135910   -5.4100245   -0.6286167 
H     0.2872780   -5.7906317    1.6252445 
