103
Energy =
C     0.2460135    2.9979079   -0.6622953 
C     0.9246032    2.3370877   -1.6927430 
C     0.2242912    1.4259484   -2.5661016 
H     2.0095343    2.4592526   -1.8012406 
Pd    0.2356123    0.5327783   -0.5853949 
P    -1.0717668   -1.3109464   -1.4117693 
P     1.2611414    0.1598124    1.6343594 
H    -0.8491634    2.8938376   -0.6334230 
H    -0.8159524    1.6844902   -2.8079593 
C     1.8360727    5.8398441    2.1282457 
C     0.5578352    5.2892736    2.3173323 
C     0.0423716    4.3841483    1.3849361 
C     0.8022621    3.9925313    0.2547342 
C     2.0709078    4.5917876    0.0550998 
C     2.5822127    5.5001615    0.9866245 
H     2.2412792    6.5502226    2.8560217 
H    -0.0384174    5.5717603    3.1908768 
H    -0.9536581    3.9548985    1.5333727 
H     2.6485089    4.3639146   -0.8459012 
H     3.5626306    5.9569889    0.8177772 
C     2.2680990   -0.8929594   -5.5739303 
C     2.8631316   -0.6924487   -4.3167743 
C     2.2124947    0.0752255   -3.3450715 
C     0.9474424    0.6555129   -3.6049287 
C     0.3706284    0.4583461   -4.8803592 
C     1.0236519   -0.3090843   -5.8541965 
H     2.7767817   -1.4958863   -6.3328939 
H     3.8367537   -1.1406409   -4.0932061 
H     2.6771589    0.2110653   -2.3609681 
H    -0.5916647    0.9279657   -5.1149796 
H     0.5619157   -0.4456330   -6.8375166 
C     0.2712154    0.1945778    3.2082401 
C     2.4931452    1.5384129    1.8782675 
C    -2.1449345   -0.9430293   -2.8886781 
C    -2.1326985   -1.9376867   -0.0258478 
C    -0.5341955   -1.0817720    3.5387415 
C    -0.7692410    1.3480028    3.2428244 
C     3.5939392    1.5328282    0.7634541 
C     3.2589447    1.5784135    3.2305498 
C    -3.3322205    0.0275857   -2.6968811 
C    -2.7378575   -2.1528224   -3.6815771 
C    -3.2064175   -3.0140541   -0.2841581 
C    -2.9125445   -0.8316168    0.7298453 
C    -1.5192525   -0.5767370    4.6087768 
C    -1.9560690    0.8186767    4.1049865 
C     4.9443156    1.5439293    1.5166492 
C     4.6088380    2.2176561    2.8576138 
C    -4.0577117   -0.0941485   -4.0470302 
C    -4.0636005   -1.6165179   -4.3008462 
C    -3.9065282   -3.0824883    1.0871506 
C    -3.9623563   -1.6088256    1.5801216 
C     2.3836985   -1.3542662    1.8801191 
C    -0.0844100   -2.8146455   -1.9958676 
C     1.7828226   -2.5727806    1.2315187 
C     0.5992350   -3.3456307   -0.7642058 
C     1.4946889   -2.4716859   -0.1350772 
C     1.3372607   -3.7094976    1.9304386 
C     0.1660936   -4.4868104   -0.0624426 
C     0.5796571   -4.6875974    1.2645339 
H     1.0075740    0.3448872    4.0201398 
H     1.8979563    2.4619326    1.7887731 
H    -1.4314496   -0.4493195   -3.5695213 
H    -1.3834990   -2.3658462    0.6704957 
H     0.1040165   -1.9080276    3.8915610 
H    -1.0741300   -1.4479478    2.6479819 
H    -1.1051147    1.5862805    2.2156571 
H    -0.3224188    2.2701759    3.6502942 
H     3.5037350    0.6765961    0.0684801 
H     3.4914485    2.4433372    0.1518912 
H     2.7060449    2.1397035    4.0021387 
H     3.4373317    0.5608716    3.6257116 
H    -4.0022459   -0.3238488   -1.8922359 
H    -3.0180248    1.0551165   -2.4421755 
H    -2.0210192   -2.4789376   -4.4536729 
H    -2.9334425   -3.0264842   -3.0392489 
H    -2.7881192   -3.9806590   -0.6107457 
H    -3.9179929   -2.6698017   -1.0567394 
H    -3.4180566   -0.1573429    0.0201142 
H    -2.2377713   -0.2031546    1.3311478 
H    -0.9882183   -0.4837484    5.5738726 
H    -2.3683692   -1.2625957    4.7698719 
H    -2.8654286    0.7335857    3.4853023 
H    -2.2009683    1.5004391    4.9359622 
H     5.7408342    2.0562826    0.9513001 
H     5.2880456    0.5084039    1.7009132 
H     5.3832009    2.0706514    3.6296176 
H     4.4790438    3.3068819    2.7124417 
H    -3.4746080    0.4277840   -4.8295972 
H    -5.0685316    0.3469078   -4.0382116 
H    -4.9269028   -2.0715186   -3.7835529 
H    -4.1586878   -1.8703369   -5.3693528 
H    -3.2896999   -3.6898709    1.7736739 
H    -4.9011757   -3.5556226    1.0348855 
H    -4.9672863   -1.1777876    1.4364748 
H    -3.7398406   -1.5416965    2.6579152 
H     3.3531198   -1.0942972    1.4188576 
H     2.5515327   -1.4889328    2.9617287 
H     0.6181145   -2.4432606   -2.7643693 
H    -0.7667419   -3.5451532   -2.4586973 
H     1.8518416   -1.5951808   -0.6916523 
H     1.5649980   -3.8242042    2.9958940 
H    -0.5218915   -5.1953116   -0.5366720 
H     0.2562683   -5.5835830    1.8043999 
