103
Energy =
C    -0.9164967    1.3768702   -1.8664322 
C    -0.0445566    2.2272414   -1.0971599 
C     1.3474258    2.1149919   -1.1744695 
H    -0.4931599    2.9893607   -0.4483409 
Pd    0.0386501    0.1442851   -0.3160111 
P     1.0916703   -0.0153488    1.9264831 
P    -0.8299047   -1.8746952   -1.3852693 
H    -0.5347860    1.0262734   -2.8345928 
H     1.7547976    1.4214366   -1.9240040 
C    -5.1640374    2.0807128   -1.7368152 
C    -4.5256899    1.8187920   -2.9599747 
C    -3.1455519    1.5832263   -2.9969859 
C    -2.3770952    1.6031421   -1.8105149 
C    -3.0334242    1.8758506   -0.5879304 
C    -4.4117089    2.1109184   -0.5507787 
H    -6.2431426    2.2624303   -1.7082627 
H    -5.1050281    1.8037612   -3.8888346 
H    -2.6509383    1.3948045   -3.9567722 
H    -2.4568312    1.8780020    0.3431675 
H    -4.9039090    2.3116420    0.4065289 
C     4.3226246    4.6490604    0.5854790 
C     2.9670457    4.8583425    0.8984903 
C     1.9808325    4.0478945    0.3333448 
C     2.3307081    2.9963060   -0.5528695 
C     3.6989931    2.8158875   -0.8751553 
C     4.6845444    3.6322167   -0.3118224 
H     5.0921940    5.2875528    1.0308775 
H     2.6819075    5.6634377    1.5830929 
H     0.9322995    4.2306421    0.5827783 
H     3.9827963    2.0258843   -1.5791801 
H     5.7359888    3.4797052   -0.5744306 
C     0.4976735   -2.3474600   -2.6123160 
C    -2.3716496   -1.6964453   -2.4045816 
C    -0.1052876    0.9067910    3.0255591 
C     2.6983505    0.8987144    2.0895632 
C     1.8883872   -2.5864164   -1.9734581 
C     0.8111113   -1.3200784   -3.7162620 
C    -3.6488433   -1.6126270   -1.4974264 
C    -2.6541441   -2.8213007   -3.4387730 
C    -1.5700726    0.4067477    2.9058728 
C    -0.2272457    2.4115737    2.7138668 
C     3.8646900    0.2078967    1.3362590 
C     3.2717807    1.1636872    3.4976651 
C     2.8971047   -2.4861721   -3.1565581 
C     2.0959130   -1.8902862   -4.3491242 
C    -4.6311817   -2.6587874   -2.0774332 
C    -4.1905241   -2.8205818   -3.5423577 
C    -2.4543603    1.6056180    3.3586438 
C    -1.4982287    2.8242349    3.4798046 
C     5.1604738    0.7797051    1.9881657 
C     4.6872335    1.6735768    3.1643665 
C    -1.1823444   -3.5602237   -0.5589425 
C     1.4295225   -1.5612914    2.9723865 
C    -1.0274744   -3.5023438    0.9331291 
C     0.3166861   -2.5412664    2.7314930 
C     0.1657589   -2.9537837    1.4052618 
C    -2.0430698   -3.8070134    1.8571762 
C    -0.6862956   -2.8737291    3.6596375 
C    -1.8430617   -3.5406475    3.2222582 
H     0.1445994   -3.2810693   -3.0932468 
H    -2.2619685   -0.7485167   -2.9529448 
H     0.2527789    0.7845628    4.0663997 
H     2.5133175    1.8786448    1.6148269 
H     1.9517155   -3.5465795   -1.4342181 
H     2.0819591   -1.7828364   -1.2351521 
H     1.0269468   -0.3397834   -3.2500383 
H    -0.0119296   -1.1781463   -4.4374325 
H    -3.4292742   -1.7913111   -0.4289942 
H    -4.0720211   -0.5984221   -1.5622850 
H    -2.1442335   -2.6393877   -4.3998776 
H    -2.3155054   -3.8081523   -3.0714063 
H    -1.7748173    0.1423140    1.8492400 
H    -1.7499105   -0.5070886    3.4907471 
H     0.6657002    2.9943176    2.9961043 
H    -0.3794001    2.5379729    1.6254872 
H     3.8055396    0.3918292    0.2512352 
H     3.8227740   -0.8882427    1.4715290 
H     3.3332635    0.2256862    4.0805016 
H     2.6738682    1.8840048    4.0816744 
H     3.3155560   -3.4733918   -3.4125587 
H     3.7502986   -1.8428460   -2.8810246 
H     2.6626101   -1.1301486   -4.9126024 
H     1.8256414   -2.6873964   -5.0640835 
H    -5.6846716   -2.3513663   -1.9684074 
H    -4.5195301   -3.6261832   -1.5514363 
H    -4.5892591   -3.7291363   -4.0247740 
H    -4.5258632   -1.9503943   -4.1378329 
H    -2.9546697    1.3966621    4.3186395 
H    -3.2567979    1.7942762    2.6245003 
H    -1.9397443    3.7586125    3.0934596 
H    -1.2400333    3.0029224    4.5387634 
H     5.7609146    1.3540231    1.2633815 
H     5.7989555   -0.0429722    2.3523042 
H     5.3701716    1.6419111    4.0297664 
H     4.6191520    2.7258794    2.8337572 
H    -2.1951053   -3.8756331   -0.8554950 
H    -0.4686855   -4.2728645   -1.0101379 
H     1.5139024   -1.2490783    4.0265497 
H     2.4068427   -1.9626018    2.6504663 
H     0.9571913   -2.7087875    0.6883221 
H    -2.9903005   -4.2374285    1.5136278 
H    -0.5847027   -2.5789620    4.7100952 
H    -2.6223950   -3.8036110    3.9450585 
