103
Energy =
C     0.2167825    2.7195621   -0.9979394 
C     0.9492415    2.0547038   -1.9936485 
C     0.2947500    1.1094990   -2.8643007 
H     2.0372030    2.1828684   -2.0588867 
Pd    0.2001286    0.3531666   -0.8053986 
P    -1.3348354   -1.4419858   -1.3502189 
P     1.1495416    0.0296921    1.4329522 
H    -0.8788009    2.6194205   -1.0341764 
H    -0.7231299    1.3551638   -3.1893292 
C     1.5620042    5.6933160    1.7836590 
C     0.3092535    5.0778263    1.9417885 
C    -0.1194875    4.1223581    1.0160129 
C     0.7056406    3.7412684   -0.0707739 
C     1.9546838    4.3878649   -0.2305329 
C     2.3743747    5.3555393    0.6880100 
H     1.8967890    6.4495391    2.5009395 
H    -0.3362973    5.3525003    2.7820984 
H    -1.0987792    3.6469848    1.1340204 
H     2.5888835    4.1522208   -1.0904628 
H     3.3363230    5.8578204    0.5448339 
C     2.6007894   -1.2738943   -5.6189704 
C     3.0377450   -1.1116623   -4.2940190 
C     2.2955782   -0.3304527   -3.4011950 
C     1.0925627    0.2936251   -3.8089811 
C     0.6727765    0.1299738   -5.1483224 
C     1.4209574   -0.6437698   -6.0443992 
H     3.1814895   -1.8837802   -6.3184182 
H     3.9598091   -1.5964307   -3.9569429 
H     2.6397683   -0.2119460   -2.3656528 
H    -0.2401443    0.6285743   -5.4922028 
H     1.0838525   -0.7526648   -7.0803797 
C    -0.0853045   -0.1300137    2.8181996 
C     2.3418657    1.3918335    1.8857309 
C    -2.6986922   -1.1012332   -2.5806559 
C    -2.2587750   -1.9127364    0.1957380 
C    -0.8183703    1.1898172    3.1561067 
C     0.3283857   -0.6595831    4.2078052 
C     3.4900314    1.5414626    0.8555239 
C     3.0573932    1.3211858    3.2730677 
C    -2.3130535   -1.3895651   -4.0543428 
C    -3.2667015    0.3568697   -2.5641242 
C    -3.3032028   -3.0480318    0.1472980 
C    -3.0765384   -0.7534262    0.8048820 
C    -1.5756838    0.8856457    4.4807781 
C    -0.9570587   -0.4324340    5.0321101 
C     4.4979228    2.4286779    1.6017386 
C     4.5047613    1.8422626    3.0271080 
C    -3.2848557   -0.5068454   -4.8554127 
C    -3.3222219    0.8040655   -4.0491182 
C    -4.0313309   -2.9191240    1.5116126 
C    -3.8373410   -1.4372535    1.9628299 
C     2.2587478   -1.4938759    1.6200188 
C    -0.5700714   -3.0718896   -1.9406361 
C     1.5519360   -2.7198211    1.1100252 
C     0.1915508   -3.5702203   -0.7373089 
C     1.1785013   -2.7074716   -0.2403349 
C     1.0921418   -3.7691246    1.9271890 
C    -0.2316449   -4.6407219    0.0735738 
C     0.2568109   -4.7605390    1.3844956 
H    -0.8222508   -0.8439988    2.4043653 
H     1.7431168    2.3189393    1.8428986 
H    -3.5080413   -1.7982105   -2.2972102 
H    -1.4591555   -2.2005162    0.9073898 
H    -1.4850716    1.5227711    2.3429928 
H    -0.0788803    1.9951027    3.3150801 
H     1.1570706   -0.0610127    4.6222685 
H     0.6444264   -1.7154486    4.1924190 
H     3.9539920    0.5625088    0.6293013 
H     3.1435670    1.9673576   -0.0993547 
H     2.5131274    1.9343514    4.0107436 
H     3.0870868    0.2957578    3.6753350 
H    -1.2728251   -1.0814386   -4.2522453 
H    -2.3879093   -2.4611363   -4.3034257 
H    -4.2744996    0.3589107   -2.1163610 
H    -2.6491907    1.0354349   -1.9465960 
H    -2.8569992   -4.0420545   -0.0054322 
H    -4.0151573   -2.8713747   -0.6802218 
H    -3.7934785   -0.3735322    0.0551487 
H    -2.4533105    0.0996885    1.1204685 
H    -2.6575648    0.7687297    4.3010783 
H    -1.4602574    1.7188102    5.1939968 
H    -0.7576921   -0.3909793    6.1156486 
H    -1.6501028   -1.2764961    4.8646994 
H     4.1232298    3.4678235    1.6163786 
H     5.4963389    2.4381526    1.1326598 
H     5.2166329    0.9995356    3.0790275 
H     4.8197317    2.5767196    3.7866845 
H    -4.2883530   -0.9718393   -4.8710841 
H    -2.9710455   -0.3645703   -5.9038511 
H    -2.4362794    1.4173515   -4.3004532 
H    -4.2071443    1.4243647   -4.2673968 
H    -3.5795013   -3.6069910    2.2464248 
H    -5.0952740   -3.1951739    1.4261370 
H    -4.7908852   -0.9302352    2.1846832 
H    -3.2308081   -1.3957795    2.8845293 
H     3.1643250   -1.2806658    1.0254528 
H     2.5597657   -1.5819689    2.6765408 
H     0.0781811   -2.8294691   -2.8016085 
H    -1.3650747   -3.7615638   -2.2701645 
H     1.5515652   -1.9035519   -0.8882925 
H     1.3817457   -3.8125330    2.9827849 
H    -0.9696938   -5.3568141   -0.3036320 
H    -0.0661123   -5.5997670    2.0091301 
