103
Energy =
C    -0.9128726    2.5145952   -0.1556448 
C    -0.0810107    2.2264694   -1.2425024 
C    -0.4818326    1.2574241   -2.2319533 
H     0.8840893    2.7351586   -1.3530339 
Pd   -0.0315636    0.1802109   -0.3799752 
P    -0.9964504   -1.8717067   -1.2659926 
P     1.2228656    0.0533268    1.7753574 
H    -1.9183293    2.0711603   -0.1731413 
H    -1.5627874    1.1698042   -2.4121188 
C    -0.3765868    5.3587369    3.0000126 
C     0.6157356    5.2350933    2.0099323 
C     0.4560047    4.3255706    0.9627595 
C    -0.7012401    3.5084706    0.8898242 
C    -1.7054283    3.6685265    1.8777465 
C    -1.5428016    4.5810818    2.9245619 
H    -0.2447129    6.0716370    3.8202879 
H     1.5145145    5.8582298    2.0563965 
H     1.2327409    4.2461090    0.1976388 
H    -2.6134662    3.0585513    1.8188563 
H    -2.3243137    4.6870990    3.6834716 
C     1.9902129    0.6025073   -5.6955422 
C     2.5751422    0.6698149   -4.4195210 
C     1.7760408    0.8825595   -3.2918209 
C     0.3727572    1.0163709   -3.4140474 
C    -0.2012848    0.9490289   -4.7030395 
C     0.6015377    0.7510968   -5.8334930 
H     2.6157863    0.4387599   -6.5787654 
H     3.6581852    0.5544285   -4.3055764 
H     2.2358313    0.9194793   -2.2980549 
H    -1.2849399    1.0652185   -4.8181713 
H     0.1421784    0.7124743   -6.8265164 
C     0.7089357    1.2947798    3.0565282 
C     2.9691457    0.5304524    1.3132269 
C    -1.3713629   -1.9566134   -3.0934577 
C    -2.6858048   -1.8871141   -0.4529141 
C     1.7317408    1.6399611    4.1693043 
C    -0.5981371    0.8473417    3.7960846 
C     3.1461818    1.9307191    0.6997925 
C     3.5808601   -0.4014338    0.2348231 
C    -2.4764953   -2.9391905   -3.5475548 
C    -0.1733979   -2.3726960   -3.9823156 
C    -3.5919525   -0.7324016   -0.9878905 
C    -2.6409338   -1.6959376    1.1013808 
C     0.8310229    2.1172876    5.3222615 
C    -0.3219857    1.0976177    5.3013820 
C     4.5715575    1.8742627    0.1166497 
C     4.7313321    0.4229499   -0.4164333 
C    -2.3265526   -2.9313251   -5.0860567 
C    -0.8149919   -2.6715681   -5.3627550 
C    -4.3183478   -0.1789112    0.2528979 
C    -3.2635928   -0.3133216    1.3599772 
C     1.5850880   -1.4655077    2.8777210 
C    -0.3561674   -3.6298744   -0.9623844 
C     0.7864787   -2.6661259    2.4553247 
C    -0.1571081   -3.8068695    0.5142061 
C     0.8003805   -2.9668402    1.0908587 
C    -0.0837350   -3.3846919    3.2958163 
C    -1.0129969   -4.5389899    1.3573512 
C    -0.9356915   -4.3589051    2.7478880 
H     0.4992989    2.2178398    2.4941745 
H     3.5697853    0.4720513    2.2418928 
H    -1.6835072   -0.9362295   -3.3818944 
H    -3.1268302   -2.8687786   -0.7028340 
H     2.4652871    2.3946508    3.8397053 
H     2.2996804    0.7468186    4.4923931 
H    -0.8629582   -0.2071055    3.5982115 
H    -1.4462706    1.4525937    3.4380866 
H     2.4064248    2.0634281   -0.1112776 
H     2.9985922    2.7475439    1.4255955 
H     3.9234909   -1.3638151    0.6507927 
H     2.8036699   -0.6350712   -0.5196277 
H    -2.2742069   -3.9513491   -3.1503893 
H    -3.4864987   -2.6489738   -3.2159791 
H     0.6184627   -1.6088183   -4.0270723 
H     0.2811853   -3.2957208   -3.5810881 
H    -4.2776496   -1.0704545   -1.7816137 
H    -2.9668535    0.0688687   -1.4246311 
H    -1.6259756   -1.7793113    1.5210361 
H    -3.2482226   -2.4852818    1.5751575 
H     0.4483642    3.1305063    5.0965633 
H     1.3562999    2.1637251    6.2913891 
H     0.0097989    0.1598209    5.7852204 
H    -1.2185212    1.4408001    5.8445058 
H     5.3005280    2.0655584    0.9240250 
H     4.7423865    2.6385848   -0.6602777 
H     4.6541051    0.3875711   -1.5171060 
H     5.7202405    0.0097898   -0.1585169 
H    -2.9378250   -2.1148037   -5.5091773 
H    -2.6893483   -3.8691929   -5.5381764 
H    -0.3264102   -3.5340429   -5.8456052 
H    -0.6855200   -1.8113252   -6.0398672 
H    -5.1956479   -0.8078713    0.4929397 
H    -4.6843237    0.8523747    0.1045437 
H    -2.4831635    0.4636120    1.2399004 
H    -3.6705023   -0.2125807    2.3805693 
H     2.6699417   -1.6536327    2.7885506 
H     1.3865121   -1.1861772    3.9252988 
H     0.5914811   -3.7258156   -1.5194295 
H    -1.0884428   -4.3340375   -1.3924764 
H     1.4765121   -2.4126564    0.4302261 
H    -0.1106996   -3.1725363    4.3704174 
H    -1.7651339   -5.2111613    0.9297379 
H    -1.5950082   -4.9337368    3.4064595 
