103
Energy =
C     0.1621979    2.8191255   -0.8668853 
C     0.9410541    2.2043087   -1.8594904 
C     0.3136168    1.2869994   -2.7790341 
H     2.0278439    2.3520668   -1.8827017 
Pd    0.1979450    0.4324565   -0.7679525 
P    -1.2503404   -1.3508019   -1.5651886 
P     1.1231330    0.0510624    1.4709575 
H    -0.9286835    2.6914541   -0.9408892 
H    -0.7051891    1.5375651   -3.1009702 
C     1.3848481    5.6482316    2.1133397 
C     0.1430113    4.9981422    2.2090139 
C    -0.2509678    4.0980646    1.2148549 
C     0.5977764    3.8108207    0.1172598 
C     1.8269686    4.5059245    0.0128612 
C     2.2159722    5.4116500    1.0052046 
H     1.6948764    6.3562057    2.8887035 
H    -0.5185642    5.1984412    3.0578217 
H    -1.2165958    3.5872146    1.2899827 
H     2.4670729    4.3562571   -0.8621470 
H     3.1670049    5.9454112    0.9106054 
C     2.5483351   -1.1506588   -5.5409279 
C     3.0606212   -0.8945846   -4.2577278 
C     2.3493812   -0.0858585   -3.3653543 
C     1.1026924    0.4776167   -3.7318583 
C     0.6080561    0.2212606   -5.0316556 
C     1.3239929   -0.5838386   -5.9268382 
H     3.1057220   -1.7837526   -6.2386766 
H     4.0176691   -1.3301210   -3.9526282 
H     2.7511293    0.0967250   -2.3610983 
H    -0.3382564    0.6758143   -5.3466308 
H     0.9276980   -0.7648291   -6.9313048 
C    -0.0962966   -0.1924937    2.8570204 
C     2.2612841    1.4558025    1.9234115 
C    -2.1601198   -0.9750471   -3.1501270 
C    -2.6301161   -1.6719651   -0.3475206 
C    -0.8716443    1.0868528    3.2498598 
C     0.3664684   -0.7559799    4.2178729 
C     3.4140730    1.5870730    0.8653710 
C     2.9685056    1.4287166    3.3072479 
C    -3.1985335    0.1663612   -3.1152359 
C    -2.9379371   -2.1524172   -3.8047045 
C    -3.0811153   -0.3679063    0.3542740 
C    -2.3089176   -2.6083839    0.8413308 
C    -1.5924866    0.7106693    4.5755270 
C    -0.8922953   -0.5799066    5.0956723 
C     4.7245309    1.6287757    1.6839421 
C     4.2851473    2.1825119    3.0492137 
C    -3.8400466    0.0520790   -4.5081762 
C    -4.0144931   -1.4736634   -4.7098632 
C    -3.9577723   -0.8705165    1.5162477 
C    -3.3158296   -2.2137022    1.9603254 
C     2.3091370   -1.4187892    1.6282296 
C    -0.4284804   -2.9961400   -2.0208199 
C     1.6866476   -2.6613737    1.0502337 
C     0.3575118   -3.4843249   -0.8304788 
C     1.2839302   -2.5859398   -0.2885474 
C     1.3314174   -3.8010348    1.7952024 
C     0.0429429   -4.6433441   -0.0971005 
C     0.5706679   -4.8176783    1.1921205 
H    -0.8148206   -0.9141948    2.4269388 
H     1.6333389    2.3604545    1.8699685 
H    -1.3540655   -0.6815513   -3.8457480 
H    -3.4779009   -2.0893631   -0.9253707 
H    -1.5674384    1.4166550    2.4601330 
H    -0.1618130    1.9154988    3.4224927 
H     1.2019890   -0.1594031    4.6219893 
H     0.6974830   -1.8058380    4.1569894 
H     3.4103454    0.7755888    0.1141008 
H     3.2814541    2.5271910    0.3085544 
H     2.3477657    1.8816058    4.0983041 
H     3.2033398    0.3957255    3.6206105 
H    -3.9613312   -0.0339381   -2.3404916 
H    -2.7642552    1.1585411   -2.9010332 
H    -2.2605432   -2.8079714   -4.3756377 
H    -3.4249145   -2.7818020   -3.0374089 
H    -3.6065473    0.3375850   -0.3096135 
H    -2.1796540    0.1537814    0.7339795 
H    -1.2689947   -2.4441629    1.1768038 
H    -2.3814735   -3.6697815    0.5622128 
H    -2.6666071    0.5290969    4.4024776 
H    -1.5244191    1.5358998    5.3038620 
H    -0.6458657   -0.5283114    6.1690424 
H    -1.5564359   -1.4519067    4.9614569 
H     5.5090284    2.2300731    1.1945356 
H     5.1269201    0.6064751    1.8139364 
H     5.0319691    2.0304710    3.8469889 
H     4.0876170    3.2687129    2.9733331 
H    -3.1468677    0.4648162   -5.2649184 
H    -4.7878143    0.6091512   -4.5941500 
H    -5.0242327   -1.7879113   -4.3954902 
H    -3.9047197   -1.7643360   -5.7674591 
H    -4.9863956   -1.0395638    1.1519739 
H    -4.0248794   -0.1344656    2.3352434 
H    -2.7977408   -2.1150657    2.9293731 
H    -4.0844030   -2.9925596    2.0954086 
H     3.2185511   -1.1311793    1.0711425 
H     2.5864659   -1.5342647    2.6883109 
H     0.2128450   -2.7515740   -2.8894360 
H    -1.1967309   -3.7166726   -2.3454911 
H     1.5803031   -1.7107316   -0.8818967 
H     1.6426934   -3.8946640    2.8414958 
H    -0.6550243   -5.3810626   -0.5085722 
H     0.3275780   -5.7216566    1.7598851 
