103
Energy =
C     0.2760593    3.0061430   -0.6984926 
C     0.9632365    2.3479658   -1.7249786 
C     0.2687149    1.4472978   -2.6131726 
H     2.0499573    2.4653573   -1.8202416 
Pd    0.2532755    0.5393318   -0.6379575 
P    -1.0386183   -1.3023149   -1.4872971 
P     1.2419209    0.1540349    1.5922673 
H    -0.8198825    2.9074822   -0.6833551 
H    -0.7677403    1.7118450   -2.8611105 
C     1.8434548    5.8342841    2.1191067 
C     0.5583951    5.2930864    2.2876952 
C     0.0513092    4.3916491    1.3471313 
C     0.8259558    3.9946599    0.2288864 
C     2.1020766    4.5846248    0.0497664 
C     2.6052399    5.4889689    0.9895375 
H     2.2421362    6.5418190    2.8532269 
H    -0.0497714    5.5801980    3.1514632 
H    -0.9502378    3.9700669    1.4794425 
H     2.6922724    4.3529548   -0.8420343 
H     3.5917728    5.9381773    0.8366292 
C     2.3460779   -0.8071462   -5.6463843 
C     2.9202972   -0.6474858   -4.3738577 
C     2.2579053    0.0968791   -3.3918208 
C     1.0016477    0.6929465   -3.6569646 
C     0.4436694    0.5336715   -4.9459193 
C     1.1094273   -0.2086753   -5.9305316 
H     2.8643785   -1.3907975   -6.4138686 
H     3.8869922   -1.1087290   -4.1467227 
H     2.7062402    0.2024211   -2.3963980 
H    -0.5135258    1.0135793   -5.1809330 
H     0.6634223   -0.3153652   -6.9247369 
C     0.2242899    0.1944284    3.1472199 
C     2.4800034    1.5223943    1.8597962 
C    -2.0716303   -0.8955042   -2.9832651 
C    -2.0922926   -1.9434578   -0.0951409 
C    -0.5988001   -1.0746702    3.4574858 
C    -0.8095357    1.3537287    3.1638633 
C     3.5980910    1.5126775    0.7624523 
C     3.2244287    1.5522595    3.2241701 
C    -3.0967189    0.2663817   -2.7837814 
C    -2.8747499   -2.0778190   -3.6198715 
C    -3.0671388   -3.1271774   -0.2700983 
C    -2.9734632   -0.8764479    0.5999807 
C    -1.5896339   -0.5652284    4.5194565 
C    -2.0116663    0.8324337    4.0097770 
C     4.9365959    1.5143784    1.5367795 
C     4.5838565    2.1847200    2.8750319 
C    -4.4794588   -0.3958028   -2.9265515 
C    -4.2396928   -1.4659418   -4.0042905 
C    -3.7172496   -3.1872534    1.1254592 
C    -3.9115493   -1.6998191    1.5336679 
C     2.3498452   -1.3679937    1.8515250 
C    -0.0533549   -2.8026764   -2.0775240 
C     1.7642060   -2.5814541    1.1795491 
C     0.6218870   -3.3454970   -0.8444692 
C     1.4976270   -2.4688406   -0.1906197 
C     1.3177595   -3.7294031    1.8594089 
C     0.1992407   -4.5036570   -0.1647663 
C     0.5892823   -4.7119249    1.1681351 
H     0.9455242    0.3372789    3.9739727 
H     1.8931671    2.4506134    1.7643406 
H    -1.2935841   -0.5802437   -3.6973304 
H    -1.3117454   -2.2650833    0.6248576 
H     0.0236874   -1.9140773    3.8077213 
H    -1.1349835   -1.4209873    2.5565130 
H    -1.1289365    1.5896152    2.1308794 
H    -0.3641316    2.2748689    3.5750344 
H     3.5139442    0.6584285    0.0643010 
H     3.5103390    2.4248671    0.1511290 
H     2.6628237    2.1139927    3.9891230 
H     3.3903067    0.5321142    3.6180840 
H    -2.9609141    0.8128129   -1.8335014 
H    -2.9619506    1.0050562   -3.5952239 
H    -2.3382332   -2.5025370   -4.4844870 
H    -3.0226792   -2.9010301   -2.9022895 
H    -2.5728387   -4.0666713   -0.5643862 
H    -3.8332187   -2.8884776   -1.0284384 
H    -3.5744326   -0.3333477   -0.1466753 
H    -2.3666957   -0.1255138    1.1318558 
H    -1.0663136   -0.4753464    5.4890695 
H    -2.4445120   -1.2454325    4.6737900 
H    -2.9122430    0.7514727    3.3766266 
H    -2.2649497    1.5161391    4.8365855 
H     5.7443578    2.0248547    0.9858905 
H     5.2724087    0.4764916    1.7223461 
H     5.3450485    2.0300401    3.6585413 
H     4.4628050    3.2752795    2.7323002 
H    -5.2724703    0.3242564   -3.1894217 
H    -4.7749631   -0.8775621   -1.9748370 
H    -5.0418662   -2.2210172   -4.0612296 
H    -4.1715121   -0.9821207   -4.9964962 
H    -3.0222952   -3.6877266    1.8238251 
H    -4.6590294   -3.7606560    1.1318650 
H    -4.9591513   -1.3823044    1.3993668 
H    -3.6673869   -1.5429281    2.5969053 
H     3.3312455   -1.1076531    1.4165016 
H     2.4916081   -1.5123876    2.9356436 
H     0.6551101   -2.4255964   -2.8379544 
H    -0.7354057   -3.5264804   -2.5534902 
H     1.8545401   -1.5824923   -0.7314375 
H     1.5255138   -3.8512855    2.9281731 
H    -0.4624150   -5.2217584   -0.6611611 
H     0.2701908   -5.6192289    1.6913627 
