103
Energy =
C     0.3176142    2.7747018   -0.9060942 
C     1.0789897    2.1498812   -1.9069003 
C     0.4249681    1.2696012   -2.8420992 
H     2.1703895    2.2599766   -1.9263610 
Pd    0.2612898    0.3985966   -0.8372977 
P    -1.2302851   -1.3320337   -1.6855400 
P     1.1316697   -0.0524732    1.4084464 
H    -0.7768261    2.6950534   -0.9940532 
H    -0.5817108    1.5601103   -3.1659902 
C     1.6005968    5.5218427    2.1252954 
C     0.3276015    4.9306795    2.1850479 
C    -0.0822463    4.0551980    1.1753873 
C     0.7808323    3.7324685    0.0989331 
C     2.0475846    4.3611124    0.0356921 
C     2.4505476    5.2460313    1.0407005 
H     1.9226305    6.2127017    2.9110496 
H    -0.3462413    5.1591537    3.0168784 
H    -1.0732741    3.5914167    1.2216460 
H     2.7110824    4.1741921   -0.8142011 
H     3.4288970    5.7324970    0.9755286 
C     2.5891016   -1.2339166   -5.6002462 
C     3.1029104   -0.9999938   -4.3134700 
C     2.4159559   -0.1690299   -3.4224203 
C     1.1920946    0.4392250   -3.7944382 
C     0.6963628    0.2054131   -5.0979057 
C     1.3882798   -0.6221094   -5.9915841 
H     3.1272404   -1.8848706   -6.2966558 
H     4.0419812   -1.4704568   -4.0044155 
H     2.8181693   -0.0046674   -2.4150552 
H    -0.2314375    0.6946328   -5.4161605 
H     0.9916850   -0.7860407   -6.9988465 
C    -0.1358505   -0.2981866    2.7504163 
C     2.2575892    1.3145576    1.9880556 
C    -2.1125213   -0.8868941   -3.2720282 
C    -2.6223569   -1.6808541   -0.4861024 
C    -0.9003638    0.9956082    3.1292263 
C     0.3002734   -0.9414867    4.1064130 
C     3.5007116    1.5151774    1.0816892 
C     2.8556508    1.2669501    3.4115302 
C    -2.9621729    0.4235026   -3.2016640 
C    -3.0764483   -1.9880809   -3.8220279 
C    -3.1224838   -0.3926998    0.2106428 
C    -2.2968790   -2.6245030    0.6974676 
C    -1.5806962    0.6066721    4.4524173 
C    -0.4715419   -0.1552115    5.2028567 
C     4.5047796    2.3348250    1.9464650 
C     3.8760676    2.4205513    3.3615838 
C    -4.4225454   -0.0329772   -3.3805451 
C    -4.2962356   -1.2118078   -4.3586726 
C    -3.9850111   -0.9239395    1.3707698 
C    -3.2957047   -2.2376035    1.8268202 
C     2.2688656   -1.5607452    1.5423052 
C    -0.4371080   -2.9754099   -2.1935524 
C     1.6276117   -2.7714021    0.9189809 
C     0.3207636   -3.5193673   -1.0085148 
C     1.2537000   -2.6536504   -0.4248814 
C     1.2363246   -3.9232696    1.6264969 
C    -0.0253664   -4.6933128   -0.3147444 
C     0.4736738   -4.9110713    0.9796417 
H    -0.8598356   -0.9776274    2.2723709 
H     1.6381818    2.2272317    1.9196977 
H    -1.2794506   -0.7536857   -3.9813346 
H    -3.4515241   -2.1155957   -1.0754991 
H    -1.6053818    1.3143695    2.3425742 
H    -0.1996449    1.8330390    3.3034631 
H     1.3871561   -0.8897421    4.2782427 
H     0.0341851   -2.0121506    4.1034972 
H     3.9475738    0.5430697    0.8085243 
H     3.2362038    2.0170605    0.1381265 
H     2.1012057    1.3955215    4.2050024 
H     3.3737181    0.3054599    3.5875816 
H    -2.7923393    1.0047465   -2.2781985 
H    -2.6805063    1.0803069   -4.0452772 
H    -2.5863497   -2.6117591   -4.5878408 
H    -3.4067768   -2.6710690   -3.0172436 
H    -3.6811202    0.2824642   -0.4573633 
H    -2.2461600    0.1704021    0.5898996 
H    -1.2535453   -2.4735406    1.0276677 
H    -2.3787988   -3.6821549    0.4083801 
H    -2.4369451   -0.0628708    4.2467438 
H    -1.9668395    1.4752921    5.0124434 
H     0.2058117    0.5707298    5.6887483 
H    -0.8611155   -0.8128596    5.9973699 
H     4.6776295    3.3380100    1.5233220 
H     5.4838019    1.8276186    1.9778411 
H     4.6248310    2.3634182    4.1691744 
H     3.3364338    3.3779555    3.4761815 
H    -5.0807070    0.7745339   -3.7428019 
H    -4.8353879   -0.3879515   -2.4166654 
H    -5.2041832   -1.8353299   -4.4197433 
H    -4.0864863   -0.8310334   -5.3757687 
H    -5.0029452   -1.1359497    0.9988019 
H    -4.0881864   -0.1867739    2.1852194 
H    -2.7629511   -2.1033170    2.7841742 
H    -4.0369122   -3.0363531    1.9941879 
H     3.1939061   -1.2841657    1.0063153 
H     2.5271717   -1.7141338    2.6024134 
H     0.2237504   -2.7094395   -3.0409524 
H    -1.2132000   -3.6674809   -2.5604204 
H     1.5787195   -1.7699004   -0.9899438 
H     1.5210949   -4.0472715    2.6770686 
H    -0.7274376   -5.4075080   -0.7593731 
H     0.2041769   -5.8258304    1.5174772 
