103
Energy =
C     1.6558614    0.9367736   -2.6054350 
C     1.0353721    2.0392320   -1.9894720 
C     1.5176012    2.4999423   -0.7175402 
H     0.1284251    2.4731365   -2.4262258 
Pd    0.7700070    0.4147026   -0.5242981 
P     1.6416328    0.1443882    1.7503737 
P    -0.7558931   -1.3569413   -1.2327953 
H     2.6215859    0.6087465   -2.1902058 
H     2.5980097    2.4390081   -0.5475861 
C     0.6097199   -0.9269293   -6.3236795 
C     1.4528219   -1.5787244   -5.4081071 
C     1.8097444   -0.9434265   -4.2147820 
C     1.3109300    0.3443342   -3.9015538 
C     0.5014792    1.0072307   -4.8538771 
C     0.1510551    0.3727605   -6.0506112 
H     0.3304517   -1.4209427   -7.2597959 
H     1.8350159   -2.5802135   -5.6300730 
H     2.4704470   -1.4479745   -3.5004797 
H     0.1648267    2.0315043   -4.6668539 
H    -0.4737664    0.8973129   -6.7805501 
C    -0.5374084    5.4719040    1.6213082 
C    -1.2650338    4.6265136    0.7667042 
C    -0.6032506    3.6663353   -0.0041705 
C     0.8045795    3.5270104    0.0622893 
C     1.5238812    4.3956612    0.9165677 
C     0.8599681    5.3565891    1.6889403 
H    -1.0573352    6.2212011    2.2267113 
H    -2.3548778    4.7138533    0.7082396 
H    -1.1851981    2.9927970   -0.6430485 
H     2.6170156    4.3271527    0.9567610 
H     1.4347476    6.0231870    2.3400472 
C    -1.6923527   -0.8520898   -2.7632447 
C    -1.9746654   -1.7692881    0.1192340 
C     0.4768809    0.5131783    3.1520521 
C     3.0747810    1.3042315    2.0898503 
C    -2.2236994    0.6233430   -2.7341340 
C    -2.9001445   -1.7151121   -3.2162750 
C    -2.9226406   -3.0129661   -0.0181654 
C    -2.9022071   -0.5845607    0.5034097 
C    -0.5299787   -0.6085096    3.4936448 
C    -0.4271563    1.7311640    2.8800100 
C     4.2531720    1.1287989    1.0790732 
C     3.7242613    1.1749761    3.5126094 
C    -3.6716919    0.5529913   -3.2776164 
C    -3.6996855   -0.7453043   -4.1027824 
C    -4.3343656   -2.4972864    0.3486058 
C    -4.0655451   -1.2706097    1.2369279 
C    -1.6832640    0.1119659    4.2504896 
C    -1.4881333    1.6350680    3.9939333 
C     5.5345409    1.3012095    1.9183881 
C     5.1627581    0.6769396    3.2709922 
C    -0.0086972   -3.0396979   -1.6613133 
C     2.4481884   -1.5099651    2.2194205 
C     0.5651142   -3.5271174   -0.3520785 
C     1.7187552   -2.6921816    1.6398937 
C     1.5159461   -2.6927679    0.2542577 
C    -0.0054082   -4.5582309    0.4169124 
C     1.1132229   -3.7033482    2.4083090 
C     0.3077748   -4.6682378    1.7816153 
H    -0.9190648   -0.9193320   -3.5496257 
H    -1.2930615   -1.9631528    0.9676830 
H     1.1035964    0.7166943    4.0412061 
H     2.6282469    2.3064800    1.9833397 
H    -1.5975986    1.2415452   -3.3958751 
H    -2.1702133    1.0793576   -1.7302679 
H    -3.5270292   -1.9999970   -2.3556210 
H    -2.5898970   -2.6407111   -3.7296496 
H    -2.8941586   -3.4893853   -1.0113672 
H    -2.5968593   -3.7774792    0.7045540 
H    -2.3785210    0.1846094    1.0950705 
H    -3.3021216   -0.0919396   -0.3992438 
H    -0.9047570   -1.0642733    2.5613825 
H    -0.0720568   -1.4213344    4.0804377 
H     0.1137021    2.6921806    2.8707381 
H    -0.8934987    1.6153467    1.8833801 
H     4.2032487    1.8484659    0.2455990 
H     4.2356711    0.1207937    0.6207537 
H     3.1639522    0.5196905    4.2012708 
H     3.7427125    2.1738920    3.9828500 
H    -3.9488275    1.4498589   -3.8564448 
H    -4.3907586    0.4694626   -2.4409602 
H    -4.7198463   -1.1038581   -4.3217623 
H    -3.1792218   -0.5973736   -5.0681046 
H    -4.9496874   -3.2703477    0.8381749 
H    -4.8771204   -2.1766264   -0.5610513 
H    -4.9437833   -0.6147365    1.3620091 
H    -3.7411264   -1.5942230    2.2442650 
H    -1.6467816   -0.1123815    5.3295001 
H    -2.6637980   -0.2397022    3.8888254 
H    -2.4254703    2.1467737    3.7176484 
H    -1.1095446    2.1298124    4.9056091 
H     5.7518358    2.3778909    2.0504837 
H     6.4189284    0.8415178    1.4458025 
H     5.1800137   -0.4265991    3.1941390 
H     5.8495954    0.9565681    4.0873369 
H    -0.7840183   -3.7081395   -2.0711437 
H     0.7517371   -2.8654645   -2.4421986 
H     2.5178981   -1.5548429    3.3192375 
H     3.4767749   -1.4532590    1.8217350 
H     1.9995897   -1.9146067   -0.3512783 
H    -0.7274574   -5.2445520   -0.0375805 
H     1.2623917   -3.7328542    3.4931506 
H    -0.1317910   -5.4764860    2.3751713 
