103
Energy =
C     0.4611844    2.9508370   -0.8552094 
C     1.1778809    2.2176569   -1.8103512 
C     0.4864518    1.2942999   -2.6770638 
H     2.2723290    2.2848160   -1.8447500 
Pd    0.3127173    0.5392240   -0.6393327 
P    -1.0526449   -1.2809242   -1.4123884 
P     1.2068583    0.1970879    1.6198767 
H    -0.6372266    2.9004419   -0.9058461 
H    -0.5172695    1.5923405   -3.0020437 
C     1.9725651    5.8405633    1.9299324 
C     0.6749154    5.3210886    2.0704086 
C     0.1870490    4.3997643    1.1390484 
C     0.9938631    3.9611908    0.0598712 
C     2.2833609    4.5269668   -0.0922833 
C     2.7671818    5.4523877    0.8379047 
H     2.3558986    6.5644000    2.6562955 
H     0.0427504    5.6402966    2.9052235 
H    -0.8226238    3.9914082    1.2506684 
H     2.8990746    4.2604527   -0.9568564 
H     3.7646867    5.8837274    0.7061732 
C     2.5157608   -1.4251113   -5.3348192 
C     3.1067003   -1.0697509   -4.1104625 
C     2.4652058   -0.1681426   -3.2547081 
C     1.2121424    0.3947954   -3.5995044 
C     0.6406527    0.0411844   -4.8433126 
C     1.2845257   -0.8602267   -5.7009747 
H     3.0171205   -2.1329632   -6.0024772 
H     4.0696683   -1.5024520   -3.8204982 
H     2.9286580    0.0868898   -2.2944776 
H    -0.3105965    0.4938376   -5.1459816 
H     0.8264607   -1.1178603   -6.6614854 
C     0.1320815    0.2685026    3.1357085 
C     2.4671575    1.5391265    1.9209889 
C    -2.1909047   -0.8067511   -2.8136345 
C    -2.0557172   -1.9697423   -0.0032890 
C    -0.6964488   -0.9968480    3.4430716 
C    -0.9137093    1.4152681    3.0725412 
C     3.6318808    1.4853574    0.8742929 
C     3.1529326    1.5650507    3.3161312 
C    -2.9131353    0.5800103   -2.6629963 
C    -3.3104849   -1.8136474   -3.2000022 
C    -2.8349607   -3.3250442   -0.1397717 
C    -3.0945057   -0.9468212    0.5302471 
C    -1.7318895   -0.4732524    4.4540812 
C    -2.1339717    0.9176590    3.9080193 
C     4.9347220    1.4548545    1.7063099 
C     4.5446647    2.1524953    3.0199009 
C    -4.4004940    0.3094976   -2.9879434 
C    -4.3593787   -0.9301642   -3.8971265 
C    -4.2622779   -3.0317093    0.3826623 
C    -4.0812779   -1.8227248    1.3178262 
C     2.2812577   -1.3453335    1.9013884 
C    -0.0726080   -2.7501482   -2.0807424 
C     1.7259480   -2.5525025    1.1903023 
C     0.6275991   -3.3069658   -0.8634897 
C     1.4775193   -2.4227486   -0.1823271 
C     1.3024633   -3.7263374    1.8407544 
C     0.2420569   -4.4953564   -0.2161449 
C     0.6233330   -4.7202643    1.1166309 
H     0.8154595    0.4407085    3.9884141 
H     1.9100012    2.4810883    1.7881244 
H    -1.4843795   -0.7427891   -3.6598759 
H    -1.2742321   -2.1085707    0.7662134 
H    -0.0851903   -1.8285397    3.8309957 
H    -1.1985085   -1.3590998    2.5293931 
H    -1.2065172    1.5954490    2.0201403 
H    -0.4915212    2.3610686    3.4510673 
H     3.5526469    0.6278461    0.1796338 
H     3.5981615    2.3945258    0.2537278 
H     2.5759655    2.1523484    4.0497842 
H     3.2708323    0.5452212    3.7280816 
H    -2.7652267    1.0381654   -1.6686584 
H    -2.4961659    1.2899265   -3.3989927 
H    -2.9355284   -2.6427784   -3.8233314 
H    -3.7701987   -2.2521701   -2.2999297 
H    -2.3400279   -4.0716318    0.5006430 
H    -2.8343713   -3.7396846   -1.1607127 
H    -3.6375694   -0.4717870   -0.3045606 
H    -2.6236544   -0.1409281    1.1168916 
H    -1.2522044   -0.3706905    5.4446361 
H    -2.5930098   -1.1518287    4.5767178 
H    -3.0259969    0.8318985    3.2634438 
H    -2.3945017    1.6190444    4.7175851 
H     5.7809849    1.9337075    1.1856278 
H     5.2301343    0.4096939    1.9181667 
H     5.2658334    1.9854240    3.8379485 
H     4.4630725    3.2442354    2.8592152 
H    -4.8963170    1.1804820   -3.4476755 
H    -4.9577106    0.0671508   -2.0631650 
H    -5.3369893   -1.4301054   -4.0040184 
H    -4.0136192   -0.6509726   -4.9106430 
H    -4.7160578   -3.9069969    0.8764831 
H    -4.9295697   -2.7476271   -0.4532944 
H    -5.0254455   -1.3033701    1.5543005 
H    -3.6252713   -2.1425460    2.2744014 
H     3.2831756   -1.0863433    1.5152351 
H     2.3763320   -1.5075845    2.9881314 
H     0.6179006   -2.3504666   -2.8457094 
H    -0.7556242   -3.4728192   -2.5580667 
H     1.8221182   -1.5194307   -0.7031439 
H     1.4937718   -3.8611029    2.9110803 
H    -0.3965803   -5.2186607   -0.7340047 
H     0.3284461   -5.6491466    1.6157338 
