103
Energy =
C     0.1538762    2.8327913   -0.9527867 
C     0.9154151    2.1213796   -1.8899262 
C     0.2996005    1.1426967   -2.7557765 
H     2.0054763    2.2425346   -1.9089262 
Pd    0.1147495    0.4504572   -0.6789071 
P    -1.3425641   -1.3727157   -1.2570624 
P     1.1685538    0.1809120    1.5323934 
H    -0.9408536    2.7327518   -1.0078240 
H    -0.6993972    1.3761349   -3.1444816 
C     1.5417636    5.7972093    1.8163303 
C     0.2809287    5.1996402    1.9804278 
C    -0.1705423    4.2562311    1.0528093 
C     0.6392705    3.8729059   -0.0444930 
C     1.8890592    4.5158939   -0.2202978 
C     2.3355566    5.4641469    0.7054778 
H     1.8959362    6.5387601    2.5396530 
H    -0.3512979    5.4752310    2.8305480 
H    -1.1513885    3.7872216    1.1821366 
H     2.5004153    4.2909297   -1.0995945 
H     3.3017401    5.9565526    0.5557399 
C     2.7345566   -1.3654669   -5.2859876 
C     3.1483956   -1.0748956   -3.9757964 
C     2.3663999   -0.2506161   -3.1597592 
C     1.1439553    0.2907077   -3.6259232 
C     0.7532571    0.0040960   -4.9535347 
C     1.5395310   -0.8143345   -5.7740130 
H     3.3452592   -2.0104281   -5.9258368 
H     4.0832874   -1.4932752   -3.5890940 
H     2.6978757   -0.0323167   -2.1379723 
H    -0.1669602    0.4440931   -5.3511344 
H     1.2204764   -1.0184467   -6.8012619 
C     0.2547107    0.2235860    3.1523094 
C     2.4132238    1.5608542    1.7337523 
C    -2.7415212   -1.0099406   -2.4451033 
C    -2.2136459   -2.0563132    0.2388526 
C    -0.4942138   -1.0605587    3.5658030 
C    -0.8185469    1.3441964    3.2111503 
C     3.5040604    1.5393358    0.6100614 
C     3.1958756    1.6101561    3.0781419 
C    -2.3819615   -1.1721970   -3.9583499 
C    -3.3777447    0.3983675   -2.3219795 
C    -3.1505011   -3.2708820    0.0697643 
C    -3.1223706   -1.0383099    0.9638093 
C    -1.4033798   -0.5493406    4.6980374 
C    -1.9117431    0.8225474    4.1946031 
C     4.8606285    1.5063856    1.3488508 
C     4.5593647    2.2059712    2.6839510 
C    -3.0623332    0.0207785   -4.6834756 
C    -4.0838888    0.5789056   -3.6762325 
C    -3.8062643   -3.3702691    1.4638056 
C    -3.9387513   -1.9010909    1.9658754 
C     2.2997465   -1.3367223    1.7091292 
C    -0.4368138   -2.8792452   -1.9665273 
C     1.6736548   -2.5689659    1.1067868 
C     0.3726236   -3.3945245   -0.7988389 
C     1.2834374   -2.4880602   -0.2363345 
C     1.3204577   -3.7178189    1.8382533 
C     0.0551507   -4.5574714   -0.0715729 
C     0.5682408   -4.7334036    1.2238991 
H     1.0245949    0.4186830    3.9218992 
H     1.8182459    2.4844905    1.6397196 
H    -3.5182570   -1.7543087   -2.1922419 
H    -1.3859539   -2.3467697    0.9154281 
H     0.1843678   -1.8692702    3.8826690 
H    -1.0954585   -1.4493504    2.7263091 
H    -1.2433082    1.5103022    2.2031042 
H    -0.3766398    2.3032302    3.5296199 
H     3.3848041    0.6957227   -0.0950328 
H     3.4225332    2.4611146    0.0125926 
H     2.6651967    2.1994526    3.8442773 
H     3.3524100    0.5960015    3.4913363 
H    -1.2944835   -1.1753338   -4.1308758 
H    -2.7583953   -2.1405675   -4.3276668 
H    -4.0595116    0.4870842   -1.4606040 
H    -2.5906463    1.1655276   -2.1905052 
H    -2.6267157   -4.1930819   -0.2247221 
H    -3.9176030   -3.0587363   -0.6990709 
H    -3.8060930   -0.5691383    0.2364634 
H    -2.5505170   -0.2247185    1.4383451 
H    -0.8000879   -0.4189987    5.6151325 
H    -2.2204889   -1.2485958    4.9441085 
H    -2.8724611    0.7031754    3.6644965 
H    -2.0919457    1.5256266    5.0243017 
H     5.6697051    1.9834350    0.7706045 
H     5.1675268    0.4608063    1.5415670 
H     5.3363175    2.0460822    3.4507263 
H     4.4608222    3.2966807    2.5259175 
H    -3.5181081   -0.2747019   -5.6427622 
H    -2.3144473    0.8024287   -4.9142219 
H    -4.3699599    1.6249493   -3.8787335 
H    -5.0095609   -0.0262773   -3.6931905 
H    -3.1401967   -3.9417016    2.1340693 
H    -4.7719033   -3.9016079    1.4349795 
H    -4.9900379   -1.5703585    2.0000998 
H    -3.5423281   -1.8014608    2.9897995 
H     3.2371344   -1.0761566    1.1859219 
H     2.5393319   -1.4673619    2.7776808 
H     0.1906331   -2.5163255   -2.8000736 
H    -1.1638551   -3.6124609   -2.3537476 
H     1.5759799   -1.6072172   -0.8222221 
H     1.6231880   -3.8177244    2.8864057 
H    -0.6208855   -5.3060335   -0.4985996 
H     0.3272310   -5.6432872    1.7831470 
