103
Energy =
C     1.6695897    0.9304851   -2.7462178 
C     1.0052154    1.9815284   -2.0908776 
C     1.4340906    2.3593731   -0.7674583 
H     0.1065119    2.4267888   -2.5344058 
Pd    0.7065964    0.2815444   -0.7290572 
P     1.4887583   -0.1597418    1.5407466 
P    -0.9150143   -1.3593658   -1.5648615 
H     2.6206788    0.5892488   -2.3089408 
H     2.5126599    2.3375644   -0.5695191 
C     0.7828040   -0.7629420   -6.5820581 
C     1.5624281   -1.4699734   -5.6505956 
C     1.8684050   -0.8910490   -4.4153656 
C     1.3792664    0.3951043   -4.0787745 
C     0.6254651    1.1094346   -5.0387029 
C     0.3296605    0.5316806   -6.2784111 
H     0.5464070   -1.2122007   -7.5519728 
H     1.9349181   -2.4703555   -5.8931885 
H     2.4714218   -1.4424493   -3.6847013 
H     0.2873135    2.1268508   -4.8196726 
H    -0.2504640    1.0954432   -7.0159813 
C    -0.8481333    4.9910507    1.7629101 
C    -1.5046000    4.1695300    0.8311553 
C    -0.7669787    3.3271587   -0.0062405 
C     0.6469391    3.2833966    0.0704024 
C     1.2932447    4.1312838    1.0005571 
C     0.5535108    4.9733974    1.8394677 
H    -1.4265098    5.6485767    2.4198046 
H    -2.5973626    4.1824216    0.7628602 
H    -1.2915810    2.6714303   -0.7094955 
H     2.3879008    4.1396067    1.0498080 
H     1.0723544    5.6250158    2.5501121 
C    -1.6429239   -0.8839623   -3.2190751 
C    -2.4043418   -1.4376426   -0.4330685 
C     0.1169604   -0.1891141    2.7969013 
C     2.7201843    1.0965289    2.1540583 
C    -2.2970975    0.5353412   -3.2348236 
C    -2.7272537   -1.8592942   -3.7778710 
C    -2.7634659   -0.0583249    0.1690685 
C    -2.2659563   -2.3460205    0.8144089 
C    -0.4882022    1.2120879    3.0730788 
C     0.3738236   -0.8273721    4.2002301 
C     4.0762185    1.1156804    1.4112829 
C     3.1697268    1.0600147    3.6330874 
C    -3.7927811    0.2889146   -3.5100879 
C    -3.7736836   -0.9382590   -4.4361355 
C    -3.7439487   -0.4056139    1.3042778 
C    -3.2485506   -1.7621093    1.8712500 
C    -1.2871577    0.9805438    4.3660371 
C    -0.3401863    0.1096805    5.2140601 
C     4.9030913    2.1417939    2.2193262 
C     4.3513956    2.0650348    3.6763025 
C    -0.3747899   -3.1430287   -1.9106603 
C     2.4385702   -1.7783263    1.7774432 
C     0.2949696   -3.6744299   -0.6663911 
C     1.6575356   -2.9434006    1.2311797 
C     1.3181251   -2.8844987   -0.1258929 
C    -0.2032620   -4.7384441    0.1075905 
C     1.1145299   -3.9782438    2.0151802 
C     0.2437160   -4.9117444    1.4274344 
H    -0.7727724   -0.8903743   -3.8950993 
H    -3.2551404   -1.7942279   -1.0436638 
H    -0.6564562   -0.7879677    2.2901106 
H     2.2153366    2.0640202    1.9777916 
H    -1.8601570    1.1168133   -4.0640578 
H    -2.1084323    1.1102432   -2.3115555 
H    -3.2104741   -2.4331981   -2.9649143 
H    -2.2926788   -2.5944471   -4.4750027 
H    -1.8434382    0.4119229    0.5692882 
H    -3.1972040    0.6430646   -0.5618044 
H    -2.4809310   -3.3980547    0.5761347 
H    -1.2279094   -2.3200366    1.1909883 
H     0.3036667    1.9616264    3.2552641 
H    -1.0932553    1.5875797    2.2320223 
H    -0.0470821   -1.8470496    4.2164127 
H     1.4440001   -0.9274935    4.4414749 
H     3.9976089    1.3663795    0.3398313 
H     4.5509863    0.1192815    1.4741897 
H     3.5239233    0.0467651    3.8963601 
H     2.3640086    1.3231152    4.3367463 
H    -4.2963331    1.1664937   -3.9494634 
H    -4.3231993    0.0399920   -2.5707726 
H    -4.7583552   -1.4228818   -4.5485568 
H    -3.4321795   -0.6384753   -5.4447437 
H    -4.7602753   -0.5147872    0.8858267 
H    -3.7941184    0.3883615    2.0687086 
H    -2.7373933   -1.6308629    2.8406607 
H    -4.0919362   -2.4477751    2.0550799 
H    -2.2163313    0.4261940    4.1354911 
H    -1.5780176    1.9201167    4.8657160 
H     0.4036429    0.7574284    5.7128577 
H    -0.8622807   -0.4499145    6.0078214 
H     4.7525599    3.1539853    1.8040190 
H     5.9837477    1.9319581    2.1618837 
H     5.1206412    1.7458549    4.3986079 
H     3.9955623    3.0556715    4.0068639 
H    -1.2433516   -3.7488846   -2.2190869 
H     0.3130191   -3.0648811   -2.7737560 
H     2.6768369   -1.8894122    2.8480468 
H     3.3884292   -1.6441661    1.2303168 
H     1.7560096   -2.0887054   -0.7429364 
H    -0.9808432   -5.3950997   -0.2982984 
H     1.3661087   -4.0531209    3.0787014 
H    -0.1462839   -5.7406797    2.0269780 
