103
Energy =
C     1.5208616    1.1323064   -2.5582799 
C     0.8341618    2.1395561   -1.8517256 
C     1.3241530    2.5550455   -0.5707249 
H    -0.1192751    2.5258402   -2.2320032 
Pd    0.7458161    0.3944391   -0.5227047 
P     1.6794687    0.0711451    1.7508048 
P    -0.7069143   -1.4030234   -1.3214159 
H     2.5285097    0.8691864   -2.2008994 
H     2.4120996    2.5591723   -0.4354580 
C     0.5594899   -0.4868859   -6.4109537 
C     1.4670691   -1.1452888   -5.5641720 
C     1.7887225   -0.5919649   -4.3209296 
C     1.1884728    0.6160594   -3.8894638 
C     0.2923358    1.2791038   -4.7603051 
C    -0.0145359    0.7312537   -6.0108107 
H     0.3127174   -0.9137601   -7.3883072 
H     1.9292887   -2.0859438   -5.8801600 
H     2.4960057   -1.1040421   -3.6584312 
H    -0.1536064    2.2338404   -4.4656565 
H    -0.6996034    1.2596212   -6.6814084 
C    -0.8819726    5.1985936    2.0121440 
C    -1.5677846    4.3319826    1.1442465 
C    -0.8566117    3.4787884    0.2954342 
C     0.5595962    3.4695256    0.2960068 
C     1.2347599    4.3584067    1.1649575 
C     0.5214725    5.2126546    2.0149214 
H    -1.4399248    5.8643631    2.6783148 
H    -2.6626270    4.3180737    1.1364080 
H    -1.4027208    2.7859167   -0.3542420 
H     2.3302329    4.3927882    1.1554518 
H     1.0621015    5.8972859    2.6765030 
C    -1.5835745   -1.0649668   -2.9325022 
C    -1.9910421   -1.6068125    0.0034829 
C     0.6028680    0.2506748    3.2567395 
C     3.0102761    1.3470868    2.0636403 
C    -2.5794666    0.1197591   -2.9427516 
C    -2.3430100   -2.2513824   -3.6197597 
C    -3.2464018   -2.4740493   -0.2454862 
C    -2.5361188   -0.2363147    0.5257328 
C    -0.4148540   -0.8972762    3.5081754 
C    -0.2474022    1.5380470    3.2581279 
C     4.1858150    1.2553549    1.0306647 
C     3.6814757    1.3194763    3.4704499 
C    -3.3239826   -0.0882151   -4.2713314 
C    -3.5946998   -1.6050742   -4.2774256 
C    -4.1671652   -2.0348631    0.9064415 
C    -4.0227558   -0.4999586    0.8949743 
C    -1.6343320   -0.2252181    4.2120388 
C    -1.2595250    1.2668197    4.3840689 
C     5.4541179    1.0056279    1.8742450 
C     5.1437760    1.7208469    3.1986395 
C    -0.0208116   -3.1427839   -1.5940850 
C     2.6438324   -1.5286355    2.0984944 
C     0.5572886   -3.5655415   -0.2706917 
C     1.8738119   -2.7250171    1.6111827 
C     1.5797318   -2.7579271    0.2432625 
C    -0.0438281   -4.5138046    0.5781618 
C     1.2794260   -3.6844964    2.4507874 
C     0.3607077   -4.6043593    1.9201192 
H    -0.7541961   -0.7884362   -3.6035845 
H    -1.4155722   -2.0826018    0.8208954 
H     1.3030870    0.2920318    4.1123758 
H     2.4833479    2.3073102    1.9465241 
H    -2.0729315    1.0973679   -2.8596467 
H    -3.2997482    0.0433687   -2.1092157 
H    -2.6375145   -3.0442913   -2.9138983 
H    -1.6839485   -2.7223512   -4.3678723 
H    -3.7236135   -2.2184680   -1.2081490 
H    -3.0220220   -3.5540395   -0.2530924 
H    -1.9453334    0.0946288    1.3920612 
H    -2.4442387    0.5641286   -0.2270463 
H    -0.7146060   -1.3755423    2.5598625 
H     0.0360664   -1.6927570    4.1216198 
H     0.3471750    2.4548621    3.4091286 
H    -0.7666078    1.6476538    2.2885710 
H     4.2826457    2.2175620    0.4959425 
H     4.0233066    0.4824946    0.2554559 
H     3.6645039    0.3043293    3.9074286 
H     3.1678080    1.9868232    4.1823215 
H    -2.6617390    0.1868611   -5.1126189 
H    -4.2423963    0.5175200   -4.3530056 
H    -4.4901628   -1.8190278   -3.6656758 
H    -3.7912437   -2.0036949   -5.2864665 
H    -3.7905557   -2.4492301    1.8608647 
H    -5.2095614   -2.3744662    0.7834896 
H    -4.6851703   -0.0747918    0.1189600 
H    -4.3079626   -0.0321094    1.8522255 
H    -1.8669809   -0.7056835    5.1766073 
H    -2.5370279   -0.3254256    3.5852396 
H    -2.1337102    1.9385624    4.3418984 
H    -0.7700434    1.4276358    5.3621291 
H     6.3710861    1.3662425    1.3788501 
H     5.5848185   -0.0774329    2.0596463 
H     5.8241959    1.4420025    4.0209257 
H     5.2182532    2.8164995    3.0620609 
H    -0.8244070   -3.8105136   -1.9434905 
H     0.7368106   -3.0585497   -2.3943229 
H     2.8553565   -1.5713507    3.1800265 
H     3.6059611   -1.4239666    1.5660374 
H     2.0614863   -2.0270111   -0.4192934 
H    -0.8427575   -5.1609129    0.1994454 
H     1.5111697   -3.6966189    3.5213682 
H    -0.0889431   -5.3596482    2.5728800 
