103
Energy =
C     1.4686918    1.1348717   -2.5355505 
C     0.7780185    2.1294589   -1.8153422 
C     1.2784283    2.5512979   -0.5415086 
H    -0.1823407    2.5080450   -2.1857237 
Pd    0.7251116    0.3757898   -0.4906585 
P     1.6938906    0.0441938    1.7650169 
P    -0.7452961   -1.4183375   -1.2684148 
H     2.4803145    0.8754204   -2.1868699 
H     2.3669382    2.5558622   -0.4157136 
C     0.5088004   -0.4309936   -6.4100273 
C     1.4326535   -1.0896362   -5.5811502 
C     1.7523313   -0.5546030   -4.3296035 
C     1.1340113    0.6345495   -3.8717085 
C     0.2193460    1.2970998   -4.7242192 
C    -0.0849873    0.7685492   -5.9830116 
H     0.2638202   -0.8432053   -7.3940969 
H     1.9086575   -2.0161339   -5.9176829 
H     2.4713516   -1.0674003   -3.6805158 
H    -0.2439565    2.2364115   -4.4076733 
H    -0.7857194    1.2952807   -6.6384733 
C    -0.8724512    5.2477621    2.0303012 
C    -1.5771458    4.3938948    1.1647045 
C    -0.8849817    3.5208910    0.3203786 
C     0.5305053    3.4776952    0.3248774 
C     1.2250306    4.3518585    1.1933478 
C     0.5309699    5.2274275    2.0371116 
H    -1.4157445    5.9299914    2.6919209 
H    -2.6719773    4.4064494    1.1544752 
H    -1.4463316    2.8390464   -0.3276671 
H     2.3210804    4.3562938    1.1888832 
H     1.0862536    5.9007813    2.6981099 
C    -1.5866929   -1.0885888   -2.9017578 
C    -2.0333805   -1.5375391    0.0631220 
C     0.6219034    0.3138026    3.2629587 
C     3.1023693    1.2525349    2.0293036 
C    -2.6319123    0.0493895   -2.9330981 
C    -2.3088924   -2.2470915   -3.6304245 
C    -3.2900849   -2.4164265   -0.1305686 
C    -2.5687256   -0.1415793    0.5218919 
C    -0.4318334   -0.7971917    3.5357484 
C    -0.1912638    1.6229445    3.2336306 
C     4.2096757    1.1209346    0.9343482 
C     3.8557841    1.1414426    3.3999201 
C    -3.3046990   -0.0870473   -4.3264805 
C    -2.9692281   -1.5234865   -4.8257209 
C    -4.2025589   -1.9152860    1.0026199 
C    -4.0526960   -0.3830476    0.9174583 
C    -1.6322821   -0.0743343    4.2210413 
C    -1.2114085    1.4079981    4.3638506 
C     5.5401877    1.3410919    1.6805608 
C     5.2890934    0.6948664    3.0509574 
C    -0.1441314   -3.1983531   -1.4770133 
C     2.5749085   -1.5889286    2.1777150 
C     0.4138485   -3.6054085   -0.1398413 
C     1.7581501   -2.7666067    1.7228396 
C     1.4639326   -2.8225351    0.3557015 
C    -0.2205744   -4.5110345    0.7309736 
C     1.1299859   -3.6836030    2.5849355 
C     0.1798950   -4.5831797    2.0752933 
H    -0.7462600   -0.7895259   -3.5522411 
H    -1.4551562   -1.9737749    0.9004661 
H     1.3192204    0.3547715    4.1209327 
H     2.6163260    2.2396461    1.9622820 
H    -2.1812898    1.0431334   -2.7647080 
H    -3.3840282   -0.1074229   -2.1411535 
H    -3.0738118   -2.7073018   -2.9802114 
H    -1.6208755   -3.0452062   -3.9540840 
H    -3.7711545   -2.2177401   -1.1044995 
H    -3.0645690   -3.4947046   -0.0789158 
H    -1.9681720    0.2301178    1.3657300 
H    -2.4841379    0.6196915   -0.2708434 
H    -0.7441115   -1.2840877    2.5959310 
H    -0.0080729   -1.5942256    4.1662040 
H     0.4275853    2.5262816    3.3625204 
H    -0.7090630    1.7215514    2.2624753 
H     4.0699194    1.8351477    0.1059269 
H     4.1972362    0.1115534    0.4793174 
H     3.3692947    0.4655509    4.1238739 
H     3.8732117    2.1388927    3.8733709 
H    -2.9110636    0.6682639   -5.0267532 
H    -4.3918506    0.0821691   -4.2529494 
H    -3.8557657   -2.0634903   -5.1972411 
H    -2.2461000   -1.4714817   -5.6580874 
H    -3.8220461   -2.2847002    1.9737997 
H    -5.2470679   -2.2559296    0.9026834 
H    -4.7207928    0.0084175    0.1287975 
H    -4.3272221    0.1298473    1.8545789 
H    -1.8832138   -0.5282558    5.1938328 
H    -2.5350551   -0.1592050    3.5919895 
H    -2.0633882    2.1064865    4.3055406 
H    -0.7182983    1.5735698    5.3393614 
H     5.7241385    2.4248850    1.8055947 
H     6.4059440    0.9188367    1.1429074 
H     5.3366505   -0.4068749    2.9612867 
H     6.0238077    0.9914305    3.8181688 
H    -0.9861583   -3.8324100   -1.7987172 
H     0.6143925   -3.1860500   -2.2807954 
H     2.7747173   -1.5991469    3.2625171 
H     3.5456365   -1.5499495    1.6532397 
H     1.9716005   -2.1260730   -0.3236291 
H    -1.0400694   -5.1405129    0.3669031 
H     1.3605290   -3.6779055    3.6558536 
H    -0.2960594   -5.3066183    2.7452629 
