103
Energy =
C     0.0764793    2.7686608   -0.9750415 
C     0.8394293    2.1279033   -1.9629204 
C     0.2167417    1.1728500   -2.8481356 
H     1.9245959    2.2842652   -2.0093127 
Pd    0.1434137    0.3867668   -0.8024016 
P    -1.2981368   -1.4729713   -1.3494925 
P     1.1205839    0.0866627    1.4238241 
H    -1.0148324    2.6326505   -1.0203536 
H    -0.8070797    1.3939797   -3.1729074 
C     1.3523304    5.6966549    1.8854817 
C     0.1152736    5.0462539    2.0291388 
C    -0.2970465    4.1136390    1.0730278 
C     0.5284729    3.7937089   -0.0332179 
C     1.7523041    4.4893810   -0.1870140 
C     2.1596735    5.4274475    0.7671689 
H     1.6766453    6.4300158    2.6308319 
H    -0.5284144    5.2717739    2.8853332 
H    -1.2592436    3.6031725    1.1853430 
H     2.3733854    4.3140497   -1.0708491 
H     3.1062407    5.9610424    0.6344560 
C     2.5840443   -1.1062312   -5.6396681 
C     3.0261033   -0.9388418   -4.3170387 
C     2.2643751   -0.1912682   -3.4120719 
C     1.0370970    0.3940471   -3.8044921 
C     0.6124917    0.2260217   -5.1418674 
C     1.3793061   -0.5145304   -6.0501466 
H     3.1798160   -1.6899827   -6.3486694 
H     3.9674244   -1.3933447   -3.9911753 
H     2.6131677   -0.0692994   -2.3787895 
H    -0.3203765    0.6947043   -5.4741819 
H     1.0371086   -0.6274771   -7.0840336 
C    -0.0640900   -0.1239737    2.8442005 
C     2.2620070    1.5085654    1.8074757 
C    -2.6846797   -1.1868973   -2.5670089 
C    -2.1806186   -1.9870623    0.2063115 
C    -0.8443151    1.1629776    3.2039772 
C     0.4232898   -0.6300015    4.2189636 
C     3.3907489    1.6102293    0.7205696 
C     2.9990553    1.5245225    3.1760905 
C    -2.2934103   -1.4440560   -4.0450569 
C    -3.3159030    0.2446953   -2.5346322 
C    -3.1793406   -3.1628394    0.1688197 
C    -3.0342147   -0.8632447    0.8329054 
C    -1.5342397    0.8345615    4.5593635 
C    -0.8373615   -0.4515837    5.0921615 
C     4.7191837    1.6665451    1.5082637 
C     4.3131878    2.2630757    2.8657707 
C    -3.3083012   -0.5993855   -4.8334784 
C    -3.3998566    0.7014688   -4.0153422 
C    -3.8878643   -3.0692715    1.5461359 
C    -3.7512769   -1.5811565    1.9984956 
C     2.3121377   -1.3764746    1.5969219 
C    -0.4629801   -3.0623333   -1.9541384 
C     1.6645893   -2.6335763    1.0830363 
C     0.3303045   -3.5331421   -0.7600281 
C     1.2814543   -2.6302083   -0.2647443 
C     1.2582412   -3.7071897    1.8968578 
C    -0.0392692   -4.6260072    0.0474977 
C     0.4639383   -4.7318287    1.3540169 
H    -0.7815424   -0.8723419    2.4572410 
H     1.6289200    2.4087219    1.7395536 
H    -3.4600653   -1.9221536   -2.2850511 
H    -1.3591931   -2.2445972    0.9047743 
H    -1.5576987    1.4579501    2.4162951 
H    -0.1376879    2.0028677    3.3281735 
H     1.2453176    0.0009378    4.5981025 
H     0.7789681   -1.6729843    4.1940777 
H     3.3673757    0.7818921   -0.0116600 
H     3.2485322    2.5376374    0.1450206 
H     2.3971470    2.0065438    3.9644840 
H     3.2359993    0.5014100    3.5190467 
H    -1.2694521   -1.0858412   -4.2442405 
H    -2.3197938   -2.5155826   -4.3040194 
H    -4.3198019    0.1992403   -2.0803485 
H    -2.7236285    0.9443621   -1.9158145 
H    -2.6965890   -4.1376095    0.0029680 
H    -3.9118222   -3.0102027   -0.6454812 
H    -3.7758970   -0.5078760    0.0953373 
H    -2.4393133    0.0117591    1.1436061 
H    -2.6162231    0.6690960    4.4238090 
H    -1.4273052    1.6767956    5.2632541 
H    -0.5979632   -0.3948146    6.1668827 
H    -1.4994311   -1.3254556    4.9555320 
H     5.4962720    2.2479433    0.9842626 
H     5.1179973    0.6457164    1.6593996 
H     5.0769532    2.1310824    3.6509487 
H     4.1191854    3.3475409    2.7616217 
H    -4.2899505   -1.1089813   -4.8481981 
H    -3.0067848   -0.4341095   -5.8821504 
H    -2.5434020    1.3556923   -4.2656220 
H    -4.3127898    1.2834205   -4.2235733 
H    -3.3921742   -3.7379573    2.2703480 
H    -4.9398663   -3.3922773    1.4794478 
H    -4.7230157   -1.1156404    2.2321301 
H    -3.1368335   -1.5153198    2.9136922 
H     3.2039618   -1.1129527    1.0013828 
H     2.6203472   -1.4544011    2.6519129 
H     0.1665157   -2.7850003   -2.8184620 
H    -1.2281167   -3.7857709   -2.2819912 
H     1.6107978   -1.8045886   -0.9089405 
H     1.5558862   -3.7429815    2.9505288 
H    -0.7485637   -5.3712762   -0.3284118 
H     0.1829381   -5.5880069    1.9759004 
