103
Energy =
C     0.1287117    2.9709041   -0.3455910 
C     0.6389994    2.3541140   -1.4905393 
C    -0.1748126    1.4850692   -2.3027122 
H     1.6798825    2.5290885   -1.7907481 
Pd    0.2612710    0.3956017   -0.4877201 
P    -0.9638342   -1.5421804   -1.2892894 
P     1.3536760    0.0668934    1.7237893 
H    -0.9417969    2.8338008   -0.1361406 
H    -1.2582624    1.6786236   -2.2719472 
C     2.0542439    5.8816785    2.1481516 
C     0.7683938    5.4113043    2.4586476 
C     0.1479196    4.4737936    1.6277070 
C     0.8048750    3.9713112    0.4762442 
C     2.0844972    4.4928373    0.1536090 
C     2.7019482    5.4300593    0.9846677 
H     2.5427650    6.6151907    2.7975721 
H     0.2471473    5.7823140    3.3468697 
H    -0.8582495    4.1160470    1.8674946 
H     2.5922179    4.1754171   -0.7618556 
H     3.6898176    5.8212725    0.7213711 
C     1.3324849    0.2554647   -6.1475154 
C     2.0959588    0.0222199   -4.9906730 
C     1.6094416    0.4112058   -3.7375096 
C     0.3439503    1.0291189   -3.6163891 
C    -0.4122797    1.2590657   -4.7855839 
C     0.0811918    0.8805394   -6.0416423 
H     1.7139284   -0.0484511   -7.1275410 
H     3.0721005   -0.4677100   -5.0682945 
H     2.1981325    0.2124722   -2.8330743 
H    -1.3911009    1.7456805   -4.7078899 
H    -0.5152513    1.0704207   -6.9398986 
C     0.3176156    0.2315238    3.2620803 
C     2.5866502    1.4499577    1.8935852 
C    -1.9927328   -1.3381438   -2.8458003 
C    -2.0943059   -1.8457105    0.1585239 
C    -0.6037946   -0.9594642    3.6043569 
C    -0.6321466    1.4605068    3.2115313 
C     3.6632355    1.4010184    0.7567628 
C     3.3760650    1.5608382    3.2259594 
C    -3.3986247   -1.9798650   -2.9087553 
C    -1.3493671   -1.9003218   -4.1391980 
C    -3.0506263   -3.0842523    0.2066304 
C    -2.9754613   -0.6091776    0.4832453 
C    -1.5890153   -0.3388173    4.6092116 
C    -1.9050647    1.0503239    4.0125131 
C     5.0274271    1.5347460    1.4765831 
C     4.6863644    2.2461717    2.7973824 
C    -3.8075836   -1.7729400   -4.3873983 
C    -2.4715636   -1.7349399   -5.1904851 
C    -4.4264469   -2.5241663    0.6466385 
C    -4.0971083   -1.1976442    1.3557335 
C     2.4476327   -1.4334044    2.1161712 
C    -0.1176301   -3.2088168   -1.5625684 
C     1.7828718   -2.6884023    1.6201391 
C     0.5091458   -3.6023974   -0.2536046 
C     1.4650098   -2.7176835    0.2574885 
C     1.2962064   -3.7165419    2.4475993 
C     0.0233429   -4.6281637    0.5782936 
C     0.4617678   -4.7103009    1.9097165 
H     1.0369073    0.3577770    4.0935287 
H     1.9878678    2.3676400    1.7763661 
H    -2.1154022   -0.2466610   -2.9707809 
H    -1.3544491   -1.9623765    0.9713163 
H    -0.0567431   -1.8283875    4.0028566 
H    -1.1421778   -1.2987100    2.7014901 
H    -0.8906601    1.6927373    2.1614555 
H    -0.1382518    2.3561006    3.6224365 
H     3.6012835    0.4828627    0.1429965 
H     3.5020586    2.2448027    0.0662512 
H     2.8169307    2.1229738    3.9926872 
H     3.6071513    0.5649021    3.6471361 
H    -3.3261236   -3.0595972   -2.6886987 
H    -4.1177253   -1.5423016   -2.1986477 
H    -0.4086723   -1.4061448   -4.4245511 
H    -1.1341807   -2.9745512   -4.0009529 
H    -2.6598513   -3.7930148    0.9546292 
H    -3.1126381   -3.6355885   -0.7440985 
H    -3.4071559   -0.1780129   -0.4397607 
H    -2.3945088    0.1901215    0.9762198 
H    -1.0905417   -0.2305299    5.5901533 
H    -2.4899081   -0.9561832    4.7658702 
H    -2.7721228    0.9799866    3.3325182 
H    -2.1662023    1.7897113    4.7874150 
H     5.7769059    2.0693916    0.8692087 
H     5.4398597    0.5319494    1.6956289 
H     5.4831752    2.1671145    3.5564142 
H     4.5008997    3.3213707    2.6134183 
H    -4.3513801   -0.8185671   -4.4964674 
H    -4.4881870   -2.5692289   -4.7311457 
H    -2.4177725   -2.5223437   -5.9602624 
H    -2.3589534   -0.7694680   -5.7113308 
H    -4.9817473   -3.2314437    1.2850714 
H    -5.0574242   -2.3219124   -0.2377418 
H    -4.9662022   -0.5255378    1.4554756 
H    -3.7102346   -1.3954458    2.3735961 
H     3.4113518   -1.2547978    1.6059625 
H     2.6367809   -1.4523662    3.2025155 
H     0.6248033   -3.0653050   -2.3669082 
H    -0.8763968   -3.9308679   -1.9094194 
H     1.8607742   -1.9312660   -0.3973572 
H     1.5496597   -3.7308923    3.5133894 
H    -0.7131798   -5.3428008    0.1957627 
H     0.1025525   -5.5222391    2.5504492 
