103
Energy =
C     0.0952831    2.8405752   -0.8548854 
C     0.8155664    2.1461470   -1.8352203 
C     0.1603000    1.1877069   -2.6928794 
H     1.9023286    2.2756674   -1.9111191 
Pd    0.1031978    0.4173714   -0.6464937 
P    -1.2793688   -1.4611976   -1.2400092 
P     1.1849940    0.1584945    1.5606280 
H    -0.9993037    2.7265050   -0.8575455 
H    -0.8663444    1.4221090   -2.9988905 
C     1.5669960    5.8248114    1.8491743 
C     0.3053675    5.2398584    2.0473532 
C    -0.1725775    4.2875126    1.1424627 
C     0.6104674    3.8823752    0.0334218 
C     1.8609438    4.5147959   -0.1774042 
C     2.3342769    5.4709575    0.7260072 
H     1.9422358    6.5727737    2.5550498 
H    -0.3072851    5.5326631    2.9060051 
H    -1.1555436    3.8311418    1.2971755 
H     2.4521850    4.2748782   -1.0663089 
H     3.3006261    5.9539175    0.5490736 
C     2.4601493   -1.0599394   -5.5687428 
C     2.9163316   -0.9390214   -4.2460172 
C     2.1758344   -0.2042739   -3.3131465 
C     0.9559941    0.4128772   -3.6761076 
C     0.5182578    0.2933824   -5.0143136 
C     1.2638189   -0.4335003   -5.9510127 
H     3.0385391   -1.6341165   -6.2996025 
H     3.8516531   -1.4197642   -3.9412833 
H     2.5367975   -0.1162739   -2.2812029 
H    -0.4086437    0.7878651   -5.3249884 
H     0.9108218   -0.5090568   -6.9846568 
C     0.2694863    0.2324332    3.1784890 
C     2.4165695    1.5526404    1.7258354 
C    -2.6707376   -1.1986537   -2.4617108 
C    -2.1629416   -2.0656832    0.2801406 
C    -0.5035975   -1.0347901    3.6010422 
C    -0.7843799    1.3721180    3.2220511 
C     3.4901010    1.5231933    0.5853041 
C     3.2174561    1.6330455    3.0573833 
C    -2.2932520   -1.4690578   -3.9411608 
C    -3.3257203    0.2229348   -2.4386430 
C    -3.0969633   -3.2893522    0.1804718 
C    -3.0754841   -0.9928401    0.9211356 
C    -1.4149712   -0.4975218    4.7190934 
C    -1.8994147    0.8740278    4.1926443 
C     4.8579739    1.5249647    1.3043232 
C     4.5660521    2.2419232    2.6325036 
C    -3.3221914   -0.6401371   -4.7284691 
C    -3.4178383    0.6674875   -3.9218823 
C    -3.7701181   -3.2867242    1.5682795 
C    -3.9610369   -1.7845789    1.9271613 
C     2.3330929   -1.3395449    1.7823404 
C    -0.3578608   -2.9866928   -1.8783421 
C     1.7225044   -2.5896437    1.2048259 
C     0.4407513   -3.4638813   -0.6893909 
C     1.3431563   -2.5405088   -0.1428146 
C     1.3674859   -3.7213617    1.9613988 
C     0.1174232   -4.6083297    0.0643244 
C     0.6207095   -4.7526002    1.3672410 
H     1.0415369    0.4222815    3.9475417 
H     1.8115319    2.4688009    1.6264597 
H    -3.4337217   -1.9405910   -2.1653139 
H    -1.3428368   -2.3130602    0.9819713 
H     0.1589730   -1.8515710    3.9308826 
H    -1.1060513   -1.4216810    2.7616243 
H    -1.1939090    1.5440486    2.2086751 
H    -0.3284826    2.3232559    3.5440285 
H     3.3720810    0.6643206   -0.1018496 
H     3.3862300    2.4313868   -0.0293728 
H     2.6896009    2.2273274    3.8216592 
H     3.3944414    0.6282640    3.4845692 
H    -1.2746172   -1.1074258   -4.1575476 
H    -2.3163900   -2.5436638   -4.1872587 
H    -4.3299199    0.1618546   -1.9865246 
H    -2.7483412    0.9369513   -1.8221555 
H    -2.5668188   -4.2285695   -0.0397896 
H    -3.8550093   -3.1345644   -0.6108957 
H    -3.7115848   -0.5314541    0.1463855 
H    -2.4965782   -0.1778036    1.3853697 
H    -0.8187308   -0.3634737    5.6402759 
H    -2.2439099   -1.1827397    4.9653977 
H    -2.8518791    0.7589192    3.6467965 
H    -2.0864619    1.5886365    5.0108973 
H     5.6504903    2.0052416    0.7061516 
H     5.1851295    0.4879423    1.5093814 
H     5.3569399    2.1062736    3.3896629 
H     4.4486468    3.3283126    2.4583110 
H    -4.3000679   -1.1572126   -4.7304008 
H    -3.0303208   -0.4825168   -5.7810407 
H    -2.5657916    1.3242562   -4.1804973 
H    -4.3347901    1.2426841   -4.1312193 
H    -3.0912440   -3.7673172    2.2951886 
H    -4.7153042   -3.8543833    1.5802952 
H    -5.0163017   -1.4768395    1.8391304 
H    -3.6602767   -1.5868194    2.9692317 
H     3.2716537   -1.0807123    1.2604583 
H     2.5645416   -1.4418723    2.8557353 
H     0.2704570   -2.6516567   -2.7228983 
H    -1.0819111   -3.7342816   -2.2427693 
H     1.6338802   -1.6699365   -0.7448667 
H     1.6633619   -3.7945272    3.0137115 
H    -0.5547404   -5.3674051   -0.3502483 
H     0.3763413   -5.6487882    1.9467608 
