103
Energy =
C     1.6557817    1.1333886   -2.5078813 
C     0.9318243    2.1764971   -1.8998199 
C     1.3173187    2.6061117   -0.5848424 
H     0.0367328    2.5839881   -2.3846144 
Pd    0.6291823    0.4893805   -0.5282791 
P     1.5016698    0.1685174    1.7827687 
P    -0.8505416   -1.2412876   -1.4410512 
H     2.6041704    0.8403755   -2.0322869 
H     2.3894327    2.5815064   -0.3585213 
C     0.9995636   -0.6011035   -6.3713198 
C     1.7744986   -1.2710603   -5.4092289 
C     2.0053410   -0.6787404   -4.1639944 
C     1.4437954    0.5826760   -3.8484687 
C     0.6957101    1.2618312   -4.8389428 
C     0.4754651    0.6713626   -6.0880339 
H     0.8206990   -1.0617068   -7.3481925 
H     2.2019515   -2.2530675   -5.6356882 
H     2.6058821   -1.2002023   -3.4097982 
H     0.3008375    2.2617473   -4.6350747 
H    -0.1015353    1.2073251   -6.8483870 
C    -0.9936273    5.3832455    1.7515835 
C    -1.6339325    4.5495964    0.8188899 
C    -0.8883749    3.6529145    0.0484271 
C     0.5180532    3.5650078    0.1959012 
C     1.1479224    4.4172145    1.1328715 
C     0.4004336    5.3170794    1.9020520 
H    -1.5791315    6.0849037    2.3542550 
H    -2.7209510    4.5980321    0.6974233 
H    -1.4025809    2.9898675   -0.6565710 
H     2.2382165    4.3866579    1.2406680 
H     0.9070780    5.9739244    2.6165873 
C    -1.5348408   -0.7697621   -3.1063386 
C    -2.3696133   -1.4047991   -0.3609535 
C     0.4939451    0.6393918    3.2907068 
C     3.0154147    1.2585319    1.9602531 
C    -2.3144364    0.5866872   -3.0590853 
C    -2.4922286   -1.7937121   -3.7882270 
C    -2.0597209   -1.2668527    1.1449302 
C    -3.2953983   -2.6625504   -0.4765965 
C    -0.2133385   -0.5049277    4.0578746 
C    -0.6193364    1.6866743    2.9889879 
C     4.0985302    0.9516883    0.8684500 
C     3.7649661    1.1957229    3.3259591 
C    -3.7410874    0.2497910   -3.5413498 
C    -3.5166221   -0.9100190   -4.5253512 
C    -3.3441981   -1.7707525    1.8158801 
C    -3.6974735   -3.0177261    0.9830345 
C    -1.2520807    0.2581132    4.8990136 
C    -1.8046711    1.3252529    3.9309908 
C     5.3866801    0.6058794    1.6477050 
C     5.2440794    1.4073236    2.9509827 
C    -0.1736896   -2.9811835   -1.7078098 
C     2.2686261   -1.5169951    2.2191425 
C     0.2949332   -3.4436540   -0.3508061 
C     1.4687206   -2.6574020    1.6502649 
C     1.2850371   -2.6629435    0.2623363 
C    -0.3711769   -4.4099287    0.4258644 
C     0.7775874   -3.6082819    2.4239449 
C    -0.0931469   -4.5162097    1.7987160 
H    -0.6436854   -0.6516491   -3.7409544 
H    -2.9588249   -0.5158552   -0.6542780 
H     1.2245729    1.0895584    3.9860123 
H     2.6243243    2.2801418    1.8248063 
H    -1.8375301    1.2985669   -3.7544343 
H    -2.2994075    1.0628120   -2.0602854 
H    -3.0188638   -2.4128018   -3.0428284 
H    -1.9443782   -2.4797713   -4.4553069 
H    -1.2102208   -1.9161760    1.4209560 
H    -1.7887393   -0.2330341    1.4083322 
H    -4.1796560   -2.4195550   -1.0892470 
H    -2.7979175   -3.5152762   -0.9656142 
H    -0.7140875   -1.2025756    3.3669404 
H     0.4870328   -1.0957072    4.6719848 
H    -0.2474256    2.7109858    3.1526920 
H    -0.9249104    1.6407925    1.9289193 
H     4.2670275    1.8501171    0.2476045 
H     3.7919240    0.1464324    0.1736189 
H     3.6504264    0.2064233    3.8047912 
H     3.3875699    1.9471124    4.0391548 
H    -4.2567691    1.1168177   -3.9873657 
H    -4.3584152   -0.0998060   -2.6914998 
H    -4.4414727   -1.4522818   -4.7857479 
H    -3.0777258   -0.5252697   -5.4654324 
H    -4.1391792   -1.0059528    1.7274812 
H    -3.2132328   -1.9901871    2.8896008 
H    -3.0931119   -3.8710255    1.3367614 
H    -4.7579939   -3.3080229    1.0653500 
H    -0.7466715    0.7433230    5.7548393 
H    -2.0360841   -0.4005989    5.3100714 
H    -2.6371641    0.8992812    3.3433188 
H    -2.2034847    2.2077702    4.4578628 
H     6.3021817    0.8413764    1.0797685 
H     5.4151319   -0.4756660    1.8799098 
H     5.9376357    1.0837603    3.7454639 
H     5.4361323    2.4799069    2.7581144 
H    -0.9465114   -3.6313466   -2.1499238 
H     0.6487232   -2.8764414   -2.4386385 
H     2.3778679   -1.5813350    3.3134734 
H     3.2828976   -1.4958438    1.7819326 
H     1.8333401   -1.9311143   -0.3457558 
H    -1.1303926   -5.0541834   -0.0304025 
H     0.9072601   -3.6317920    3.5111840 
H    -0.6065379   -5.2752490    2.3978194 
