117
Energy =
C    -1.3988215    2.7160318    2.1566284 
C    -0.5213961    3.3399096    1.2343504 
C    -0.9119288    3.5385039   -0.1153275 
H     0.5060560    3.5644622    1.5477373 
Pd   -0.8971256    1.3259402    0.4155357 
P    -0.3504685    0.5486391   -1.7395561 
P    -1.2301408   -0.6644560    1.6409571 
H    -2.4764251    2.7696540    1.9393702 
H    -1.9945508    3.5508557   -0.3104074 
C    -0.4673607    2.1327251    6.3135081 
C     0.5392904    1.9665554    5.3473945 
C     0.2483355    2.1472385    3.9918574 
C    -1.0585970    2.4841053    3.5729148 
C    -2.0635469    2.6341799    4.5525039 
C    -1.7675169    2.4707421    5.9109143 
H    -0.2380911    1.9942489    7.3751299 
H     1.5543817    1.6918335    5.6523646 
H     1.0380359    2.0046838    3.2479928 
H    -3.0847177    2.8795768    4.2428455 
H    -2.5592046    2.5956006    6.6565104 
C     1.3595473    5.4664898   -3.2250327 
C     1.9777699    5.1668747   -1.9999072 
C     1.2586302    4.5399006   -0.9762077 
C    -0.1037397    4.2050510   -1.1518435 
C    -0.7218132    4.5489505   -2.3774132 
C     0.0016604    5.1617448   -3.4067431 
H     1.9282948    5.9520593   -4.0243661 
H     3.0292897    5.4270671   -1.8409725 
H     1.7660559    4.3114881   -0.0339393 
H    -1.7874522    4.3360203   -2.5149765 
H    -0.4979924    5.4137835   -4.3478699 
O     1.8578100   -4.1666234    0.0693359 
O    -0.1660722   -4.9353591    0.8746284 
N    -0.0105745   -3.0038296   -0.3396556 
C    -0.2958085   -1.2971651   -1.9810547 
C    -1.5549971    1.1676618   -3.0508453 
C     1.3331879    1.1886518   -2.2880749 
C    -1.6623620   -1.9663015   -1.6611508 
C    -1.4570012   -2.7978052   -0.3784623 
C     0.7519014   -2.0014643   -1.0765078 
C    -1.6427465    0.3339163   -4.3502916 
C    -2.9740557    1.4116928   -2.4830476 
C     2.3419309    1.2221252   -1.1153370 
C     1.9426176    0.4745459   -3.5153807 
C    -2.5375999    1.0393745   -5.3881621 
C    -3.8754161    2.1070146   -3.5193824 
C     3.6862362    1.8413061   -1.5368276 
C     3.2776401    1.1254036   -3.9256048 
C    -3.9440458    1.3084229   -4.8308485 
C     4.2794044    1.1270600   -2.7610408 
C    -2.0404859   -2.1808880    0.9064913 
C     0.5196935   -4.1235109    0.2632614 
C    -2.3971923   -0.4262295    3.0487883 
C     0.3376013   -1.2851011    2.3640897 
C     2.6296753   -5.4117105    0.3279742 
C    -3.6934850    0.0358247    2.7326776 
C     1.5153257   -0.5370180    2.1695889 
C    -2.0716598   -0.7059158    4.3875728 
C     0.3929582   -2.4747183    3.1215686 
C     2.0380853   -6.5531241   -0.5093933 
C     4.0308848   -5.0284664   -0.1584808 
C     2.6327848   -5.7317353    1.8271944 
C    -4.6588479    0.1792249    3.7368014 
C     2.7288984   -0.9584221    2.7294518 
C    -3.0430720   -0.5601027    5.3897492 
C     1.6035895   -2.8834698    3.6935625 
C    -4.3366998   -0.1286104    5.0686121 
C     2.7710697   -2.1275714    3.5018725 
H    -0.0400017   -1.4627895   -3.0395539 
H    -1.1243469    2.1548467   -3.3080763 
H     1.1144460    2.2376599   -2.5688513 
H    -2.4791530   -1.2362135   -1.5369599 
H    -1.9473022   -2.6320855   -2.4917230 
H    -1.9351660   -3.7878375   -0.4733792 
H     1.5526963   -2.4850473   -1.6584131 
H     1.2390869   -1.2981301   -0.3738715 
H    -2.0732188   -0.6594952   -4.1222068 
H    -0.6417588    0.1588051   -4.7791049 
H    -2.9154825    2.0089753   -1.5555180 
H    -3.4309885    0.4440814   -2.1990709 
H     2.5224103    0.1944747   -0.7490805 
H     1.9037043    1.7867439   -0.2709170 
H     1.2416686    0.4943078   -4.3670165 
H     2.1257847   -0.5896887   -3.2715030 
H    -2.5947936    0.4238646   -6.3036132 
H    -2.0647621    1.9980629   -5.6794402 
H    -3.4734133    3.1183446   -3.7284812 
H    -4.8862761    2.2506364   -3.0974175 
H     3.5288555    2.9076886   -1.7820511 
H     4.3902611    1.8077998   -0.6854939 
H     3.6942046    0.5903286   -4.7976039 
H     3.0864598    2.1670365   -4.2501348 
H    -4.5564403    1.8464745   -5.5758553 
H    -4.4522387    0.3421785   -4.6421593 
H     5.2236523    1.6118136   -3.0664173 
H     4.5316371    0.0815684   -2.4936260 
H    -2.0174534   -2.9411615    1.7066030 
H    -3.1011388   -1.9182613    0.7460959 
H    -3.9499297    0.2842429    1.6946014 
H     1.4710827    0.3773926    1.5670161 
H    -1.0594903   -1.0180360    4.6586460 
H    -0.4985596   -3.0925983    3.2630963 
H     1.0253848   -6.8103768   -0.1633621 
H     1.9953569   -6.2638180   -1.5737615 
H     2.6804639   -7.4456139   -0.4197313 
H     4.4027785   -4.1530155    0.4004986 
H     4.0145178   -4.7793602   -1.2330895 
H     4.7277281   -5.8689591   -0.0030530 
H     1.6095471   -5.9123022    2.1883070 
H     3.2418934   -6.6346523    2.0047372 
H     3.0769307   -4.8968748    2.3925195 
H    -5.6640014    0.5296078    3.4798951 
H     3.6382368   -0.3708538    2.5653522 
H    -2.7773913   -0.7754599    6.4296087 
H     1.6350628   -3.8043475    4.2836630 
H    -5.0913983   -0.0204395    5.8543288 
H     3.7152232   -2.4570596    3.9479430 
