117
Energy =
C     0.5674240    1.6532898    2.6334221 
C     1.5916845    1.6391547    1.6562458 
C     1.4977534    2.3888669    0.4562035 
H     2.4339103    0.9467916    1.7848983 
Pd   -0.1723202    0.8419828    0.6172267 
P    -0.5000530    0.2249226   -1.6455327 
P    -1.7469478   -0.6137069    1.5852523 
H    -0.0923713    2.5328977    2.6685444 
H     0.8278792    3.2620179    0.4579235 
C     0.8803338   -0.5975261    6.2864406 
C     1.3826687   -1.1324091    5.0891395 
C     1.2775129   -0.4039307    3.9009760 
C     0.6613077    0.8657598    3.8777363 
C     0.1518971    1.3877756    5.0860151 
C     0.2669973    0.6646438    6.2793582 
H     0.9587072   -1.1650909    7.2195007 
H     1.8469226   -2.1236387    5.0705068 
H     1.6568966   -0.8415148    2.9758692 
H    -0.3337336    2.3689655    5.0885265 
H    -0.1328527    1.0858885    7.2072321 
C     4.7708447    2.6602097   -2.3267473 
C     4.5414620    1.4578453   -1.6357581 
C     3.4772096    1.3518162   -0.7342957 
C     2.6030035    2.4452772   -0.5192761 
C     2.8389362    3.6435375   -1.2276129 
C     3.9206271    3.7543637   -2.1121584 
H     5.6083481    2.7419829   -3.0268645 
H     5.1983945    0.5977427   -1.8004853 
H     3.3142694    0.4070486   -0.2041003 
H     2.1743231    4.5004908   -1.0713306 
H     4.0952790    4.6974230   -2.6400916 
O     3.3141733   -1.9847398    0.6107141 
O     1.9559784   -3.0799306    2.1138711 
N     1.1095919   -2.1431918    0.1961330 
C    -0.0399708   -1.5906788   -1.7858840 
C    -2.2697565    0.2858442   -2.2614009 
C     0.6372457    1.0266434   -2.9264402 
C    -0.9174112   -2.5719817   -0.9754618 
C    -0.2107121   -2.7822313    0.3922498 
C     1.3681680   -1.8215816   -1.2152834 
C    -2.9312918    1.6678384   -2.0384049 
C    -2.4704618   -0.2234130   -3.7065684 
C     1.0409985    0.1492920   -4.1361021 
C     0.1058944    2.4063854   -3.3800082 
C    -4.4075010    1.6616187   -2.4755324 
C    -3.9618811   -0.2273954   -4.0894844 
C     2.0278141    0.8994650   -5.0521169 
C     1.0810395    3.1199944   -4.3335931 
C    -4.5753148    1.1708992   -3.9215142 
C     1.4469264    2.2361170   -5.5335891 
C    -0.9544240   -2.2872060    1.6564881 
C     2.1329158   -2.4641022    1.0675925 
C    -3.4571280   -0.8837266    0.9131266 
C    -2.2363583   -0.2367326    3.3256219 
C     4.5971442   -2.3339621    1.2947243 
C    -4.3128088    0.2333612    0.8154629 
C    -2.7360667    1.0532606    3.6026636 
C    -3.9799051   -2.1610661    0.6234857 
C    -2.2300266   -1.2039365    4.3470064 
C     5.6423341   -1.6528367    0.4062285 
C     4.6096744   -1.7455121    2.7105003 
C     4.7711772   -3.8576869    1.2859470 
C    -5.6562236    0.0761921    0.4534327 
C    -3.2604216    1.3573960    4.8640312 
C    -5.3190437   -2.3129692    0.2329187 
C    -2.7355378   -0.8874146    5.6169393 
C    -6.1629401   -1.1972988    0.1528646 
C    -3.2653596    0.3838737    5.8744718 
H    -0.0774472   -1.8430405   -2.8565194 
H    -2.7814076   -0.4210582   -1.5772756 
H     1.5579617    1.2102914   -2.3430570 
H    -1.9557110   -2.2252691   -0.8678069 
H    -0.9647398   -3.5314715   -1.5169312 
H    -0.0457100   -3.8619333    0.5685849 
H     1.8648983   -2.6697837   -1.7283681 
H     2.0330132   -0.9488459   -1.2960545 
H    -2.3968813    2.4424007   -2.6124526 
H    -2.8390416    1.9489189   -0.9729261 
H    -2.0477569   -1.2374623   -3.8238026 
H    -1.9271846    0.4337847   -4.4100888 
H     0.1489674   -0.1388936   -4.7214332 
H     1.5179955   -0.7856844   -3.7958823 
H    -0.0948989    3.0396479   -2.4954983 
H    -0.8554566    2.2731867   -3.9080305 
H    -4.8295027    2.6757167   -2.3545743 
H    -4.9796593    0.9938646   -1.8074902 
H    -4.5027814   -0.9474969   -3.4440091 
H    -4.0739577   -0.5829561   -5.1294180 
H     2.9647628    1.0880674   -4.4919412 
H     2.2899755    0.2534191   -5.9092469 
H     0.6287162    4.0708470   -4.6685071 
H     2.0026251    3.3778524   -3.7837936 
H    -5.6448303    1.1575421   -4.1970461 
H    -4.0776547    1.8754974   -4.6173416 
H     2.1699520    2.7571638   -6.1862195 
H     0.5447738    2.0456956   -6.1485871 
H    -0.2253393   -2.2517592    2.4827925 
H    -1.7157765   -3.0329996    1.9439019 
H    -3.9337271    1.2360803    1.0334576 
H    -2.7046564    1.8293747    2.8295012 
H    -3.3575265   -3.0563040    0.7105620 
H    -1.8309915   -2.2065392    4.1717845 
H     5.5254366   -0.5570199    0.4316893 
H     6.6543331   -1.9000787    0.7670097 
H     5.5472393   -1.9989244   -0.6367810 
H     3.8738840   -2.2462655    3.3553597 
H     4.3893002   -0.6645589    2.6818621 
H     5.6137900   -1.8768376    3.1484381 
H     4.7103784   -4.2435997    0.2538521 
H     5.7650853   -4.1123465    1.6912041 
H     4.0031601   -4.3477625    1.9026511 
H    -6.3080364    0.9540898    0.4008060 
H    -3.6525985    2.3602876    5.0623248 
H    -5.7046625   -3.3130106    0.0093108 
H    -2.7148518   -1.6450925    6.4068701 
H    -7.2114666   -1.3188084   -0.1369535 
H    -3.6688384    0.6206095    6.8642197 
