117
Energy =
C     1.0005436    1.5163746    2.4978792 
C     1.9148370    1.4333239    1.4169974 
C     1.8069124    2.2538624    0.2718375 
H     2.6837025    0.6502534    1.4374707 
Pd   -0.0462561    0.8595892    0.5849694 
P    -0.8014990    0.3142746   -1.6114315 
P    -1.5784878   -0.4961568    1.7273841 
H     0.4483984    2.4598018    2.6237719 
H     1.2184811    3.1785957    0.3670340 
C     1.5172648   -0.8116248    6.0789638 
C     1.8462251   -1.3655691    4.8312650 
C     1.6728410   -0.6135334    3.6660750 
C     1.1581202    0.6996528    3.7168911 
C     0.8226937    1.2412671    4.9765098 
C     1.0070537    0.4939459    6.1458927 
H     1.6501040   -1.3972426    6.9945106 
H     2.2284342   -2.3886304    4.7567322 
H     1.9201419   -1.0642116    2.7038116 
H     0.4187121    2.2569039    5.0374228 
H     0.7421670    0.9308667    7.1139368 
C     4.8989985    2.4145506   -2.7207902 
C     4.6289394    1.2028217   -2.0633643 
C     3.6173164    1.1292001   -1.0993482 
C     2.8406181    2.2679517   -0.7814354 
C     3.1241427    3.4807991   -1.4502661 
C     4.1467752    3.5554751   -2.4040335 
H     5.6926947    2.4688084   -3.4726860 
H     5.2104934    0.3075972   -2.3054327 
H     3.4221481    0.1740125   -0.6007095 
H     2.5435085    4.3779288   -1.2074611 
H     4.3555262    4.5075705   -2.9024198 
O     3.2312347   -2.1902558    0.2017571 
O     1.9480165   -3.2924063    1.7650121 
N     0.9884224   -2.1695960    0.0102778 
C    -0.3225675   -1.4876856   -1.8401295 
C    -2.6520125    0.2962087   -1.9828827 
C    -0.1481282    1.1838774   -3.1527359 
C    -1.1534756   -2.4772559   -0.9804826 
C    -0.3405115   -2.7411315    0.3134065 
C     1.1259325   -1.7493724   -1.3926718 
C    -3.2254796    1.7250331   -2.1267695 
C    -3.0444835   -0.5774659   -3.1981342 
C    -0.0272902    2.7080699   -2.9380844 
C     1.1522856    0.6313714   -3.7732775 
C    -4.7469782    1.7102179   -2.3619020 
C    -4.5725201   -0.5835113   -3.3992896 
C     0.2484279    3.4207497   -4.2747041 
C     1.4278734    1.3318079   -5.1184930 
C    -5.1229927    0.8396457   -3.5693864 
C     1.5031547    2.8587897   -4.9630646 
C    -0.9351423   -2.2337476    1.6500975 
C     2.0676176   -2.6174870    0.7470119 
C    -3.3663858   -0.5656859    1.2449770 
C    -1.8440221   -0.1659566    3.5258792 
C     4.5424951   -2.6905397    0.7206442 
C    -4.0765928    0.6532554    1.1966582 
C    -2.2312291    1.1373984    3.9028258 
C    -4.0689351   -1.7703060    1.0445960 
C    -1.7853756   -1.1742748    4.5049135 
C     4.7459151   -2.2163136    2.1643852 
C     4.5836918   -4.2178488    0.5873380 
C     5.5500921   -2.0275321   -0.2229850 
C    -5.4594328    0.6637744    0.9819507 
C    -2.5924983    1.4176276    5.2252221 
C    -5.4504228   -1.7541792    0.7962903 
C    -2.1287101   -0.8833828    5.8339414 
C    -6.1507215   -0.5407126    0.7753394 
C    -2.5462702    0.4042744    6.1947783 
H    -0.4420467   -1.7118238   -2.9124779 
H    -3.1070166   -0.1541623   -1.0842226 
H    -0.9570407    1.0058717   -3.8896330 
H    -2.1706113   -2.1153735   -0.7653646 
H    -1.2672835   -3.4203735   -1.5403565 
H    -0.2167464   -3.8296709    0.4649813 
H     1.5843844   -2.5545256   -2.0005623 
H     1.7757353   -0.8658214   -1.4663800 
H    -2.7503122    2.2267619   -2.9899592 
H    -2.9781914    2.3239061   -1.2302158 
H    -2.6932584   -1.6154184   -3.0694281 
H    -2.5626903   -0.1891311   -4.1167279 
H     0.8048165    2.8940466   -2.2409272 
H    -0.9341645    3.1199821   -2.4648785 
H     1.0847100   -0.4581516   -3.9390022 
H     1.9988913    0.8082704   -3.0867170 
H    -5.1052375    2.7463682   -2.4993987 
H    -5.2489078    1.3124586   -1.4621358 
H    -5.0480114   -1.0596298   -2.5189640 
H    -4.8236309   -1.2079216   -4.2754150 
H    -0.6296778    3.2960927   -4.9393534 
H     0.3591081    4.5064081   -4.1003773 
H     2.3684465    0.9429635   -5.5487335 
H     0.6208990    1.0702173   -5.8316945 
H    -6.2199204    0.8151042   -3.6970211 
H    -4.7062759    1.2856311   -4.4942020 
H     1.6452055    3.3359168   -5.9492308 
H     2.3907087    3.1104628   -4.3539052 
H    -0.1356250   -2.2966446    2.4074659 
H    -1.7303197   -2.9251896    1.9793894 
H    -3.5439530    1.6014383    1.3224523 
H    -2.2409268    1.9420234    3.1592098 
H    -3.5543596   -2.7348947    1.0875869 
H    -1.4704798   -2.1899079    4.2513215 
H     4.6160133   -1.1226686    2.2341551 
H     4.0380464   -2.7074327    2.8468068 
H     5.7740457   -2.4585307    2.4832012 
H     4.3890432   -4.5158771   -0.4573074 
H     3.8414958   -4.6937397    1.2452805 
H     5.5873924   -4.5798998    0.8674730 
H     5.5386926   -0.9318031   -0.1044303 
H     6.5661419   -2.3881354    0.0073606 
H     5.3186036   -2.2769640   -1.2722366 
H    -5.9979332    1.6166522    0.9658226 
H    -2.8979501    2.4321268    5.5016542 
H    -5.9808411   -2.6986618    0.6368885 
H    -2.0697099   -1.6743756    6.5885243 
H    -7.2308184   -0.5316469    0.5980069 
H    -2.8229720    0.6217598    7.2313911 
