117
Energy =
C    -1.3481371    2.6057436    2.1648625 
C    -0.4856757    3.2588098    1.2488608 
C    -0.8783455    3.4751895   -0.0950496 
H     0.5337739    3.5093037    1.5682790 
Pd   -0.8220303    1.2405689    0.4123874 
P    -0.2878683    0.4409397   -1.7454039 
P    -1.2009182   -0.7461181    1.6447208 
H    -2.4271198    2.6414535    1.9517891 
H    -1.9589350    3.4390191   -0.2986171 
C    -0.3858385    2.0721496    6.3218393 
C     0.6154826    1.9015916    5.3511242 
C     0.3142952    2.0647031    3.9954909 
C    -0.9977890    2.3863356    3.5813023 
C    -1.9966040    2.5438298    4.5659617 
C    -1.6905272    2.3983507    5.9240875 
H    -0.1487255    1.9473787    7.3834277 
H     1.6344896    1.6377771    5.6526364 
H     1.1004006    1.9216562    3.2480139 
H    -3.0208111    2.7813411    4.2605202 
H    -2.4778332    2.5281208    6.6734638 
C     1.2698378    5.7609692   -3.0439608 
C    -0.0642339    5.3811450   -3.2575645 
C    -0.7439067    4.6354948   -2.2875904 
C    -0.1032883    4.2346572   -1.0914559 
C     1.2382259    4.6345134   -0.8869182 
C     1.9119766    5.3938176   -1.8496033 
H     1.8030565    6.3506307   -3.7962990 
H    -0.5799655    5.6766956   -4.1770115 
H    -1.7930866    4.3644596   -2.4475444 
H     1.7627428    4.3568302    0.0325763 
H     2.9466030    5.7023192   -1.6686061 
O     1.7096268   -4.3926937   -0.0133643 
O    -0.3240760   -5.0720288    0.8455882 
N    -0.1142103   -3.1440404   -0.3659024 
C    -0.3667154   -1.4076536   -1.9790855 
C     1.4785222    0.7864773   -2.3441040 
C    -1.4319330    1.1344932   -3.0605554 
C    -1.7518156   -2.0156749   -1.6325118 
C    -1.5504849   -2.8744468   -0.3675479 
C     0.6732511   -2.1623760   -1.1034579 
C     1.6234302    1.9374686   -3.3635710 
C     2.4242707    1.0069860   -1.1403855 
C    -1.4163538    0.3762721   -4.4066404 
C    -2.8871847    1.3311198   -2.5752063 
C     3.0896568    2.0954764   -3.8099409 
C     3.8857971    1.1695694   -1.5925351 
C    -2.2318570    1.1435767   -5.4648418 
C    -3.7129440    2.0896356   -3.6312431 
C     4.0349442    2.3040161   -2.6169009 
C    -3.6765907    1.3777170   -4.9939033 
C    -2.0716234   -2.2414995    0.9340900 
C     0.3811488   -4.2893305    0.2180188 
C    -2.3360676   -0.4950273    3.0775660 
C     0.3621951   -1.4024676    2.3459984 
C     2.4357481   -5.6655399    0.2413327 
C    -3.6347386   -0.0192668    2.7943184 
C     1.5399272   -0.6454678    2.1904113 
C    -1.9847224   -0.7938769    4.4056591 
C     0.4137173   -2.6191974    3.0589074 
C     2.4690236   -5.9610961    1.7451939 
C     1.7736656   -6.7940875   -0.5600733 
C     3.8369363   -5.3494094   -0.2912168 
C    -4.5773204    0.1203415    3.8204964 
C     2.7510427   -1.0872135    2.7399265 
C    -2.9329587   -0.6508215    5.4301258 
C     1.6219232   -3.0494857    3.6206030 
C    -4.2293595   -0.2046417    5.1416147 
C     2.7904603   -2.2873153    3.4636821 
H    -0.1366253   -1.5795269   -3.0435691 
H     1.7812993   -0.1518376   -2.8514962 
H    -1.0075537    2.1436869   -3.2256368 
H    -2.5266563   -1.2484241   -1.4711029 
H    -2.0941955   -2.6512307   -2.4652111 
H    -2.0749134   -3.8411495   -0.4581889 
H     1.4435937   -2.6690245   -1.7056887 
H     1.2001296   -1.4865440   -0.4011889 
H     1.2784454    2.8799806   -2.9079683 
H     0.9933163    1.7583809   -4.2502558 
H     2.3457267    0.1649655   -0.4320486 
H     2.0928053    1.9126601   -0.5956334 
H    -1.8644879   -0.6260559   -4.2656097 
H    -0.3824757    0.2170401   -4.7625838 
H    -2.8989729    1.8683869   -1.6092508 
H    -3.3582335    0.3471821   -2.3916076 
H     3.1620202    2.9447420   -4.5130409 
H     3.3994045    1.1914086   -4.3707631 
H     4.2303528    0.2171963   -2.0418305 
H     4.5276009    1.3517806   -0.7113745 
H    -1.7417942    2.1176816   -5.6607278 
H    -2.2214667    0.5859991   -6.4183045 
H    -4.7544782    2.2023825   -3.2806159 
H    -3.3044467    3.1134157   -3.7441240 
H     5.0811969    2.3738137   -2.9640212 
H     3.7943517    3.2675014   -2.1291302 
H    -4.2351941    1.9630700   -5.7455246 
H    -4.1927645    0.4011942   -4.9071024 
H    -2.0477295   -3.0008937    1.7349329 
H    -3.1285039   -1.9476356    0.8071656 
H    -3.9122979    0.2413155    1.7647249 
H     1.4960829    0.2948619    1.6283779 
H    -0.9707348   -1.1217366    4.6502529 
H    -0.4778629   -3.2424064    3.1735248 
H     2.9614110   -5.1348540    2.2828789 
H     1.4500125   -6.0954356    2.1374582 
H     3.0470103   -6.8843283    1.9221964 
H     1.7112711   -6.5188690   -1.6271734 
H     0.7621021   -7.0049484   -0.1811606 
H     2.3825477   -7.7102033   -0.4749319 
H     3.7992733   -5.1156619   -1.3687096 
H     4.2619687   -4.4826165    0.2427399 
H     4.5017803   -6.2166361   -0.1426384 
H    -5.5850056    0.4809175    3.5888652 
H     3.6602670   -0.4920272    2.6053783 
H    -2.6473703   -0.8812327    6.4614549 
H     1.6498035   -3.9912962    4.1766990 
H    -4.9661058   -0.0988813    5.9444904 
H     3.7325191   -2.6342755    3.9008097 
