117
Energy =
C     0.7561135    1.9973238    2.3190061 
C     1.7521162    1.9691332    1.3256562 
C     1.5212217    2.4894152    0.0164569 
H     2.6984707    1.4498234    1.5246092 
Pd    0.1460921    0.7652189    0.4024337 
P    -0.6571249    0.4876263   -1.8157358 
P    -1.0126443   -1.0239171    1.4103857 
H    -0.1334301    2.6161340    2.1238505 
H     0.8196547    3.3312115   -0.0712788 
C     1.2855928    1.0590190    6.4740402 
C     0.0043750    1.3053136    5.9562219 
C    -0.1576262    1.5907160    4.5978934 
C     0.9536826    1.6212193    3.7229791 
C     2.2380703    1.3611866    4.2595332 
C     2.4007132    1.0915568    5.6212389 
H     1.4153745    0.8475183    7.5403108 
H    -0.8691783    1.2764268    6.6147080 
H    -1.1585683    1.7904672    4.2003858 
H     3.1215199    1.4020063    3.6148204 
H     3.4035425    0.9131206    6.0227768 
C     4.5783368    2.2653694   -3.0071116 
C     4.3013165    1.1467906   -2.2024961 
C     3.3194675    1.2247597   -1.2096291 
C     2.5790464    2.4130539   -1.0145334 
C     2.8745381    3.5331580   -1.8202782 
C     3.8704016    3.4603416   -2.8043354 
H     5.3454899    2.2076467   -3.7862562 
H     4.8355142    0.2022785   -2.3464176 
H     3.1022236    0.3348122   -0.6101706 
H     2.3215290    4.4667320   -1.6691253 
H     4.0904789    4.3392698   -3.4194024 
O     2.2982319   -3.2350546    0.6723459 
O     3.4455122   -1.9931224   -0.8850282 
N     1.1654299   -2.1828046   -0.9733425 
C    -0.3515518   -1.2331366   -2.4873914 
C    -2.5226218    0.6578689   -1.8723831 
C     0.1233657    1.5723862   -3.1566952 
C    -1.0750882   -2.3835926   -1.7553568 
C    -0.0933702   -2.8979462   -0.6687442 
C     1.1335512   -1.5822570   -2.3112378 
C    -3.0462003    1.9365947   -1.1776596 
C    -3.1585781    0.4615113   -3.2667858 
C     0.1532650    0.9813394   -4.5871164 
C    -0.4746512    2.9990362   -3.1547804 
C    -4.5836824    1.9326050   -1.1162435 
C    -4.6960968    0.4671585   -3.1722114 
C     0.8749556    1.9345192   -5.5598729 
C     0.2284211    3.9269062   -4.1630670 
C    -5.2078866    1.7551559   -2.5090691 
C     0.2270035    3.3257968   -5.5751845 
C    -0.5869260   -2.7292839    0.7729518 
C     2.4046439   -2.4468475   -0.4222792 
C    -2.8442165   -0.8484382    1.3967206 
C    -0.6814774   -1.3705815    3.1928315 
C     3.5128017   -3.7023691    1.4015416 
C    -3.3584876    0.3362565    1.9694771 
C     0.6689982   -1.5083231    3.5745894 
C    -3.7433007   -1.8344975    0.9477074 
C    -1.6956414   -1.6121605    4.1388597 
C     4.3826666   -4.5390290    0.4548837 
C     4.2680626   -2.4965008    1.9778283 
C     2.9108148   -4.5685676    2.5125786 
C    -4.7384821    0.5129354    2.1232458 
C     0.9997942   -1.9103845    4.8726076 
C    -5.1282967   -1.6431739    1.0771911 
C    -1.3577593   -2.0043193    5.4431047 
C    -5.6276504   -0.4780544    1.6756561 
C    -0.0144193   -2.1600174    5.8105910 
H    -0.6371029   -1.2169273   -3.5493666 
H    -2.8431969   -0.1893405   -1.2324378 
H     1.1732153    1.6519470   -2.8195563 
H    -2.0435813   -2.0819300   -1.3231381 
H    -1.2912714   -3.1857946   -2.4803047 
H     0.0731611   -3.9855146   -0.7989591 
H     1.4641122   -2.3091770   -3.0813726 
H     1.8172931   -0.7201889   -2.3550777 
H    -2.7112678    2.8333538   -1.7257062 
H    -2.6152689    2.0050937   -0.1614058 
H    -2.8132603   -0.4828092   -3.7246522 
H    -2.8376380    1.2788570   -3.9385017 
H    -0.8745147    0.7979927   -4.9517272 
H     0.6784752    0.0114476   -4.5948631 
H    -0.4237040    3.4304672   -2.1382086 
H    -1.5447091    2.9457348   -3.4253896 
H    -4.9371507    2.8674812   -0.6448626 
H    -4.9149814    1.1031466   -0.4657370 
H    -5.0256877   -0.4076375   -2.5769980 
H    -5.1285867    0.3473684   -4.1816790 
H     1.9347987    2.0260252   -5.2505486 
H     0.8733515    1.4894657   -6.5710443 
H    -0.2680012    4.9140262   -4.1541527 
H     1.2734412    4.0884894   -3.8453757 
H    -6.3097925    1.7357666   -2.4342818 
H    -4.9492289    2.6235252   -3.1469788 
H     0.7612223    3.9921011   -6.2756406 
H    -0.8141697    3.2441845   -5.9463486 
H     0.2025814   -3.0812868    1.4520092 
H    -1.4599007   -3.3833962    0.9452365 
H    -2.6665376    1.1139643    2.3136203 
H     1.4601596   -1.3095452    2.8429916 
H    -3.3766411   -2.7677213    0.5086813 
H    -2.7490205   -1.5114492    3.8615537 
H     3.7863704   -5.3554929    0.0129042 
H     4.8003346   -3.9183685   -0.3515878 
H     5.2131895   -4.9885795    1.0253319 
H     3.6034860   -1.8910299    2.6181998 
H     4.6704269   -1.8633579    1.1734084 
H     5.1046520   -2.8567681    2.6004521 
H     2.3303028   -5.4008457    2.0805454 
H     3.7163310   -4.9905640    3.1363346 
H     2.2437105   -3.9718662    3.1567459 
H    -5.1223087    1.4300700    2.5812279 
H     2.0515278   -2.0140644    5.1569450 
H    -5.8164551   -2.4170874    0.7220085 
H    -2.1526385   -2.1968824    6.1712129 
H    -6.7074782   -0.3377047    1.7874662 
H     0.2445075   -2.4695182    6.8282279 
