117
Energy =
C     0.9316974    1.5951907    2.4981945 
C     1.8474537    1.5071579    1.4218911 
C     1.6998331    2.2749733    0.2409349 
H     2.6469437    0.7563043    1.4687832 
Pd   -0.0710553    0.8442992    0.5749544 
P    -0.6415196    0.2502014   -1.6530707 
P    -1.6151315   -0.4917615    1.7447066 
H     0.3439431    2.5202772    2.5925150 
H     1.0949357    3.1918070    0.3084673 
C     1.4931738   -0.6344912    6.1338179 
C     1.8347999   -1.2109899    4.8997398 
C     1.6476177   -0.4904225    3.7168520 
C     1.1055048    0.8127531    3.7368131 
C     0.7582373    1.3774639    4.9830097 
C     0.9569898    0.6619396    6.1697560 
H     1.6369489   -1.1954917    7.0630519 
H     2.2378815   -2.2275748    4.8494440 
H     1.9046308   -0.9598088    2.7655389 
H     0.3336034    2.3857700    5.0195970 
H     0.6829852    1.1163827    7.1271691 
C     4.8027460    2.3919821   -2.7398980 
C     4.5042345    1.1803577   -2.0933597 
C     3.4886190    1.1218123   -1.1327830 
C     2.7310216    2.2750563   -0.8147418 
C     3.0323933    3.4824332   -1.4820850 
C     4.0682151    3.5439660   -2.4241566 
H     5.6035648    2.4358542   -3.4849246 
H     5.0696495    0.2757219   -2.3389371 
H     3.2746542    0.1702753   -0.6329982 
H     2.4591013    4.3857647   -1.2456538 
H     4.2957455    4.4938478   -2.9185439 
O     3.2087393   -2.2232009    0.1996045 
O     1.9580809   -3.1900204    1.8728584 
N     0.9631526   -2.2151062    0.0479979 
C    -0.3713282   -1.6032131   -1.8004108 
C    -2.3296691    0.6231475   -2.4063118 
C     0.4898850    0.9282513   -3.0079807 
C    -1.2231625   -2.4846805   -0.8546966 
C    -0.3657969   -2.7553315    0.4107466 
C     1.0719969   -1.9493590   -1.3950582 
C    -3.3987030   -0.4888719   -2.4071911 
C    -2.9104853    1.9323322   -1.8280070 
C     0.4940951    0.0876403   -4.3062733 
C     0.1703803    2.4130125   -3.3023322 
C    -4.6165110   -0.0374281   -3.2384369 
C    -4.1342904    2.3880718   -2.6427185 
C     1.4164023    0.7046725   -5.3760565 
C     1.0901929    2.9968050   -4.3898915 
C    -5.2035677    1.2856094   -2.7209287 
C     1.0397086    2.1615582   -5.6762585 
C    -0.9182739   -2.2094202    1.7502612 
C     2.0564870   -2.6029171    0.7999483 
C    -3.3997735   -0.6544562    1.2659206 
C    -1.8913807   -0.0751617    3.5224052 
C     4.5315602   -2.6571056    0.7463500 
C    -4.1732675    0.5223714    1.1886041 
C    -2.2865123    1.2429342    3.8340014 
C    -4.0394151   -1.8964325    1.0769787 
C    -1.8328854   -1.0350268    4.5491106 
C     4.7436763   -2.0518113    2.1391089 
C     4.5933067   -4.1894892    0.7506741 
C     5.5185275   -2.0666679   -0.2648226 
C    -5.5467615    0.4610945    0.9246251 
C    -2.6563288    1.5846701    5.1397534 
C    -5.4117200   -1.9550357    0.7901491 
C    -2.1834740   -0.6821115    5.8609365 
C    -6.1694761   -0.7785186    0.7137379 
C    -2.6096706    0.6193864    6.1570974 
H    -0.5637548   -1.8717164   -2.8506613 
H    -2.0737402    0.8068894   -3.4685721 
H     1.5042562    0.8896951   -2.5722047 
H    -2.1894601   -2.0261463   -0.6090221 
H    -1.4484083   -3.4365334   -1.3637403 
H    -0.2601000   -3.8449720    0.5713136 
H     1.4220517   -2.8518901   -1.9361334 
H     1.7997425   -1.1466716   -1.5837216 
H    -3.7248325   -0.7053098   -1.3748356 
H    -2.9927835   -1.4245964   -2.8300631 
H    -2.1458763    2.7281171   -1.8066360 
H    -3.2010466    1.7483667   -0.7793985 
H    -0.5340419    0.0144771   -4.7143603 
H     0.8305028   -0.9430494   -4.1003327 
H     0.2502655    3.0041039   -2.3714508 
H    -0.8734375    2.5071729   -3.6557473 
H    -5.3853257   -0.8307277   -3.2224522 
H    -4.3070033    0.0832666   -4.2955906 
H    -3.8040585    2.6574164   -3.6658340 
H    -4.5582672    3.3065446   -2.1979702 
H     2.4620711    0.6655052   -5.0127792 
H     1.3724941    0.0889750   -6.2924455 
H     0.7978343    4.0437599   -4.5884531 
H     2.1279927    3.0194480   -4.0149203 
H    -6.0399735    1.6093781   -3.3657807 
H    -5.6249501    1.1179331   -1.7123381 
H     1.7202111    2.5855864   -6.4359157 
H     0.0196965    2.1978258   -6.1080925 
H    -0.0971225   -2.2128968    2.4857299 
H    -1.6835870   -2.9059079    2.1346591 
H    -3.7029792    1.4979164    1.3454149 
H    -2.2944483    2.0107831    3.0520665 
H    -3.4807420   -2.8339258    1.1514916 
H    -1.5115722   -2.0599390    4.3452245 
H     4.5957056   -0.9585503    2.1113668 
H     4.0534519   -2.4907562    2.8731736 
H     5.7797882   -2.2467911    2.4644684 
H     4.3924831   -4.5831693   -0.2605777 
H     3.8641544   -4.6136174    1.4569316 
H     5.6046070   -4.5116101    1.0513453 
H     5.4893178   -0.9650923   -0.2436624 
H     6.5428610   -2.3891145   -0.0153929 
H     5.2800940   -2.4122309   -1.2847942 
H    -6.1305390    1.3860055    0.8778842 
H    -2.9685952    2.6095607    5.3657262 
H    -5.8892907   -2.9284647    0.6383267 
H    -2.1229311   -1.4348408    6.6535691 
H    -7.2413029   -0.8266258    0.4968951 
H    -2.8925674    0.8851764    7.1807130 
