117
Energy =
C     0.7658176    2.0453095    2.2677800 
C     1.7725186    1.9815341    1.2877545 
C     1.5852561    2.5107510   -0.0249364 
H     2.6962692    1.4296535    1.5045300 
Pd    0.1373984    0.8337620    0.3359206 
P    -0.7656265    0.5609479   -1.8451191 
P    -1.0132090   -0.9696280    1.3393230 
H    -0.1075790    2.6822778    2.0581348 
H     0.9188956    3.3788763   -0.1228923 
C     1.2361547    1.0848884    6.4242481 
C    -0.0410703    1.3074746    5.8858784 
C    -0.1856661    1.6040107    4.5281180 
C     0.9401317    1.6662265    3.6737202 
C     2.2208857    1.4333158    4.2314436 
C     2.3656823    1.1542927    5.5931366 
H     1.3513144    0.8646501    7.4904343 
H    -0.9252346    1.2509180    6.5282034 
H    -1.1837885    1.7834527    4.1147879 
H     3.1141884    1.5059004    3.6033714 
H     3.3651250    0.9973909    6.0116349 
C     4.7413738    2.1638055   -2.9372954 
C     4.3997091    1.0641833   -2.1321705 
C     3.3826707    1.1849145   -1.1799659 
C     2.6684254    2.3939304   -1.0274396 
C     3.0314336    3.4963080   -1.8319122 
C     4.0631919    3.3820392   -2.7737416 
H     5.5355842    2.0742019   -3.6856660 
H     4.9071174    0.1010956   -2.2446598 
H     3.1196575    0.3106793   -0.5764744 
H     2.5078373    4.4514955   -1.7127423 
H     4.3361463    4.2477540   -3.3862030 
O     2.2518287   -3.2678013    0.5617041 
O     3.4501640   -2.0086596   -0.9437673 
N     1.1627915   -2.1065801   -1.0356605 
C    -0.3355239   -1.1189626   -2.5583306 
C    -2.6489157    0.5374592   -1.8265432 
C    -0.3780426    1.7119412   -3.2926759 
C    -1.0473877   -2.3214963   -1.8924255 
C    -0.1005992   -2.8277213   -0.7745623 
C     1.1534459   -1.4314477   -2.3380187 
C    -3.2692219    1.8748030   -1.3659306 
C    -3.3067297    0.0535648   -3.1396335 
C    -0.4028715    3.2054680   -2.9024153 
C     0.9082415    1.3980353   -4.0907440 
C    -4.7962689    1.7548862   -1.2180614 
C    -4.8341287   -0.0656083   -2.9707804 
C    -0.3450701    4.0955484   -4.1576166 
C     0.9866632    2.2917392   -5.3452044 
C    -5.4530513    1.2652621   -2.5175555 
C     0.9020766    3.7866533   -5.0006625 
C    -0.6261123   -2.6703719    0.6585127 
C     2.3922564   -2.4394325   -0.4992242 
C    -2.8432185   -0.7836962    1.4029243 
C    -0.6225099   -1.3473555    3.1031481 
C     3.4427814   -3.8247130    1.2657952 
C    -3.3231461    0.4256303    1.9525701 
C     0.7397580   -1.4711816    3.4453261 
C    -3.7665239   -1.7845903    1.0446354 
C    -1.6074277   -1.6217608    4.0709409 
C     4.2635468   -4.6669568    0.2812881 
C     4.2627162   -2.6841053    1.8844734 
C     2.7995772   -4.6992436    2.3468300 
C    -4.6919926    0.6110767    2.1798706 
C     1.1110010   -1.8907022    4.7269414 
C    -5.1413838   -1.5854524    1.2470905 
C    -1.2290459   -2.0343730    5.3573688 
C    -5.6050400   -0.3967527    1.8283235 
C     0.1260552   -2.1746543    5.6861511 
H    -0.5752690   -1.0717144   -3.6332701 
H    -2.8777121   -0.2049191   -1.0389349 
H    -1.2351306    1.5232779   -3.9706871 
H    -2.0484085   -2.0815286   -1.4981368 
H    -1.1874241   -3.1106367   -2.6500029 
H     0.0758977   -3.9140610   -0.8990650 
H     1.5380071   -2.1002492   -3.1348478 
H     1.8057629   -0.5465661   -2.3067650 
H    -3.0502448    2.6591550   -2.1132534 
H    -2.8079120    2.1964127   -0.4132881 
H    -2.8932531   -0.9188817   -3.4591331 
H    -3.0926011    0.7732116   -3.9528732 
H     0.4742933    3.4146345   -2.2713468 
H    -1.2934834    3.4510866   -2.3023265 
H     0.9329654    0.3421933   -4.4097803 
H     1.7953491    1.5687075   -3.4559644 
H    -5.2149839    2.7306803   -0.9123515 
H    -5.0237303    1.0414025   -0.4063151 
H    -5.0535165   -0.8482359   -2.2174617 
H    -5.2843504   -0.4028021   -3.9215824 
H    -1.2571924    3.9286952   -4.7645739 
H    -0.3560548    5.1591706   -3.8580240 
H     1.9246756    2.0740969   -5.8867411 
H     0.1561465    2.0247639   -6.0288730 
H    -6.5429809    1.1531446   -2.3769558 
H    -5.3129409    2.0232097   -3.3134928 
H     0.9012724    4.3918206   -5.9248486 
H     1.8045056    4.0751782   -4.4300929 
H     0.1420599   -3.0588207    1.3425067 
H    -1.5166055   -3.3076381    0.7995507 
H    -2.6121715    1.2179359    2.2144747 
H     1.5078557   -1.2454238    2.6969225 
H    -3.4255878   -2.7321591    0.6155890 
H    -2.6690734   -1.5284600    3.8239575 
H     3.6250840   -5.4361398   -0.1860074 
H     4.7054995   -4.0368263   -0.5048683 
H     5.0755104   -5.1774335    0.8265874 
H     3.6329675   -2.0726226    2.5532262 
H     4.6935821   -2.0401391    1.1038736 
H     5.0821785   -3.1125473    2.4864047 
H     2.1732828   -5.4823042    1.8874293 
H     3.5834942   -5.1871524    2.9496941 
H     2.1685929   -4.0909290    3.0164439 
H    -5.0493191    1.5478944    2.6191217 
H     2.1713569   -1.9819192    4.9822786 
H    -5.8492898   -2.3703004    0.9616115 
H    -2.0008821   -2.2526614    6.1027970 
H    -6.6765060   -0.2500501    1.9974904 
H     0.4169813   -2.4984104    6.6906219 
