117
Energy =
C    -1.1449892    2.5917303    2.1655470 
C    -0.5313951    3.2830005    1.0857389 
C    -1.2048707    3.4416460   -0.1472194 
H     0.5119465    3.6109034    1.1755227 
Pd   -0.9091154    1.2224291    0.3653988 
P    -0.3526756    0.3817279   -1.7643257 
P    -1.2913493   -0.7428862    1.6210981 
H    -2.2440228    2.5734053    2.1904157 
H    -2.3001584    3.3328650   -0.1204440 
C     0.6943610    1.9894599    6.0072331 
C     1.5027237    2.1673462    4.8713737 
C     0.9196135    2.3574971    3.6161270 
C    -0.4872828    2.3715083    3.4654508 
C    -1.2862859    2.1957808    4.6169048 
C    -0.7012275    2.0085870    5.8750502 
H     1.1534109    1.8397716    6.9898113 
H     2.5933553    2.1526174    4.9672586 
H     1.5657298    2.4840766    2.7406129 
H    -2.3769615    2.2095896    4.5185849 
H    -1.3399996    1.8749069    6.7541782 
C     0.1764635    5.6928099   -3.5438915 
C     1.1122975    5.1195950   -2.6651355 
C     0.6813551    4.3899029   -1.5529090 
C    -0.6971533    4.2004242   -1.3029548 
C    -1.6263800    4.7938776   -2.1882918 
C    -1.1949726    5.5373928   -3.2939889 
H     0.5170349    6.2646585   -4.4129095 
H     2.1845552    5.2457226   -2.8482351 
H     1.4230884    3.9515467   -0.8784213 
H    -2.6990375    4.6727020   -2.0007864 
H    -1.9315029    5.9906736   -3.9651279 
O     1.8079351   -4.2891289    0.2795384 
O    -0.2510314   -5.0482918    0.9992922 
N    -0.0382026   -3.1271745   -0.2234322 
C    -0.2494215   -1.4749718   -1.9312724 
C    -1.5136666    0.7891913   -3.2036308 
C     1.3557766    0.9948343   -2.2479039 
C    -1.6173656   -2.1702922   -1.6811111 
C    -1.4814190   -2.9275720   -0.3449326 
C     0.7547867   -2.1432867   -0.9548369 
C    -2.9102166    1.1864999   -2.6702679 
C    -0.9893573    1.8519564   -4.1947348 
C     2.3012644    1.1516172   -1.0338000 
C     2.0527884    0.1860982   -3.3651420 
C    -3.9100650    1.4057830   -3.8185394 
C    -1.9977138    2.0834686   -5.3369639 
C     3.6188230    1.8297858   -1.4519284 
C     3.3632338    0.8760609   -3.7900315 
C    -3.3918675    2.4586219   -4.8109604 
C     4.3089125    1.0626466   -2.5922100 
C    -2.1239001   -2.2411973    0.8760941 
C     0.4626597   -4.2426186    0.4124187 
C    -2.5389070   -0.4082099    2.9392747 
C     0.2011573   -1.3971335    2.4570535 
C     2.5654911   -5.5320602    0.5867064 
C    -3.7443906    0.2078936    2.5365069 
C     1.4000914   -0.6673270    2.3451450 
C    -2.3584461   -0.7488649    4.2917997 
C     0.1813672   -2.5831244    3.2228447 
C     2.0124931   -6.6815737   -0.2657926 
C     3.9882854   -5.1545712    0.1624157 
C     2.4982222   -5.8365983    2.0875643 
C    -4.7566797    0.4647924    3.4692870 
C     2.5611084   -1.1014470    2.9983095 
C    -3.3795713   -0.4974394    5.2221341 
C     1.3396982   -3.0048503    3.8856702 
C    -4.5765763    0.1071814    4.8163745 
C     2.5282940   -2.2648330    3.7788646 
H     0.0674357   -1.6528909   -2.9726380 
H    -1.6159532   -0.1658554   -3.7567069 
H     1.1486165    2.0122985   -2.6311048 
H    -2.4668600   -1.4678255   -1.6654741 
H    -1.8114336   -2.8929081   -2.4901518 
H    -1.9538627   -3.9223292   -0.4098852 
H     1.5839664   -2.6428211   -1.4806985 
H     1.2060618   -1.4131310   -0.2547019 
H    -2.8073010    2.1192608   -2.0859253 
H    -3.2903990    0.4222595   -1.9670835 
H    -0.0222216    1.5416705   -4.6235553 
H    -0.8155747    2.8021174   -3.6612308 
H     2.5265467    0.1581198   -0.6028583 
H     1.7969237    1.7300039   -0.2357791 
H     1.3885465    0.0574197   -4.2383121 
H     2.2883671   -0.8284242   -2.9910928 
H    -4.8899131    1.7076679   -3.4064096 
H    -4.0713927    0.4461472   -4.3480296 
H    -2.0727914    1.1612098   -5.9464135 
H    -1.6116291    2.8733177   -6.0060729 
H     3.4039235    2.8634601   -1.7875705 
H     4.2901593    1.9125927   -0.5781053 
H     3.8547753    0.2836630   -4.5821903 
H     3.1241813    1.8631740   -4.2323824 
H    -4.0992026    2.5749942   -5.6511686 
H    -3.3368361    3.4410707   -4.3033344 
H     5.2273329    1.5895071   -2.9063668 
H     4.6258743    0.0678696   -2.2213283 
H    -2.1911012   -2.9718916    1.7013362 
H    -3.1578184   -1.9342932    0.6382017 
H    -3.8882945    0.4932787    1.4859130 
H     1.4125056    0.2448259    1.7397665 
H    -1.4172361   -1.1900136    4.6307562 
H    -0.7247342   -3.1916993    3.2952533 
H     0.9840224   -6.9338959    0.0343704 
H     2.0209101   -6.4037014   -1.3340356 
H     2.6483189   -7.5738583   -0.1361590 
H     4.3347956   -4.2740126    0.7296168 
H     4.0223115   -4.9160936   -0.9142140 
H     4.6761335   -5.9940277    0.3582559 
H     1.4594287   -6.0160505    2.4015613 
H     3.1001887   -6.7360132    2.3032122 
H     2.9128870   -4.9945159    2.6644389 
H    -5.6875140    0.9422507    3.1460823 
H     3.4870864   -0.5248413    2.9038331 
H    -3.2272404   -0.7647764    6.2728923 
H     1.3149641   -3.9235914    4.4794281 
H    -5.3680578    0.3052883    5.5463729 
H     3.4309580   -2.6031399    4.2982183 
