117
Energy =
C     0.9864362    1.6331009    2.4516666 
C     1.8860922    1.5097540    1.3655308 
C     1.7320072    2.2538918    0.1700591 
H     2.6761964    0.7493777    1.4178408 
Pd   -0.0521252    0.8556591    0.5557035 
P    -0.6589197    0.2237245   -1.6499231 
P    -1.5993981   -0.4339920    1.7726653 
H     0.4117686    2.5676000    2.5331329 
H     1.1401161    3.1799757    0.2265079 
C     1.5647709   -0.5269607    6.1263318 
C     1.8813433   -1.1344480    4.9004672 
C     1.6887380   -0.4363838    3.7050082 
C     1.1657662    0.8747128    3.7042691 
C     0.8436779    1.4708266    4.9425829 
C     1.0481076    0.7777807    6.1416344 
H     1.7127603   -1.0702977    7.0653485 
H     2.2687848   -2.1577745    4.8666481 
H     1.9263698   -0.9295802    2.7607453 
H     0.4342994    2.4858890    4.9632089 
H     0.7938087    1.2564245    7.0926826 
C     4.7984361    2.2698018   -2.8505603 
C     4.4918752    1.0753272   -2.1764895 
C     3.4877051    1.0495726   -1.2025134 
C     2.7498896    2.2191100   -0.8979930 
C     3.0591997    3.4089877   -1.5925563 
C     4.0836233    3.4377654   -2.5485587 
H     5.5901737    2.2880389   -3.6062905 
H     5.0420478    0.1584289   -2.4109887 
H     3.2672748    0.1111591   -0.6811431 
H     2.5013648    4.3246209   -1.3667249 
H     4.3176204    4.3745226   -3.0645027 
O     3.1820329   -2.2618696    0.2056207 
O     1.9402074   -3.1771500    1.9140825 
N     0.9350620   -2.2276303    0.0814541 
C    -0.4145508   -1.6356371   -1.7624590 
C    -2.3520736    0.6041852   -2.3878322 
C     0.4624625    0.8591282   -3.0335041 
C    -1.2656283   -2.4865883   -0.7884911 
C    -0.3962988   -2.7418597    0.4720431 
C     1.0290353   -1.9928593   -1.3679980 
C    -3.4343807   -0.4944588   -2.3548235 
C    -2.9090476    1.9306892   -1.8258658 
C     0.4362712   -0.0064341   -4.3150100 
C     0.1593313    2.3423347   -3.3523017 
C    -4.6572958   -0.0428968   -3.1783635 
C    -4.1384888    2.3866514   -2.6319051 
C     1.3518101    0.5766196   -5.4093746 
C     1.0714767    2.8917868   -4.4638763 
C    -5.2216730    1.2959627   -2.6765670 
C     0.9907904    2.0325276   -5.7328011 
C    -0.9247648   -2.1603271    1.8063990 
C     2.0325346   -2.6139072    0.8279068 
C    -3.3924861   -0.5844769    1.3213823 
C    -1.8462777    0.0253114    3.5442304 
C     4.5059360   -2.7002028    0.7458485 
C    -4.1538352    0.5995130    1.2331133 
C    -2.2169846    1.3558409    3.8320162 
C    -4.0486461   -1.8222314    1.1636475 
C    -1.7892298   -0.9130218    4.5907143 
C     4.5491321   -4.2327334    0.7844919 
C     5.4874955   -2.1453636   -0.2904837 
C     4.7429577   -2.0660527    2.1216945 
C    -5.5312753    0.5491995    0.9882199 
C    -2.5639582    1.7315231    5.1347212 
C    -5.4252287   -1.8703187    0.8960130 
C    -2.1167290   -0.5263131    5.8989782 
C    -6.1706655   -0.6867818    0.8080641 
C    -2.5185151    0.7878999    6.1722141 
H    -0.6238255   -1.9230852   -2.8044492 
H    -2.1081936    0.7656629   -3.4565263 
H     1.4823902    0.8148491   -2.6114650 
H    -2.2232370   -2.0111394   -0.5410398 
H    -1.5084216   -3.4458737   -1.2750366 
H    -0.3030670   -3.8291553    0.6546001 
H     1.3601313   -2.9109122   -1.8947033 
H     1.7649183   -1.2041591   -1.5823209 
H    -3.7496044   -0.6881601   -1.3145990 
H    -3.0452345   -1.4425916   -2.7656650 
H    -2.1344830    2.7170982   -1.8298329 
H    -3.1870402    1.7695939   -0.7701264 
H    -0.5985600   -0.0727301   -4.7070040 
H     0.7611196   -1.0376878   -4.0937783 
H     0.2607582    2.9501343   -2.4343992 
H    -0.8881231    2.4444120   -3.6925325 
H    -5.4352630   -0.8263911   -3.1388811 
H    -4.3599676    0.0557056   -4.2413066 
H    -3.8191284    2.6343112   -3.6639418 
H    -4.5455331    3.3177259   -2.1976645 
H     2.4018379    0.5300379   -5.0597834 
H     1.2866588   -0.0561264   -6.3127849 
H     0.7910206    3.9387536   -4.6788822 
H     2.1147679    2.9069986   -4.1040032 
H    -6.0627100    1.6185593   -3.3159422 
H    -5.6314346    1.1509360   -1.6597019 
H     1.6658300    2.4320939   -6.5103740 
H    -0.0348716    2.0746734   -6.1505513 
H    -0.0944014   -2.1590831    2.5315104 
H    -1.6939690   -2.8385645    2.2149163 
H    -3.6707954    1.5722799    1.3666081 
H    -2.2238112    2.1065580    3.0336029 
H    -3.4997270   -2.7646025    1.2482725 
H    -1.4870129   -1.9471899    4.4050803 
H     4.3307195   -4.6468146   -0.2149139 
H     5.5603312   -4.5602216    1.0797012 
H     3.8240777   -4.6318026    1.5092952 
H     5.4711442   -1.0433272   -0.2948492 
H     5.2329027   -2.5117772   -1.2992037 
H     6.5109685   -2.4738439   -0.0454824 
H     4.0565221   -2.4792667    2.8740276 
H     5.7805348   -2.2665074    2.4389019 
H     4.6081421   -0.9719266    2.0705368 
H    -6.1052301    1.4797245    0.9323535 
H    -2.8571705    2.7658811    5.3423402 
H    -5.9156900   -2.8408087    0.7683845 
H    -2.0576246   -1.2626898    6.7069271 
H    -7.2457629   -0.7265088    0.6062484 
H    -2.7831954    1.0802832    7.1934498 
