117
Energy =
C    -1.1879742    2.5807824    2.1555479 
C    -0.5682326    3.2776335    1.0828362 
C    -1.2302158    3.4329900   -0.1567250 
H     0.4717148    3.6129854    1.1836932 
Pd   -0.9230240    1.2155089    0.3563290 
P    -0.3349778    0.3816827   -1.7674314 
P    -1.3054376   -0.7538822    1.6059571 
H    -2.2870465    2.5546991    2.1690903 
H    -2.3248709    3.3159238   -0.1414350 
C     0.6166754    1.9852808    6.0146391 
C     1.4351494    2.1712086    4.8873475 
C     0.8633791    2.3592302    3.6265877 
C    -0.5419764    2.3631827    3.4617034 
C    -1.3512913    2.1794670    4.6046916 
C    -0.7776105    1.9942700    5.8683579 
H     1.0668500    1.8374727    7.0015956 
H     2.5248305    2.1643737    4.9942672 
H     1.5173361    2.4917661    2.7578215 
H    -2.4409819    2.1856309    4.4953560 
H    -1.4242098    1.8544062    6.7407722 
C     0.1687374    5.6981832   -3.5367646 
C     1.0998593    5.1310628   -2.6490811 
C     0.6631015    4.3970185   -1.5420039 
C    -0.7164285    4.1967154   -1.3064696 
C    -1.6410199    4.7838258   -2.2008395 
C    -1.2039678    5.5319565   -3.3011932 
H     0.5138293    6.2736088   -4.4016231 
H     2.1729467    5.2654783   -2.8210884 
H     1.4011901    3.9635701   -0.8603911 
H    -2.7145898    4.6541340   -2.0245848 
H    -1.9369702    5.9802350   -3.9795070 
O     1.8358779   -4.2740729    0.2993857 
O    -0.2261791   -5.0517252    0.9899699 
N    -0.0129757   -3.1266176   -0.2263630 
C    -0.2161101   -1.4740284   -1.9347330 
C    -1.4809257    0.7819443   -3.2207232 
C     1.3746819    1.0078262   -2.2297078 
C    -1.5818647   -2.1794804   -1.7013967 
C    -1.4560812   -2.9375427   -0.3646698 
C     0.7812591   -2.1357555   -0.9468936 
C    -2.8874692    1.1667512   -2.7046956 
C    -0.9529869    1.8507547   -4.2033562 
C     2.3043686    1.1703244   -1.0042288 
C     2.0909275    0.2055199   -3.3393489 
C    -3.8742930    1.3787895   -3.8655486 
C    -1.9485040    2.0756653   -5.3581284 
C     3.6217781    1.8586041   -1.4059281 
C     3.4013520    0.9054017   -3.7476954 
C    -3.3526056    2.4377086   -4.8496292 
C     4.3311388    1.0975010   -2.5383651 
C    -2.1179688   -2.2575586    0.8496060 
C     0.4885759   -4.2390307    0.4142035 
C    -2.5707690   -0.4296683    2.9097376 
C     0.1819539   -1.3984402    2.4584329 
C     2.5992122   -5.5121405    0.6117776 
C    -3.7761583    0.1774812    2.4933225 
C     1.3775851   -0.6614483    2.3589828 
C    -2.4034507   -0.7698022    4.2640923 
C     0.1614972   -2.5848941    3.2234816 
C     4.0246995   -5.1211437    0.2093534 
C     2.5134699   -5.8245175    2.1100872 
C     2.0675149   -6.6619883   -0.2537194 
C    -4.8012605    0.4258045    3.4143472 
C     2.5346551   -1.0892656    3.0231979 
C    -3.4372856   -0.5269374    5.1825705 
C     1.3156182   -3.0001523    3.8976157 
C    -4.6341476    0.0686268    4.7632064 
C     2.5009293   -2.2532880    3.8027519 
H     0.1144159   -1.6488193   -2.9723732 
H    -1.5681485   -0.1729887   -3.7766040 
H     1.1645706    2.0241451   -2.6143177 
H    -2.4364295   -1.4830627   -1.6946665 
H    -1.7614411   -2.9023312   -2.5135743 
H    -1.9203270   -3.9356893   -0.4364236 
H     1.6205973   -2.6283339   -1.4631152 
H     1.2182675   -1.4029312   -0.2405549 
H    -2.7999269    2.0996778   -2.1180767 
H    -3.2700914    0.3984613   -2.0072944 
H     0.0221778    1.5494477   -4.6202198 
H    -0.7941511    2.8014097   -3.6661177 
H     2.5316960    0.1780581   -0.5715469 
H     1.7863600    1.7442338   -0.2117365 
H     1.4381667    0.0731905   -4.2206009 
H     2.3292424   -0.8077695   -2.9636994 
H    -4.8620836    1.6713337   -3.4658324 
H    -4.0201168    0.4185260   -4.3983860 
H    -2.0076276    1.1539388   -5.9701405 
H    -1.5606670    2.8701132   -6.0207460 
H     3.4031758    2.8909389   -1.7433633 
H     4.2819439    1.9457180   -0.5240609 
H     3.9066936    0.3174628   -4.5344747 
H     3.1605160    1.8912562   -4.1919021 
H    -4.0499536    2.5491967   -5.6987889 
H    -3.3128171    3.4197476   -4.3398257 
H     5.2495555    1.6311354   -2.8408763 
H     4.6505698    0.1046286   -2.1645223 
H    -2.1891824   -2.9898099    1.6731421 
H    -3.1513344   -1.9582292    0.5999677 
H    -3.9099106    0.4627639    1.4413651 
H     1.3905905    0.2512598    1.7544648 
H    -1.4628696   -1.2038521    4.6137495 
H    -0.7417071   -3.1987880    3.2866064 
H     4.3559569   -4.2405363    0.7855296 
H     4.7165596   -5.9559253    0.4109438 
H     4.0719364   -4.8772046   -0.8655472 
H     1.4719137   -6.0137281    2.4087425 
H     2.9134035   -4.9820838    2.6967546 
H     3.1196217   -6.7201549    2.3296994 
H     2.0890329   -6.3791532   -1.3204645 
H     2.7081839   -7.5500367   -0.1189722 
H     1.0368223   -6.9235865    0.0305678 
H    -5.7319411    0.8962052    3.0805368 
H     3.4581648   -0.5072822    2.9380482 
H    -3.2952577   -0.7939712    6.2348502 
H     1.2902986   -3.9192736    4.4907616 
H    -5.4357178    0.2598091    5.4839787 
H     3.4004346   -2.5867223    4.3306685 
