117
Energy =
C    -1.3664597    2.5768632    2.0271915 
C    -0.4044762    3.0756260    1.1228124 
C    -0.6827716    3.2418494   -0.2594732 
H     0.6099436    3.2664608    1.4943139 
Pd   -0.8667650    1.0481199    0.3620314 
P    -0.6197758    0.1183834   -1.8100170 
P    -1.1590856   -0.8081973    1.8101444 
H    -2.4243627    2.6402113    1.7302060 
H    -1.7390267    3.3500319   -0.5454270 
C    -0.7273330    2.4615231    6.2749416 
C     0.3354430    2.1584135    5.4074145 
C     0.1395750    2.1749339    4.0233470 
C    -1.1282324    2.4804272    3.4783152 
C    -2.1920770    2.7659822    4.3616457 
C    -1.9899144    2.7679526    5.7465500 
H    -0.5716955    2.4529907    7.3587103 
H     1.3211069    1.9058899    5.8118316 
H     0.9732939    1.9255760    3.3611065 
H    -3.1832664    2.9923901    3.9552802 
H    -2.8251106    2.9981443    6.4156085 
C     2.0543975    5.0881658   -3.0273277 
C     2.5406379    4.5398022   -1.8282403 
C     1.6663581    3.9228421   -0.9278290 
C     0.2783403    3.8522082   -1.1971440 
C    -0.1974096    4.4291761   -2.3973720 
C     0.6806857    5.0319158   -3.3067874 
H     2.7423066    5.5626636   -3.7342442 
H     3.6106244    4.5840245   -1.6008234 
H     2.0721903    3.4743906   -0.0153418 
H    -1.2720999    4.4143133   -2.6103829 
H     0.2896451    5.4689595   -4.2313229 
O     1.7961001   -3.8966726   -0.4564224 
O     0.3608496   -4.3841691    1.2792037 
N    -0.2530925   -3.0026671   -0.4568182 
C    -1.1819211   -1.6522794   -2.1279827 
C    -1.6984147    1.0980987   -2.9863898 
C     1.1184102    0.1144289   -2.5287768 
C    -2.3335286   -2.0915723   -1.1919033 
C    -1.6769623   -2.9619979   -0.0794767 
C    -0.1143725   -2.7260887   -1.8863458 
C    -1.7698254    0.5994118   -4.4465378 
C    -3.1282943    1.2961493   -2.4313761 
C     1.5213402    1.3502738   -3.3578557 
C     2.1241142   -0.1194621   -1.3754063 
C    -2.5262859    1.6238869   -5.3152562 
C    -3.9092343    2.3064801   -3.2917268 
C     2.9628984    1.2039914   -3.8813746 
C     3.5595753   -0.2668279   -1.9036164 
C    -3.9410585    1.8818071   -4.7699125 
C     3.9664235    0.9546112   -2.7433447 
C    -1.9260702   -2.4477280    1.3367642 
C     0.6283134   -3.8307433    0.2200927 
C    -2.3108980   -0.4408307    3.2083839 
C     0.4639621   -1.2191430    2.5647552 
C     2.9250072   -4.7453058    0.0119410 
C    -3.6190278   -0.0453607    2.8524517 
C     0.6200495   -2.2671927    3.4963913 
C    -1.9821471   -0.5860945    4.5668711 
C     1.5791759   -0.4216023    2.2390755 
C     2.4789072   -6.2123957    0.0358773 
C     3.9827926   -4.4977320   -1.0682802 
C     3.4013657   -4.2499484    1.3809373 
C    -4.5910234    0.1639837    3.8383038 
C     1.8567321   -2.4740090    4.1210845 
C    -2.9596200   -0.3739329    5.5514735 
C     2.8188929   -0.6387623    2.8545566 
C    -4.2641965   -0.0105819    5.1927179 
C     2.9544038   -1.6574802    3.8090324 
H    -1.4927462   -1.6640601   -3.1850968 
H    -1.1935070    2.0834679   -2.9867499 
H     1.1440035   -0.7612824   -3.2073141 
H    -2.8674637   -1.2292695   -0.7552307 
H    -3.0752275   -2.6843186   -1.7518685 
H    -2.0927985   -3.9891284   -0.1168714 
H    -0.3552006   -3.6281771   -2.4885638 
H     0.9166182   -2.4423070   -2.1290966 
H    -2.3129184   -0.3646860   -4.4836375 
H    -0.7625934    0.4148544   -4.8591328 
H    -3.0903188    1.6265171   -1.3754197 
H    -3.6605160    0.3247503   -2.4372837 
H     1.4532828    2.2512429   -2.7317019 
H     0.8352326    1.4981757   -4.2074810 
H     1.8409141   -1.0006625   -0.7716183 
H     2.0655654    0.7566880   -0.6990794 
H    -2.5753491    1.2636520   -6.3582680 
H    -1.9538157    2.5723522   -5.3333747 
H    -3.4267828    3.3004253   -3.2044567 
H    -4.9360789    2.4193579   -2.9001136 
H     3.0080117    0.3624777   -4.6010189 
H     3.2360593    2.1160442   -4.4421091 
H     4.2536409   -0.4094646   -1.0551714 
H     3.6254745   -1.1840459   -2.5215907 
H    -4.4521739    2.6498661   -5.3770465 
H    -4.5396369    0.9544514   -4.8660973 
H     4.9837977    0.8209346   -3.1523096 
H     4.0000188    1.8479538   -2.0894337 
H    -1.5643411   -3.1852603    2.0712700 
H    -3.0125577   -2.3318500    1.4872442 
H    -3.8788965    0.0965957    1.7949655 
H    -0.2179743   -2.9260648    3.7411325 
H    -0.9634127   -0.8458264    4.8662100 
H     1.4611736    0.3774355    1.4971817 
H     1.6977880   -6.3733723    0.7941783 
H     2.0908973   -6.5104821   -0.9532276 
H     3.3440757   -6.8539534    0.2750691 
H     4.2531334   -3.4287803   -1.1050921 
H     3.6029906   -4.7999517   -2.0587645 
H     4.8907013   -5.0828784   -0.8466554 
H     2.6298472   -4.4128478    2.1469180 
H     4.3167786   -4.7941447    1.6702087 
H     3.6336521   -3.1726696    1.3373934 
H    -5.6043238    0.4626048    3.5497077 
H     1.9646972   -3.2854192    4.8478551 
H    -2.6903771   -0.4849172    6.6067002 
H     3.6763486   -0.0107060    2.5907243 
H    -5.0229939    0.1495717    5.9654801 
H     3.9192746   -1.8274693    4.2978089 
