117
Energy =
C    -1.4464448    2.7031650    2.1427453 
C    -0.5634468    3.3357038    1.2316927 
C    -0.9395649    3.5323587   -0.1223351 
H     0.4582289    3.5687387    1.5575392 
Pd   -0.9122419    1.3191785    0.4067504 
P    -0.3331609    0.5483751   -1.7422678 
P    -1.2444666   -0.6750959    1.6253447 
H    -2.5217807    2.7479393    1.9126350 
H    -2.0198285    3.5353800   -0.3303973 
C    -0.5610263    2.1204070    6.3097902 
C     0.4590537    1.9656908    5.3559506 
C     0.1832797    2.1463822    3.9972464 
C    -1.1214119    2.4720821    3.5627399 
C    -2.1397450    2.6109793    4.5300802 
C    -1.8591592    2.4472346    5.8917233 
H    -0.3437005    1.9817427    7.3738981 
H     1.4728480    1.7000145    5.6730043 
H     0.9834280    2.0125777    3.2630144 
H    -3.1591997    2.8477102    4.2082509 
H    -2.6612340    2.5629288    6.6276248 
C     1.3519322    5.4816486   -3.2039299 
C     1.9583335    5.1861061   -1.9719271 
C     1.2325063    4.5525144   -0.9570595 
C    -0.1248987    4.2065228   -1.1487915 
C    -0.7314210    4.5460331   -2.3813491 
C    -0.0011217    5.1656569   -3.4017292 
H     1.9258103    5.9728684   -3.9961117 
H     3.0058353    5.4545798   -1.8007067 
H     1.7308765    4.3273551   -0.0091939 
H    -1.7935034    4.3240741   -2.5316132 
H    -0.4918011    5.4141279   -4.3485125 
O     1.8908884   -4.1520925    0.0879771 
O    -0.1373106   -4.9401055    0.8630716 
N     0.0187811   -3.0027155   -0.3417973 
C    -0.2592899   -1.2966332   -1.9851792 
C    -1.5271917    1.1586187   -3.0670839 
C     1.3516163    1.2032402   -2.2695251 
C    -1.6238767   -1.9785670   -1.6845786 
C    -1.4286404   -2.8083298   -0.3992637 
C     0.7823744   -1.9930588   -1.0675383 
C    -1.5911645    0.3267814   -4.3691159 
C    -2.9553026    1.3885122   -2.5162778 
C     2.3454888    1.2436863   -1.0843280 
C     1.9823416    0.4960125   -3.4900172 
C    -2.4796283    1.0261568   -5.4165542 
C    -3.8502416    2.0775067   -3.5623398 
C     3.6896946    1.8746235   -1.4882738 
C     3.3164406    1.1593004   -3.8829231 
C    -3.8952677    1.2809583   -4.8760781 
C     4.3038453    1.1673686   -2.7061718 
C    -2.0337607   -2.1964975    0.8782096 
C     0.5499716   -4.1204466    0.2639969 
C    -2.4307118   -0.4486073    3.0190830 
C     0.3189343   -1.2850752    2.3668926 
C     2.6691658   -5.3918741    0.3527129 
C    -3.7265298    0.0041387    2.6879033 
C     1.4931098   -0.5273781    2.1888908 
C    -2.1196774   -0.7289694    4.3611632 
C     0.3741480   -2.4762220    3.1219777 
C     4.0737611   -4.9956442   -0.1131471 
C     2.6543542   -5.7172643    1.8507110 
C     2.0984013   -6.5349938   -0.4966976 
C    -4.7053274    0.1378642    3.6802773 
C     2.7029535   -0.9410130    2.7624824 
C    -3.1046800   -0.5934124    5.3514405 
C     1.5808481   -2.8773951    3.7074496 
C    -4.3974793   -0.1710170    5.0152279 
C     2.7447269   -2.1120405    3.5320651 
H     0.0120799   -1.4583374   -3.0404207 
H    -1.1026763    2.1502749   -3.3171892 
H     1.1275637    2.2507066   -2.5517819 
H    -2.4493363   -1.2564410   -1.5722097 
H    -1.8904196   -2.6471363   -2.5190293 
H    -1.8974554   -3.8021983   -0.5003748 
H     1.5948054   -2.4692970   -1.6392727 
H     1.2542090   -1.2863708   -0.3578699 
H    -2.0152151   -0.6710398   -4.1483595 
H    -0.5833588    0.1618371   -4.7857914 
H    -2.9136257    1.9844351   -1.5869304 
H    -3.4067983    0.4162259   -2.2397239 
H     2.5299885    0.2171105   -0.7170808 
H     1.8921365    1.8035202   -0.2447191 
H     1.2917915    0.5105797   -4.3502202 
H     2.1720674   -0.5668364   -3.2451346 
H    -2.5197694    0.4121180   -6.3339035 
H    -2.0122178    1.9898354   -5.6999869 
H    -3.4551502    3.0929682   -3.7645076 
H    -4.8675383    2.2108605   -3.1526602 
H     3.5265880    2.9400853   -1.7337465 
H     4.3834284    1.8455014   -0.6283687 
H     3.7481893    0.6294944   -4.7507384 
H     3.1201492    2.1998613   -4.2078597 
H    -4.5034603    1.8147629   -5.6275546 
H    -4.3966915    0.3096314   -4.6954868 
H     5.2476679    1.6605132   -2.9992065 
H     4.5615204    0.1235854   -2.4373024 
H    -2.0162489   -2.9573087    1.6779796 
H    -3.0940224   -1.9413775    0.7036695 
H    -3.9720576    0.2528642    1.6472434 
H     1.4492378    0.3882601    1.5881786 
H    -1.1085504   -1.0338715    4.6440936 
H    -0.5143050   -3.1012217    3.2510298 
H     4.0699660   -4.7424994   -1.1869296 
H     4.4310992   -4.1194540    0.4541234 
H     4.7751005   -5.8312085    0.0485225 
H     1.6277606   -5.9072787    2.1971536 
H     3.0840684   -4.8809142    2.4249447 
H     3.2681874   -6.6159276    2.0334640 
H     2.0679345   -6.2421956   -1.5605342 
H     2.7466838   -7.4226172   -0.4013493 
H     1.0831552   -6.8015953   -0.1655371 
H    -5.7097946    0.4814411    3.4117473 
H     3.6096393   -0.3459282    2.6113054 
H    -2.8504296   -0.8096575    6.3939703 
H     1.6122537   -3.7997702    4.2952137 
H    -5.1627810   -0.0708225    5.7916964 
H     3.6858905   -2.4355636    3.9886966 
