117
Energy =
C     0.0408235    2.2338978    2.2894421 
C     1.2402752    2.1858993    1.5559462 
C     1.2448288    2.6147856    0.1817027 
H     2.1422010    1.7359806    1.9903921 
Pd   -0.0333403    0.8362731    0.3847082 
P    -0.6263044    0.5437393   -1.8750371 
P    -0.8618270   -1.1168342    1.4187279 
H    -0.7895816    2.7900046    1.8268010 
H     0.5774971    3.4519379   -0.0673035 
C    -0.6311413    1.5188708    6.4611592 
C    -1.7007889    1.8242916    5.6057936 
C    -1.4650350    2.0316292    4.2437025 
C    -0.1588959    1.9282468    3.7059289 
C     0.9063603    1.6069760    4.5796687 
C     0.6699594    1.4111262    5.9424280 
H    -0.8084202    1.3687204    7.5310981 
H    -2.7168390    1.9120666    6.0037537 
H    -2.2986190    2.2873033    3.5809528 
H     1.9276380    1.5318623    4.1959301 
H     1.5059854    1.1738990    6.6074694 
C     4.6836240    2.2181458   -2.3801447 
C     4.2762482    1.1354422   -1.5820501 
C     3.1773078    1.2732345   -0.7272970 
C     2.4498633    2.4849493   -0.6680143 
C     2.8753537    3.5656261   -1.4701881 
C     3.9865546    3.4346115   -2.3144129 
H     5.5416554    2.1129583   -3.0522274 
H     4.7884436    0.1703278   -1.6343249 
H     2.8472611    0.4115646   -0.1347800 
H     2.3295477    4.5145714   -1.4270537 
H     4.3049671    4.2838465   -2.9281506 
O     2.4664125   -3.3371899    0.4591328 
O     3.5775589   -2.0417308   -1.0816738 
N     1.2884709   -2.1227866   -1.0360909 
C    -0.2669346   -1.1682945   -2.5273563 
C    -2.4918683    0.6891565   -2.0134055 
C     0.2203979    1.6482162   -3.1515164 
C    -0.9767854   -2.3140185   -1.7711860 
C     0.0472404   -2.8738385   -0.7481610 
C     1.2304708   -1.4698063   -2.3490270 
C    -3.0666664    1.9753076   -1.3748060 
C    -3.0811598    0.4603841   -3.4225870 
C     0.3202791    1.0856385   -4.5898575 
C    -0.3730815    3.0758696   -3.1629019 
C    -4.6031368    1.9070413   -1.3168609 
C    -4.6206331    0.4107951   -3.3635300 
C     1.1172888    2.0436590   -5.4972652 
C     0.4202170    4.0161197   -4.0889721 
C    -5.2026283    1.6767861   -2.7141099 
C     0.5070889    3.4524040   -5.5143603 
C    -0.4219159   -2.8007760    0.7092926 
C     2.5475176   -2.4788533   -0.5832574 
C    -2.6738189   -1.1541056    1.7316704 
C    -0.1100080   -1.3380472    3.0906989 
C     3.6892808   -3.9775715    1.0254415 
C    -3.3638737    0.0743043    1.7199151 
C     1.2985502   -1.4183167    3.1526969 
C    -3.3819394   -2.3306496    2.0579011 
C    -0.8639839   -1.4863862    4.2683722 
C     4.3485934   -4.8324230   -0.0635021 
C     4.6398220   -2.9095758    1.5825992 
C     3.1078253   -4.8446843    2.1465666 
C    -4.7309736    0.1317966    2.0242014 
C     1.9365576   -1.6973327    4.3676912 
C    -4.7515963   -2.2744949    2.3502541 
C    -0.2173491   -1.7593090    5.4834356 
C    -5.4282851   -1.0446597    2.3348343 
C     1.1780103   -1.8804938    5.5342755 
H    -0.5464897   -1.1761007   -3.5916930 
H    -2.8198233   -0.1501451   -1.3645590 
H     1.2508040    1.7214652   -2.7532868 
H    -1.9050515   -1.9886869   -1.2691665 
H    -1.2680857   -3.1001478   -2.4866849 
H     0.2277054   -3.9485039   -0.9491155 
H     1.5965270   -2.1501787   -3.1447534 
H     1.8816118   -0.5809650   -2.3532341 
H    -2.7694977    2.8570623   -1.9674619 
H    -2.6362637    2.1173775   -0.3658131 
H    -2.6926981   -0.4736527   -3.8661595 
H    -2.7687751    1.2860376   -4.0888487 
H    -0.6912622    0.9359965   -5.0117447 
H     0.8207567    0.1027927   -4.5928160 
H    -0.4071523    3.4846726   -2.1368428 
H    -1.4170448    3.0319421   -3.5245614 
H    -5.0008956    2.8374760   -0.8724877 
H    -4.9044289    1.0773158   -0.6489175 
H    -4.9293899   -0.4776473   -2.7777730 
H    -5.0258019    0.2754032   -4.3822766 
H     2.1600255    2.0995226   -5.1276229 
H     1.1622823    1.6242660   -6.5183566 
H    -0.0535496    5.0143350   -4.0892726 
H     1.4422999    4.1437250   -3.6891142 
H    -6.3028805    1.6025146   -2.6515217 
H    -4.9808700    2.5519437   -3.3563535 
H     1.1058814    4.1228715   -6.1561535 
H    -0.5069571    3.4094316   -5.9593613 
H     0.3633412   -3.2113373    1.3593532 
H    -1.3072033   -3.4501571    0.8181560 
H    -2.8166925    0.9880831    1.4655657 
H     1.8922192   -1.2906762    2.2398812 
H    -2.8681319   -3.2965955    2.1042404 
H    -1.9542391   -1.4001904    4.2409095 
H     3.6230769   -5.5563815   -0.4724454 
H     4.7315384   -4.2014904   -0.8800345 
H     5.1906875   -5.3962052    0.3725717 
H     4.1158178   -2.2671036    2.3096364 
H     5.0470634   -2.2821082    0.7771487 
H     5.4734893   -3.4074107    2.1066523 
H     2.3884568   -5.5736539    1.7370490 
H     3.9173055   -5.3976142    2.6514775 
H     2.5903030   -4.2184057    2.8926798 
H    -5.2518021    1.0946634    2.0113680 
H     3.0284193   -1.7720250    4.4051229 
H    -5.2906315   -3.1944164    2.5992648 
H    -0.8126135   -1.8773264    6.3946306 
H    -6.4977400   -1.0049538    2.5659059 
H     1.6758126   -2.1029070    6.4836454 
