117
Energy =
C     0.7738514    1.6559822    2.4989358 
C     1.7784331    1.5436820    1.5173071 
C     1.6346053    2.1353665    0.2297982 
H     2.6584368    0.9181763    1.7106122 
Pd    0.0574119    0.5701118    0.5408322 
P    -0.5815034    0.2854817   -1.7333659 
P    -1.4926173   -0.9200191    1.5416508 
H    -0.0074424    2.4121674    2.3284993 
H     0.9983612    3.0297541    0.1598507 
C     1.1427355    0.5713188    6.6335198 
C    -0.0268356    1.1805842    6.1543870 
C    -0.1461503    1.4954374    4.7978677 
C     0.8980875    1.2052205    3.8887393 
C     2.0623468    0.5700605    4.3849741 
C     2.1846778    0.2653244    5.7427033 
H     1.2415849    0.3326763    7.6973491 
H    -0.8474880    1.4107613    6.8406516 
H    -1.0573818    1.9798732    4.4300031 
H     2.8887687    0.3290877    3.7103770 
H     3.0988771   -0.2112823    6.1112213 
C     4.8241456    1.9540264   -2.6598953 
C     4.4357600    0.7910842   -1.9733296 
C     3.4071310    0.8394225   -1.0251797 
C     2.7259493    2.0521435   -0.7656207 
C     3.1249742    3.2125391   -1.4616381 
C     4.1734794    3.1665541   -2.3910738 
H     5.6307680    1.9135088   -3.3989066 
H     4.9349768   -0.1599100   -2.1841005 
H     3.1020760   -0.0765630   -0.5055243 
H     2.6112815    4.1603424   -1.2666816 
H     4.4761820    4.0799594   -2.9134774 
O     2.8645228   -2.5544415   -0.0041369 
O     1.3904393   -3.4936020    1.4875069 
N     0.6587407   -2.5368533   -0.4655400 
C    -0.4411706   -1.5093782   -2.2589072 
C    -2.3910532    0.6854987   -2.0081685 
C     0.4574689    1.1648511   -3.0534235 
C    -1.4404741   -2.4759831   -1.5883763 
C    -0.7257511   -3.0408879   -0.3351963 
C     0.9296524   -2.0607998   -1.8251904 
C    -2.8074597    2.0781877   -1.4802088 
C    -2.9084776    0.4380006   -3.4429849 
C     0.5664031    0.4517112   -4.4228792 
C     0.0315285    2.6419880   -3.2225496 
C    -4.3320701    2.2577680   -1.5781632 
C    -4.4340366    0.6389640   -3.5166904 
C     1.4794561    1.2382687   -5.3837548 
C     0.9252835    3.3997006   -4.2212941 
C    -4.8380796    2.0326802   -3.0115095 
C     0.9916848    2.6806037   -5.5750192 
C    -1.3948807   -2.7064815    1.0017234 
C     1.6326540   -2.9169237    0.4310299 
C    -3.2313248   -0.3503515    1.3353439 
C    -1.4190486   -1.2223599    3.3641278 
C     4.0770865   -2.9558582    0.7699633 
C    -3.5116433    0.9638262    1.7726961 
C    -0.2311027   -1.7887258    3.8762583 
C    -4.2935899   -1.1625845    0.8955003 
C    -2.5147961   -1.0184278    4.2255551 
C     4.1327169   -4.4848878    0.8878605 
C     5.2236313   -2.4371680   -0.1030032 
C     4.0662897   -2.2535662    2.1341951 
C    -4.8286968    1.4371450    1.8110130 
C    -0.1583206   -2.1737373    5.2190894 
C    -5.6110973   -0.6778741    0.9115598 
C    -2.4294932   -1.3991557    5.5731061 
C    -5.8831764    0.6140355    1.3832381 
C    -1.2568975   -1.9819327    6.0710542 
H    -0.5571543   -1.5369796   -3.3519104 
H    -2.8840731   -0.0484838   -1.3392189 
H     1.4693714    1.1612511   -2.6104966 
H    -2.4004054   -1.9998487   -1.3288050 
H    -1.6749172   -3.2918518   -2.2920951 
H    -0.7038753   -4.1476472   -0.3839528 
H     1.2471134   -2.8925734   -2.4872779 
H     1.7347116   -1.3104073   -1.8183719 
H    -2.3155494    2.8730928   -2.0644620 
H    -2.4668882    2.1931113   -0.4348480 
H    -2.6464244   -0.5800296   -3.7831169 
H    -2.4193644    1.1432272   -4.1399373 
H    -0.4333336    0.3386916   -4.8821327 
H     0.9822846   -0.5625330   -4.2979624 
H     0.0383925    3.1516914   -2.2413245 
H    -1.0069480    2.6803573   -3.5967953 
H    -4.6099005    3.2647425   -1.2181409 
H    -4.8233663    1.5329842   -0.9048768 
H    -4.9312117   -0.1334734   -2.8969128 
H    -4.7771676    0.4834445   -4.5552697 
H     2.5075420    1.2508616   -4.9710179 
H     1.5286704    0.7079280   -6.3517323 
H     0.5418391    4.4292004   -4.3399464 
H     1.9458999    3.4813036   -3.8093542 
H    -5.9355540    2.1511082   -3.0526331 
H    -4.4111822    2.8039903   -3.6829837 
H     1.6599163    3.2249082   -6.2658580 
H    -0.0118624    2.6715374   -6.0452164 
H    -0.8239921   -3.2021859    1.7999409 
H    -2.4113988   -3.1357768    1.0235153 
H    -2.6901906    1.6070048    2.1108393 
H     0.6258096   -1.9638423    3.2168350 
H    -4.1101014   -2.1862833    0.5542420 
H    -3.4461459   -0.5857170    3.8503848 
H     3.3106041   -4.8685188    1.5087715 
H     4.0766531   -4.9446569   -0.1136669 
H     5.0925919   -4.7768266    1.3468359 
H     5.2126564   -1.3368325   -0.1562114 
H     5.1460493   -2.8466848   -1.1240091 
H     6.1887436   -2.7506406    0.3280180 
H     3.2405397   -2.6174393    2.7628972 
H     5.0212991   -2.4453637    2.6522660 
H     3.9666899   -1.1631376    1.9948152 
H    -5.0325597    2.4519538    2.1672216 
H     0.7648452   -2.6198258    5.6015992 
H    -6.4277579   -1.3208542    0.5676720 
H    -3.2917596   -1.2473673    6.2308667 
H    -6.9131026    0.9839100    1.4080237 
H    -1.1964373   -2.2846398    7.1214815 
