117
Energy =
C    -1.4935651    2.6492987    2.1792784 
C    -0.6403023    3.3121601    1.2614375 
C    -1.0386161    3.5067315   -0.0865061 
H     0.3783869    3.5719934    1.5761580 
Pd   -0.9427685    1.2917749    0.4278488 
P    -0.3706439    0.5505938   -1.7334790 
P    -1.2037160   -0.7188500    1.6366816 
H    -2.5725756    2.6651942    1.9629190 
H    -2.1210227    3.4807269   -0.2813451 
C    -0.5383704    2.0677750    6.3310746 
C     0.4730766    1.9466374    5.3632888 
C     0.1747709    2.1272768    4.0093440 
C    -1.1440003    2.4190028    3.5935841 
C    -2.1530956    2.5242455    4.5747404 
C    -1.8503745    2.3608209    5.9316796 
H    -0.3034599    1.9293229    7.3914650 
H     1.4978272    1.7071675    5.6656667 
H     0.9686891    2.0199754    3.2640762 
H    -3.1827738    2.7346209    4.2674951 
H    -2.6456969    2.4501249    6.6785051 
C     1.1594374    5.5391683   -3.1825398 
C     1.7898899    5.2501848   -1.9610903 
C     1.0946669    4.5899444   -0.9418152 
C    -0.2557257    4.2099244   -1.1182479 
C    -0.8874710    4.5430117   -2.3398234 
C    -0.1874572    5.1893748   -3.3648396 
H     1.7095705    6.0512853   -3.9783298 
H     2.8321888    5.5448472   -1.8016013 
H     1.6114369    4.3706397   -0.0024939 
H    -1.9454127    4.2946635   -2.4776307 
H    -0.6972255    5.4321683   -4.3029653 
O     2.0007343   -4.1046819    0.0261044 
O     0.0062376   -4.9459733    0.8319243 
N     0.0939188   -2.9994089   -0.3649977 
C    -0.2518145   -1.2899202   -1.9918918 
C    -1.5970013    1.1394665   -3.0379797 
C     1.2902433    1.2526540   -2.2762158 
C    -1.5934473   -2.0102966   -1.6780380 
C    -1.3587560   -2.8426323   -0.4009537 
C     0.8207024   -1.9657176   -1.0946912 
C    -1.6516975    0.3201825   -4.3482807 
C    -3.0248287    1.3218922   -2.4690238 
C     2.2955456    1.3138815   -1.1015513 
C     1.9268962    0.5674607   -3.5061905 
C    -2.5710195    1.0056139   -5.3781655 
C    -3.9509729    1.9961122   -3.4974405 
C     3.6174984    1.9833837   -1.5165320 
C     3.2383999    1.2678961   -3.9105395 
C    -3.9873854    1.2135534   -4.8198642 
C     4.2378485    1.2991388   -2.7443649 
C    -1.9623854   -2.2553224    0.8887905 
C     0.6627575   -4.1067071    0.2255558 
C    -2.3753461   -0.5347439    3.0489355 
C     0.3857862   -1.2913541    2.3521454 
C     2.8141938   -5.3251207    0.2743889 
C    -3.6885747   -0.1179137    2.7399993 
C     1.5359250   -0.4995115    2.1660961 
C    -2.0360529   -0.8135453    4.3844874 
C     0.4838219   -2.4865296    3.0964529 
C     2.8329592   -5.6536522    1.7716632 
C     2.2580538   -6.4805442   -0.5679816 
C     4.2003525   -4.8929211   -0.2141966 
C    -4.6558832   -0.0190645    3.7476097 
C     2.7639869   -0.8835211    2.7212964 
C    -3.0093690   -0.7120577    5.3902483 
C     1.7085283   -2.8582657    3.6636837 
C    -4.3189775   -0.3261630    5.0759243 
C     2.8482100   -2.0590396    3.4805022 
H     0.0088703   -1.4360469   -3.0521065 
H    -1.2043184    2.1456883   -3.2817976 
H     1.0355038    2.2950367   -2.5512174 
H    -2.4364648   -1.3115002   -1.5500695 
H    -1.8528878   -2.6805886   -2.5133649 
H    -1.8028154   -3.8477956   -0.5023198 
H     1.6362343   -2.4173039   -1.6818527 
H     1.2850571   -1.2522146   -0.3868870 
H    -2.0448234   -0.6916793   -4.1341247 
H    -0.6442764    0.1885964   -4.7775484 
H    -2.9899216    1.9085011   -1.5334585 
H    -3.4450921    0.3340373   -2.1987690 
H     2.5118942    0.2907221   -0.7422520 
H     1.8365243    1.8564647   -0.2537869 
H     1.2271964    0.5662476   -4.3590492 
H     2.1479255   -0.4907035   -3.2674962 
H    -2.6035613    0.4011779   -6.3021717 
H    -2.1343504    1.9854398   -5.6550981 
H    -3.5879903    3.0249370   -3.6920355 
H    -4.9671372    2.0949375   -3.0753575 
H     3.4225182    3.0450913   -1.7549214 
H     4.3209604    1.9693353   -0.6641853 
H     3.6751324    0.7527211   -4.7846474 
H     3.0106718    2.3037493   -4.2299232 
H    -4.6186900    1.7382287   -5.5586022 
H    -4.4588753    0.2262208   -4.6454408 
H     5.1641320    1.8199971   -3.0453460 
H     4.5277763    0.2619482   -2.4830128 
H    -1.9145498   -3.0209500    1.6826697 
H    -3.0311782   -2.0268800    0.7299521 
H    -3.9569634    0.1299346    1.7047901 
H     1.4587662    0.4192476    1.5736822 
H    -1.0123819   -1.0907242    4.6502877 
H    -0.3850496   -3.1373571    3.2312422 
H     3.2505084   -4.8075055    2.3405495 
H     1.8175553   -5.8708565    2.1347422 
H     3.4727394   -6.5365067    1.9420823 
H     2.2020604   -6.1864954   -1.6304278 
H     1.2556994   -6.7734522   -0.2202545 
H     2.9302382   -7.3515615   -0.4858244 
H     4.5453574   -4.0092101    0.3490398 
H     4.9249255   -5.7110384   -0.0663493 
H     4.1720019   -4.6378708   -1.2871387 
H    -5.6740361    0.2959087    3.4960865 
H     3.6516701   -0.2619802    2.5639275 
H    -2.7330180   -0.9260861    6.4276006 
H     1.7731148   -3.7840198    4.2433721 
H    -5.0750663   -0.2528032    5.8643290 
H     3.8036586   -2.3594725    3.9230383 
