117
Energy =
C     0.7942572    1.7530013    2.3518479 
C     1.7877923    1.6263737    1.3631434 
C     1.6421843    2.1975933    0.0655565 
H     2.6666138    1.0005778    1.5629052 
Pd    0.0623766    0.6349532    0.3991030 
P    -0.7480101    0.3578854   -1.8117805 
P    -1.3952897   -0.9401394    1.4132410 
H    -0.0083554    2.4837600    2.1690322 
H     1.0141627    3.0961345   -0.0162051 
C     1.2086846    0.6811407    6.4868989 
C    -0.0269369    1.1162961    5.9834371 
C    -0.1557464    1.4423775    4.6307852 
C     0.9434413    1.3288046    3.7475310 
C     2.1811429    0.8813149    4.2705421 
C     2.3121296    0.5684537    5.6257910 
H     1.3126763    0.4341294    7.5483035 
H    -0.8920428    1.2004773    6.6481841 
H    -1.1218282    1.7844501    4.2447325 
H     3.0581949    0.8061155    3.6206080 
H     3.2809931    0.2402388    6.0158029 
C     4.8701552    1.9437032   -2.7789636 
C     4.4946880    0.8087258   -2.0414359 
C     3.4473787    0.8812860   -1.1153481 
C     2.7411459    2.0901446   -0.9209231 
C     3.1364286    3.2269392   -1.6592975 
C     4.1943693    3.1557456   -2.5752839 
H     5.6878569    1.8839240   -3.5043337 
H     5.0156652   -0.1409828   -2.1960317 
H     3.1513007   -0.0170837   -0.5621356 
H     2.6157967    4.1787681   -1.5056669 
H     4.4906677    4.0501164   -3.1329800 
O     2.8856614   -2.4769787   -0.1045033 
O     1.3798296   -3.6759470    1.1540176 
N     0.6966376   -2.4659212   -0.6624366 
C    -0.4144007   -1.3854244   -2.4284822 
C    -2.6220214    0.4962433   -1.8834153 
C    -0.1889924    1.3811662   -3.2966370 
C    -1.3462280   -2.4847514   -1.8706488 
C    -0.6737224   -3.0083439   -0.5825369 
C     0.9802180   -1.8548240   -1.9664329 
C    -3.1616697    1.8659555   -1.4166195 
C    -3.2616989    0.0986800   -3.2334225 
C    -0.1866658    2.9009063   -3.0279720 
C     1.1442364    0.9580576   -3.9534859 
C    -4.6952109    1.8300184   -1.3007106 
C    -4.7977692    0.0632344   -3.1113474 
C     0.0175067    3.6819801   -4.3398893 
C     1.3561251    1.7351631   -5.2682411 
C    -5.3508225    1.4127426   -2.6264585 
C     1.3102736    3.2558025   -5.0529235 
C    -1.3919017   -2.6923610    0.7398356 
C     1.6515795   -2.9413237    0.2095317 
C    -3.1444648   -0.3657699    1.4976426 
C    -1.0766221   -1.3594180    3.1817910 
C     4.0698969   -2.9446873    0.6768755 
C    -3.3403282    0.9503029    1.9712479 
C     0.2331135   -1.7477468    3.5305041 
C    -4.2699983   -1.1821462    1.2742240 
C    -2.0996283   -1.4199141    4.1484126 
C     3.9347858   -2.4930736    2.1382490 
C     4.2054313   -4.4666850    0.5372233 
C     5.2369075   -2.2303094   -0.0104982 
C    -4.6275036    1.4262702    2.2492970 
C     0.5072970   -2.2219247    4.8174475 
C    -5.5611920   -0.6990974    1.5392435 
C    -1.8155634   -1.8889849    5.4391987 
C    -5.7420608    0.5984268    2.0395416 
C    -0.5167110   -2.2959696    5.7741469 
H    -0.4782178   -1.3451143   -3.5282620 
H    -2.9431332   -0.2415013   -1.1216373 
H    -0.9924235    1.1671959   -4.0303506 
H    -2.3788639   -2.1499427   -1.6858647 
H    -1.4061329   -3.2970682   -2.6146186 
H    -0.6201303   -4.1138578   -0.6123150 
H     1.3970362   -2.5989305   -2.6755088 
H     1.7119205   -1.0402804   -1.8620807 
H    -2.8797458    2.6430235   -2.1499687 
H    -2.7017323    2.1477494   -0.4519799 
H    -2.8893334   -0.8803159   -3.5837908 
H    -2.9830812    0.8399038   -4.0063703 
H     0.6342880    3.1334387   -2.3310076 
H    -1.1201376    3.2234979   -2.5403958 
H     1.1581393   -0.1231954   -4.1738140 
H     1.9813377    1.1588995   -3.2648584 
H    -5.0664671    2.8183055   -0.9754147 
H    -4.9773432    1.1097736   -0.5124658 
H    -5.0846944   -0.7316366   -2.3944370 
H    -5.2396805   -0.2124709   -4.0855588 
H    -0.8508754    3.5036744   -5.0049405 
H     0.0329379    4.7660901   -4.1264629 
H     2.3229121    1.4391244   -5.7138075 
H     0.5696035    1.4411456   -5.9916522 
H    -6.4478740    1.3568102   -2.5101098 
H    -5.1532443    2.1846425   -3.3963731 
H     1.4061320    3.7814888   -6.0196971 
H     2.1783892    3.5561568   -4.4375839 
H    -0.8922272   -3.2723228    1.5299761 
H    -2.4312878   -3.0576275    0.6831449 
H    -2.4707142    1.5969846    2.1358694 
H     1.0346147   -1.6969649    2.7877315 
H    -4.1545149   -2.2080448    0.9108124 
H    -3.1203504   -1.1168211    3.8977975 
H     3.7176370   -1.4113923    2.1830878 
H     3.1330455   -3.0441280    2.6506821 
H     4.8871097   -2.6736030    2.6654301 
H     4.2536684   -4.7473320   -0.5288825 
H     3.3605346   -4.9869231    1.0112711 
H     5.1410403   -4.7935577    1.0220569 
H     5.1650440   -1.1379097    0.1158446 
H     6.1890306   -2.5665640    0.4320569 
H     5.2499930   -2.4656927   -1.0878186 
H    -4.7618076    2.4455471    2.6253119 
H     1.5268625   -2.5248965    5.0751009 
H    -6.4266321   -1.3461279    1.3634270 
H    -2.6175099   -1.9405367    6.1830695 
H    -6.7495151    0.9682377    2.2549249 
H    -0.2998240   -2.6655040    6.7816038 
