117
Energy =
C    -1.1322878    2.6854371    2.0577912 
C    -0.4788612    3.3252329    0.9699528 
C    -1.1216541    3.4576637   -0.2826246 
H     0.5698210    3.6316810    1.0723434 
Pd   -0.8901037    1.2518250    0.3069738 
P    -0.3120612    0.3307180   -1.7831274 
P    -1.3384181   -0.6620590    1.6202570 
H    -2.2317263    2.6925229    2.0575254 
H    -2.2195898    3.3758614   -0.2765518 
C     0.6053415    2.1703889    5.9588710 
C     1.4430009    2.2879439    4.8364729 
C     0.8929526    2.4490902    3.5623875 
C    -0.5094063    2.4935706    3.3790687 
C    -1.3380101    2.3779854    4.5171358 
C    -0.7860088    2.2201958    5.7940801 
H     1.0384767    2.0434108    6.9563038 
H     2.5304737    2.2487393    4.9578506 
H     1.5612565    2.5285502    2.6981435 
H    -2.4255606    2.4153028    4.3933161 
H    -1.4473116    2.1331115    6.6623128 
C     0.3847042    5.5664199   -3.7174603 
C     1.2877529    5.0006086   -2.8004418 
C     0.8160607    4.3167445   -1.6756701 
C    -0.5715379    4.1667884   -1.4505352 
C    -1.4673635    4.7525274   -2.3745946 
C    -0.9950459    5.4501155   -3.4934196 
H     0.7572017    6.1023684   -4.5961952 
H     2.3663493    5.0966960   -2.9634595 
H     1.5325472    3.8834006   -0.9713992 
H    -2.5463556    4.6620240   -2.2071634 
H    -1.7062135    5.8980744   -4.1948109 
O     1.7081236   -4.3111384    0.4556979 
O    -0.3790440   -5.0027171    1.1625025 
N    -0.1039648   -3.1316186   -0.1236428 
C    -0.2500006   -1.5321387   -1.8871759 
C    -1.4367286    0.7168453   -3.2569358 
C     1.4186591    0.8880486   -2.2544279 
C    -1.6381281   -2.1861797   -1.6366150 
C    -1.5402627   -2.9055583   -0.2763175 
C     0.7227862   -2.1899167   -0.8727562 
C    -2.8330942    1.1639518   -2.7639633 
C    -0.8690004    1.7332484   -4.2723951 
C     2.3463621    1.0629381   -1.0291035 
C     2.1159086    0.0268173   -3.3316332 
C    -3.8059354    1.3683457   -3.9379217 
C    -1.8502934    1.9501777   -5.4407901 
C     3.6864818    1.6967715   -1.4451904 
C     3.4491250    0.6724057   -3.7553250 
C    -3.2444091    2.3752378   -4.9541317 
C     4.3781035    0.8771278   -2.5474357 
C    -2.1874909   -2.1690981    0.9123253 
C     0.3618352   -4.2330634    0.5610978 
C    -2.6027425   -0.2578919    2.9024390 
C     0.1262551   -1.3162127    2.5044734 
C     2.4334999   -5.5587312    0.8164663 
C    -3.7874000    0.3682871    2.4557790 
C     1.3426439   -0.6171164    2.3844725 
C    -2.4555325   -0.5572260    4.2686870 
C     0.0695019   -2.4729956    3.3119380 
C     3.8715655   -5.2242592    0.4078761 
C     2.3321774   -5.8142251    2.3245592 
C     1.8720361   -6.7230504   -0.0100636 
C    -4.8123651    0.6751988    3.3591280 
C     2.4846575   -1.0527823    3.0692684 
C    -3.4893715   -0.2556749    5.1695968 
C     1.2087991   -2.8955202    4.0065336 
C    -4.6659356    0.3582671    4.7203897 
C     2.4151125   -2.1862917    3.8903357 
H     0.0789372   -1.7523463   -2.9166127 
H    -1.5515453   -0.2535439   -3.7799790 
H     1.2426510    1.8968785   -2.6744257 
H    -2.4697348   -1.4626605   -1.6538898 
H    -1.8393711   -2.9274814   -2.4267351 
H    -2.0330190   -3.8916498   -0.3194248 
H     1.5490695   -2.7244010   -1.3678716 
H     1.1788194   -1.4473203   -0.1890259 
H    -2.7190229    2.1128430   -2.2084042 
H    -3.2444368    0.4322651   -2.0438713 
H     0.0980259    1.3861538   -4.6721591 
H    -0.6820749    2.6964368   -3.7673760 
H     2.5409829    0.0791762   -0.5624224 
H     1.8419697    1.6784055   -0.2593881 
H     1.4642280   -0.1159176   -4.2120714 
H     2.3212272   -0.9796635   -2.9200201 
H    -4.7856871    1.7065991   -3.5548884 
H    -3.9804737    0.3956937   -4.4387247 
H    -1.9363490    1.0101556   -6.0209364 
H    -1.4330018    2.7080341   -6.1279261 
H     3.5016110    2.7235172   -1.8179070 
H     4.3444264    1.7927885   -0.5625906 
H     3.9404144    0.0431026   -4.5186761 
H     3.2406734    1.6494567   -4.2339912 
H    -3.9331788    2.4802333   -5.8110905 
H    -3.1750525    3.3724257   -4.4779893 
H     5.3136405    1.3726243   -2.8620468 
H     4.6657467   -0.1117742   -2.1388149 
H    -2.2795147   -2.8715354    1.7594141 
H    -3.2121583   -1.8518711    0.6493476 
H    -3.9049547    0.6218094    1.3937791 
H     1.3835618    0.2722380    1.7471686 
H    -1.5300535   -1.0048777    4.6408232 
H    -0.8507567   -3.0589013    3.3926696 
H     3.9305293   -5.0207137   -0.6748169 
H     4.2260028   -4.3335004    0.9538221 
H     4.5377562   -6.0710200    0.6430730 
H     1.2843370   -5.9630220    2.6240631 
H     2.7530354   -4.9626383    2.8826932 
H     2.9117832   -6.7179956    2.5796565 
H     1.9065017   -6.4796202   -1.0861512 
H     2.4857577   -7.6239793    0.1599663 
H     0.8328803   -6.9440674    0.2778378 
H    -5.7269147    1.1598011    3.0018752 
H     3.4246094   -0.5005311    2.9674775 
H    -3.3629007   -0.4911108    6.2313684 
H     1.1552328   -3.7913053    4.6325952 
H    -5.4674819    0.5952332    5.4274511 
H     3.3029143   -2.5256257    4.4340709 
