117
Energy =
C     0.6658839    1.9581667    2.3780994 
C     1.6837148    1.9711502    1.4067391 
C     1.4707482    2.5163818    0.1046826 
H     2.6356007    1.4658078    1.6151287 
Pd    0.1220476    0.7579747    0.4229747 
P    -0.6291494    0.5150912   -1.8177410 
P    -1.0211692   -1.0771400    1.3659380 
H    -0.2311272    2.5642269    2.1770310 
H     0.7546245    3.3461713    0.0204379 
C     1.1224466    0.9379784    6.5225018 
C     2.2553836    1.0132666    5.6963293 
C     2.1174673    1.3101754    4.3375625 
C     0.8400928    1.5549737    3.7776845 
C    -0.2895403    1.4815547    4.6261451 
C    -0.1518684    1.1690554    5.9811806 
H     1.2328570    0.7050823    7.5864888 
H     3.2525883    0.8470465    6.1166716 
H     3.0140555    1.3844462    3.7142839 
H    -1.2853841    1.6695984    4.2105076 
H    -1.0391080    1.1068830    6.6187210 
C     4.5949960    2.4227972   -2.8565615 
C     4.3245446    1.2809090   -2.0830784 
C     3.3205111    1.3163522   -1.1101381 
C     2.5513761    2.4844582   -0.9047698 
C     2.8403607    3.6283015   -1.6789768 
C     3.8580265    3.5981400   -2.6427181 
H     5.3793626    2.3983741   -3.6201601 
H     4.8811320    0.3509191   -2.2363561 
H     3.1094189    0.4087695   -0.5354397 
H     2.2650981    4.5468331   -1.5189523 
H     4.0726875    4.4951369   -3.2331039 
O     2.3510236   -3.2010687    0.6476902 
O     3.5043038   -1.9070259   -0.8621117 
N     1.2302541   -2.1365773   -0.9982997 
C    -0.2752166   -1.1833912   -2.5215842 
C    -2.4960843    0.6502886   -1.9100553 
C     0.1568348    1.6458005   -3.1167885 
C    -0.9897474   -2.3641407   -1.8300096 
C    -0.0195863   -2.8833818   -0.7352993 
C     1.2128109   -1.5070596   -2.3230463 
C    -3.0589074    1.9014406   -1.1959863 
C    -3.0985323    0.4757926   -3.3221357 
C     0.2282607    1.0886369   -4.5592844 
C    -0.4697220    3.0599649   -3.0951226 
C    -4.5969905    1.8671921   -1.1681964 
C    -4.6375722    0.4511981   -3.2612111 
C     0.9502869    2.0781093   -5.4948683 
C     0.2350441    4.0245454   -4.0671101 
C    -5.1876262    1.7128620   -2.5783305 
C     0.2748809    3.4563402   -5.4922029 
C    -0.5452137   -2.7578676    0.6995599 
C     2.4635263   -2.3890289   -0.4287082 
C    -2.8554989   -0.9405934    1.3162085 
C    -0.7202487   -1.4572062    3.1468765 
C     3.5597854   -3.6591648    1.3921072 
C    -3.4079344    0.2185998    1.9053550 
C    -1.7485716   -1.7417952    4.0652024 
C    -3.7228382   -1.9341861    0.8234724 
C     0.6245773   -1.5749411    3.5544532 
C     4.4659042   -4.4581170    0.4468974 
C     4.2778999   -2.4504314    2.0084455 
C     2.9532888   -4.5604918    2.4723148 
C    -4.7945177    0.3624444    2.0317067 
C    -1.4297765   -2.1570587    5.3670974 
C    -5.1142014   -1.7750466    0.9253972 
C     0.9366442   -1.9996665    4.8498905 
C    -5.6518812   -0.6355956    1.5398568 
C    -0.0914092   -2.2927186    5.7598102 
H    -0.5399302   -1.1487513   -3.5885097 
H    -2.8132400   -0.2183511   -1.2976758 
H     1.1976445    1.7381956   -2.7557224 
H    -1.9724583   -2.0912825   -1.4110304 
H    -1.1753891   -3.1540394   -2.5766808 
H     0.1717431   -3.9641202   -0.8865535 
H     1.5730593   -2.2099247   -3.1021471 
H     1.8799434   -0.6310438   -2.3340136 
H    -2.7296540    2.8175935   -1.7145532 
H    -2.6510925    1.9528210   -0.1691907 
H    -2.7258355   -0.4508828   -3.7943430 
H    -2.7786096    1.3145556   -3.9673533 
H    -0.7878437    0.8933083   -4.9495245 
H     0.7731205    0.1298009   -4.5779210 
H    -0.4483029    3.4687912   -2.0681653 
H    -1.5327355    2.9919395   -3.3892066 
H    -4.9783657    2.7832935   -0.6819788 
H    -4.9260823    1.0157802   -0.5455140 
H    -4.9635366   -0.4439245   -2.6949422 
H    -5.0459059    0.3486286   -4.2825691 
H     2.0015433    2.1833098   -5.1614950 
H     0.9783639    1.6565922   -6.5156907 
H    -0.2813226    5.0011999   -4.0462629 
H     1.2697952    4.1993928   -3.7238974 
H    -6.2903287    1.6715138   -2.5282377 
H    -4.9316901    2.6013257   -3.1890819 
H     0.8099383    4.1490319   -6.1658993 
H    -0.7565599    3.3629129   -5.8870096 
H     0.2382183   -3.1081016    1.3865106 
H    -1.4068262   -3.4344338    0.8394305 
H    -2.7408381    1.0019764    2.2840051 
H    -2.7978687   -1.6566411    3.7678813 
H    -3.3263409   -2.8486392    0.3711876 
H     1.4264080   -1.3424056    2.8448152 
H     3.8954904   -5.2766600   -0.0243825 
H     4.8875398   -3.8124483   -0.3375801 
H     5.2932337   -4.9031553    1.0254698 
H     3.5878560   -1.8719453    2.6468432 
H     4.6833677   -1.7928341    1.2254873 
H     5.1089530   -2.8062214    2.6409615 
H     2.3991641   -5.3951227    2.0111764 
H     3.7544618   -4.9790367    3.1039194 
H     2.2608953   -3.9911680    3.1145597 
H    -5.2081875    1.2596378    2.5030074 
H    -2.2354349   -2.3835008    6.0732824 
H    -5.7773930   -2.5541834    0.5358186 
H     1.9841648   -2.0872817    5.1544688 
H    -6.7367325   -0.5205426    1.6298236 
H     0.1526728   -2.6205014    6.7753808 
