117
Energy =
C    -1.4316030    2.5966510    2.0567963 
C    -0.6379648    3.3431752    1.1508845 
C    -1.0176741    3.5028493   -0.2048554 
H     0.3351305    3.7198973    1.4898758 
Pd   -0.7099976    1.2966332    0.3159659 
P    -0.0425373    0.5581074   -1.8332032 
P    -0.7956219   -0.7232337    1.5503569 
H    -2.5010006    2.4896181    1.8201721 
H    -2.0812281    3.3457794   -0.4378572 
C    -0.5100234    2.2464913    6.2438706 
C     0.5331405    2.2545000    5.3031937 
C     0.2476872    2.3556792    3.9382255 
C    -1.0877188    2.4393204    3.4828670 
C    -2.1261871    2.4212081    4.4391729 
C    -1.8395368    2.3338444    5.8063188 
H    -0.2857229    2.1695372    7.3127261 
H     1.5737207    2.1801952    5.6357389 
H     1.0705311    2.3554229    3.2173876 
H    -3.1666014    2.4815062    4.1041458 
H    -2.6591811    2.3255259    6.5317533 
C     0.9667866    5.9895625   -3.1066988 
C     1.6115145    5.6885152   -1.8953568 
C     0.9917036    4.8669638   -0.9477987 
C    -0.2986263    4.3370435   -1.1842194 
C    -0.9445167    4.6709601   -2.3975807 
C    -0.3169974    5.4789526   -3.3527990 
H     1.4583154    6.6279478   -3.8475668 
H     2.6067450    6.0957311   -1.6903196 
H     1.5196866    4.6395041   -0.0165772 
H    -1.9573586    4.2975061   -2.5830949 
H    -0.8355753    5.7203718   -4.2863428 
O     0.2549694   -5.0226493    0.5519032 
O     2.3314355   -4.2917543   -0.1521678 
N     0.4302200   -3.0691600   -0.5244273 
C     0.0396724   -1.2909052   -2.0518974 
C    -1.2028344    1.1365054   -3.1893226 
C     1.6987838    1.0645646   -2.3817625 
C    -1.3027840   -1.9895854   -1.7013576 
C    -1.0181180   -2.8820240   -0.4756628 
C     1.1259635   -1.9593241   -1.1633857 
C    -1.0533005    0.3910254   -4.5346879 
C    -2.6894205    1.1773428   -2.7660727 
C     1.7650287    2.2407091   -3.3803258 
C     2.5851482    1.3475598   -1.1469151 
C    -1.8979529    1.0768468   -5.6253838 
C    -3.5447722    1.8531984   -3.8545238 
C     3.2226472    2.5477257   -3.7743992 
C     4.0367891    1.6573576   -1.5496839 
C    -3.3776618    1.1574763   -5.2158638 
C     4.1058197    2.8227636   -2.5474478 
C    -1.5226358   -2.3080390    0.8609784 
C     1.1207072   -4.1603026   -0.0463465 
C    -1.8453726   -0.6634357    3.0653097 
C     0.8891475   -1.1552510    2.1372522 
C     0.6893961   -6.3872566    0.9507195 
C    -3.2239291   -0.4086507    2.9033293 
C     1.8839335   -0.1581871    2.0844424 
C    -1.3349836   -0.9232405    4.3498654 
C     1.2251774   -2.4359460    2.6217148 
C    -0.6169103   -7.0115209    1.4516364 
C     1.2277840   -7.1320973   -0.2777436 
C     1.7274781   -6.2917399    2.0762033 
C    -4.0853571   -0.4542044    4.0065749 
C     3.1926389   -0.4305379    2.5031135 
C    -2.2017028   -0.9580721    5.4526448 
C     2.5373380   -2.7091291    3.0289697 
C    -3.5753398   -0.7373792    5.2836021 
C     3.5210036   -1.7101789    2.9728493 
H     0.2859510   -1.4606582   -3.1129087 
H    -0.8796233    2.1851823   -3.3360936 
H     2.0960152    0.1642661   -2.8925343 
H    -2.1123041   -1.2724637   -1.4855019 
H    -1.6340394   -2.6087628   -2.5505127 
H    -1.4996988   -3.8670554   -0.5849952 
H     1.9843894   -2.3423677   -1.7374211 
H     1.5275709   -1.2624432   -0.4014268 
H    -1.4033499   -0.6523188   -4.4140580 
H     0.0053372    0.3388522   -4.8467423 
H    -2.7987328    1.7031740   -1.8000050 
H    -3.0625444    0.1482360   -2.6075206 
H     1.3150817    3.1374600   -2.9243990 
H     1.1848999    2.0166065   -4.2907229 
H     2.5652873    0.4885360   -0.4556547 
H     2.1537365    2.2075685   -0.5967612 
H    -1.7896864    0.5291820   -6.5784818 
H    -1.5032869    2.0975171   -5.7985519 
H    -3.2409367    2.9144671   -3.9485184 
H    -4.6061267    1.8546673   -3.5478256 
H     3.6362599    1.6887649   -4.3390353 
H     3.2343780    3.4133959   -4.4609728 
H     4.6314438    1.8802673   -0.6450121 
H     4.4842924    0.7522372   -2.0052298 
H    -3.9620367    1.6864570   -5.9893831 
H    -3.7929090    0.1321645   -5.1528133 
H     5.1501836    3.0014321   -2.8594427 
H     3.7573113    3.7481301   -2.0502796 
H    -1.3913671   -3.0640596    1.6548476 
H    -2.6083072   -2.1173084    0.7895496 
H    -3.6284608   -0.1764477    1.9099313 
H     1.6231126    0.8300764    1.6892112 
H    -0.2638297   -1.0919945    4.4943603 
H     0.4778072   -3.2336648    2.6611160 
H    -1.0269782   -6.4274011    2.2932262 
H    -1.3676306   -7.0395516    0.6438840 
H    -0.4342498   -8.0426747    1.7971929 
H     2.1569573   -6.6693775   -0.6427797 
H     0.4769047   -7.1249497   -1.0865857 
H     1.4348182   -8.1818999   -0.0085855 
H     1.3079654   -5.7447842    2.9386627 
H     1.9950152   -7.3070916    2.4151711 
H     2.6359209   -5.7811062    1.7235588 
H    -5.1555330   -0.2665365    3.8699279 
H     3.9565254    0.3520955    2.4488583 
H    -1.7950486   -1.1545314    6.4498413 
H     2.7945764   -3.7119113    3.3812581 
H    -4.2479799   -0.7736199    6.1466716 
H     4.5456241   -1.9340266    3.2865735 
