117
Energy =
C    -1.1957941    2.7184487    1.9710933 
C    -0.6052560    3.4177048    0.8845293 
C    -1.2341086    3.4646432   -0.3814030 
H     0.3990244    3.8445257    0.9992042 
Pd   -0.7622152    1.3080788    0.2312309 
P    -0.0439177    0.4485527   -1.8483802 
P    -0.9355458   -0.6465655    1.5520455 
H    -2.2877115    2.5909570    1.9547128 
H    -2.3167027    3.2650814   -0.3964282 
C     0.5335281    2.4962639    5.9056302 
C     1.3641890    2.7162875    4.7934895 
C     0.8172016    2.7831223    3.5097127 
C    -0.5742267    2.6251462    3.3043971 
C    -1.3954097    2.4062786    4.4325132 
C    -0.8477455    2.3462999    5.7195381 
H     0.9639065    2.4454785    6.9110203 
H     2.4440667    2.8342945    4.9305871 
H     1.4825506    2.9524979    2.6562233 
H    -2.4747173    2.2815765    4.2937549 
H    -1.5046788    2.1773352    6.5788412 
C     0.1213674    5.7059670   -3.7958103 
C     1.0589699    5.2240093   -2.8657259 
C     0.6353080    4.4984363   -1.7479798 
C    -0.7359532    4.2219918   -1.5431757 
C    -1.6680052    4.7232036   -2.4807308 
C    -1.2449829    5.4629006   -3.5923572 
H     0.4559391    6.2744651   -4.6693334 
H     2.1266749    5.4171842   -3.0134947 
H     1.3782609    4.1294132   -1.0345250 
H    -2.7365488    4.5338299   -2.3295353 
H    -1.9836858    5.8446830   -4.3043332 
O     0.2199240   -4.9581665    0.9013701 
O     2.3370029   -4.2194007    0.3427216 
N     0.4568027   -3.0502938   -0.2442816 
C     0.1813041   -1.4022659   -1.9405510 
C    -1.1622382    0.7229301   -3.3532740 
C     1.6372732    1.1611892   -2.2836857 
C    -1.1603804   -2.1522428   -1.6966802 
C    -0.9930542   -2.9074002   -0.3625530 
C     1.1905526   -1.9815835   -0.9136659 
C    -2.6094143    1.0344043   -2.9050476 
C    -0.6672527    1.7864790   -4.3585847 
C     2.5137700    1.4266656   -1.0381048 
C     2.4340183    0.3579493   -3.3365363 
C    -3.5617277    1.1338558   -4.1091273 
C    -1.6285774    1.8983974   -5.5579198 
C     3.8025116    2.1736158   -1.4270755 
C     3.7152514    1.1163052   -3.7327700 
C    -3.0724478    2.1851817   -5.1175380 
C     4.5915672    1.4110703   -2.5043699 
C    -1.6465254   -2.2362226    0.8619730 
C     1.1198591   -4.1061184    0.3412123 
C    -2.1537918   -0.4355204    2.9202426 
C     0.6551012   -1.1071342    2.3368869 
C     0.6336554   -6.3085616    1.3649588 
C    -3.4418731    0.0297897    2.5772059 
C     1.7144623   -0.1827803    2.2527630 
C    -1.8667146   -0.7498300    4.2605460 
C     0.8629225   -2.3351351    2.9994894 
C     1.2844677   -7.0719416    0.2038637 
C     1.5692098   -6.1765367    2.5730782 
C    -0.7037962   -6.9401257    1.7643766 
C    -4.4320466    0.1617502    3.5587537 
C     2.9611357   -0.4703854    2.8221269 
C    -2.8635136   -0.6193658    5.2404532 
C     2.1124716   -2.6212928    3.5635908 
C    -4.1438883   -0.1669875    4.8943284 
C     3.1607709   -1.6920696    3.4788664 
H     0.5343065   -1.6052877   -2.9655499 
H    -1.1675572   -0.2553186   -3.8741225 
H     1.3804937    2.1464718   -2.7173236 
H    -2.0355818   -1.4817441   -1.6739834 
H    -1.3290487   -2.8776448   -2.5086498 
H    -1.4368359   -3.9134202   -0.4292554 
H     2.0968597   -2.3979661   -1.3821600 
H     1.5241543   -1.2191002   -0.1830758 
H    -2.6053210    1.9938472   -2.3566206 
H    -2.9694163    0.2712568   -2.1905358 
H     0.3412823    1.5360064   -4.7266248 
H    -0.5930516    2.7657377   -3.8553697 
H     2.7800151    0.4684945   -0.5540912 
H     1.9376415    2.0038598   -0.2894317 
H     1.8193592    0.1535438   -4.2313407 
H     2.7165774   -0.6239628   -2.9121612 
H    -4.5812957    1.3754930   -3.7581510 
H    -3.6239704    0.1455137   -4.6058872 
H    -1.6025260    0.9513328   -6.1325648 
H    -1.2674427    2.6903525   -6.2383517 
H     3.5365088    3.1779763   -1.8126485 
H     4.4268096    2.3331947   -0.5293483 
H     4.2793548    0.5271368   -4.4775441 
H     3.4337152    2.0675400   -4.2260614 
H    -3.7415975    2.2154786   -5.9957408 
H    -3.1170250    3.1870472   -4.6487402 
H     5.4870825    1.9855981   -2.8005980 
H     4.9550836    0.4547399   -2.0796620 
H    -1.6398108   -2.9469164    1.7072239 
H    -2.7072088   -2.0147142    0.6462618 
H    -3.6696296    0.2938382    1.5361049 
H     1.5511435    0.7608624    1.7236132 
H    -0.8637649   -1.0786562    4.5476778 
H     0.0665831   -3.0834190    3.0566535 
H     0.6081834   -7.0870553   -0.6682581 
H     2.2392901   -6.6088089   -0.0869994 
H     1.4737363   -8.1144705    0.5113614 
H     1.0642898   -5.6315228    3.3892016 
H     2.4913538   -5.6458826    2.2931915 
H     1.8312654   -7.1815820    2.9454713 
H    -1.3801281   -6.9989961    0.8949103 
H    -0.5393256   -7.9597413    2.1509124 
H    -1.1937562   -6.3418647    2.5515238 
H    -5.4291826    0.5203358    3.2830064 
H     3.7755776    0.2574670    2.7466037 
H    -2.6293790   -0.8623249    6.2820231 
H     2.2730038   -3.5807531    4.0630689 
H    -4.9171377   -0.0642730    5.6625461 
H     4.1357488   -1.9280130    3.9171433 
