117
Energy =
C    -1.5302867    2.6800463    2.0546341 
C    -0.7129559    3.4134833    1.1583948 
C    -1.0804869    3.5663505   -0.2038558 
H     0.2667684    3.7674391    1.5033433 
Pd   -0.8060954    1.3730632    0.3219394 
P    -0.0968524    0.6832022   -1.8216133 
P    -0.8569647   -0.6535758    1.5331133 
H    -2.5978192    2.5903118    1.8020820 
H    -2.1495624    3.4500701   -0.4353057 
C    -0.6750672    2.2314006    6.2454499 
C     0.3821743    2.2485864    5.3205417 
C     0.1185413    2.3832270    3.9541018 
C    -1.2091005    2.4935002    3.4817899 
C    -2.2623282    2.4617054    4.4214566 
C    -1.9970861    2.3405909    5.7904101 
H    -0.4674654    2.1291110    7.3155800 
H     1.4167974    2.1545707    5.6664383 
H     0.9516313    2.3861738    3.2451691 
H    -3.2972022    2.5368395    4.0720305 
H    -2.8275607    2.3221884    6.5032628 
C     1.0574565    5.7555209   -3.2349204 
C     1.6701859    5.5110294   -1.9948438 
C     0.9933758    4.8024153   -0.9960056 
C    -0.3205208    4.3268249   -1.2123541 
C    -0.9372577    4.6144582   -2.4527575 
C    -0.2548686    5.3105417   -3.4569812 
H     1.5934661    6.3056786   -4.0147890 
H     2.6838359    5.8784397   -1.8048240 
H     1.4965934    4.6191277   -0.0417529 
H    -1.9697722    4.2903830   -2.6224344 
H    -0.7523966    5.5170847   -4.4102375 
O     0.4758939   -4.8465338    0.5801665 
O     2.5340462   -3.9938072   -0.0346709 
N     0.5822757   -2.8842044   -0.4892255 
C     0.1580678   -1.1459391   -2.0586309 
C    -1.3117875    1.1737630   -3.1773793 
C     1.5259562    1.5034371   -2.3073057 
C    -1.1505332   -1.9375032   -1.7716813 
C    -0.8758883   -2.7926193   -0.5174930 
C     1.2419096   -1.7487732   -1.1236929 
C    -1.2500217    0.3482677   -4.4835384 
C    -2.7723614    1.2504748   -2.6715270 
C     2.4740042    1.6435502   -1.0933458 
C     2.2588659    0.8557400   -3.5038025 
C    -2.1719503    0.9602946   -5.5563268 
C    -3.7004047    1.8520711   -3.7425950 
C     3.7631587    2.3990182   -1.4598334 
C     3.5361540    1.6408273   -3.8593013 
C    -3.6225180    1.0649418   -5.0605412 
C     4.4805598    1.7487060   -2.6525389 
C    -1.4889620   -2.2527477    0.7896260 
C     1.3143161   -3.9335667    0.0204144 
C    -1.9786496   -0.6248508    2.9953711 
C     0.8150972   -1.0402473    2.1847511 
C     0.9665018   -6.1934317    0.9736095 
C    -3.3482587   -0.3746893    2.7633573 
C     1.8145932   -0.0533010    2.0735415 
C    -1.5339750   -0.8834214    4.3042953 
C     1.1382810   -2.2820328    2.7701068 
C    -0.3239385   -6.8965829    1.4065021 
C     1.5958679   -6.8846388   -0.2431025 
C     1.9493913   -6.0648656    2.1440620 
C    -4.2646871   -0.4225933    3.8211794 
C     3.1144141   -0.2946510    2.5362953 
C    -2.4560928   -0.9233764    5.3610303 
C     2.4401032   -2.5224681    3.2276470 
C    -3.8197525   -0.7057473    5.1224478 
C     3.4281378   -1.5325571    3.1140615 
H     0.4558057   -1.2893482   -3.1093433 
H    -0.9858033    2.2058859   -3.4111339 
H     1.2080668    2.5227872   -2.6026540 
H    -2.0250539   -1.2823226   -1.6229417 
H    -1.3787918   -2.5950469   -2.6258012 
H    -1.2843312   -3.8082324   -0.6440702 
H     2.1369623   -2.0969084   -1.6640981 
H     1.5838449   -1.0230145   -0.3609944 
H    -1.5773090   -0.6888972   -4.2793003 
H    -0.2183142    0.2889073   -4.8684764 
H    -2.8225236    1.8394942   -1.7383342 
H    -3.1295716    0.2344090   -2.4162015 
H     2.7420768    0.6415110   -0.7103420 
H     1.9428429    2.1630725   -0.2738030 
H     1.5979036    0.8024935   -4.3853994 
H     2.5403028   -0.1833755   -3.2468888 
H    -2.1198103    0.3518952   -6.4768418 
H    -1.7971314    1.9687057   -5.8207621 
H    -3.4058305    2.9041093   -3.9282746 
H    -4.7383003    1.8771682   -3.3648477 
H     3.5061452    3.4431748   -1.7176006 
H     4.4287866    2.4400040   -0.5783974 
H     4.0435985    1.1493466   -4.7084910 
H     3.2530579    2.6562709   -4.1993655 
H    -4.2583815    1.5394588   -5.8287313 
H    -4.0272537    0.0459738   -4.9003705 
H     5.3815224    2.3289352   -2.9199392 
H     4.8279772    0.7359236   -2.3677265 
H    -1.3725010   -3.0130999    1.5816769 
H    -2.5753383   -2.1047021    0.6540940 
H    -3.7012271   -0.1422373    1.7504343 
H     1.5642884    0.9014054    1.5979969 
H    -0.4706217   -1.0419539    4.5055670 
H     0.3880019   -3.0742390    2.8522468 
H    -0.8013720   -6.3503343    2.2379087 
H    -1.0365224   -6.9512127    0.5662023 
H    -0.1000105   -7.9221989    1.7442777 
H     2.5152141   -6.3685547   -0.5583003 
H     0.8815926   -6.8992212   -1.0843728 
H     1.8445396   -7.9278088    0.0161994 
H     1.4613242   -5.5672987    2.9998661 
H     2.2653089   -7.0707013    2.4695694 
H     2.8376800   -5.4897611    1.8431454 
H    -5.3269674   -0.2374641    3.6303129 
H     3.8818936    0.4797651    2.4349059 
H    -2.1000816   -1.1187024    6.3776352 
H     2.6879214   -3.4934209    3.6654060 
H    -4.5353789   -0.7437262    5.9501590 
H     4.4447783   -1.7326450    3.4672048 
