117
Energy =
C    -1.4115304    2.6478434    1.8317201 
C    -0.3694343    3.2965297    1.1321428 
C    -0.4464645    3.5280269   -0.2706972 
H     0.5584371    3.5302530    1.6692485 
Pd   -0.5443823    1.3126903    0.1829473 
P    -0.0004995    0.4795626   -1.9349968 
P    -0.9248737   -0.7034101    1.3445389 
H    -2.4129242    2.6630465    1.3742793 
H    -1.4563006    3.5925774   -0.7022009 
C    -1.4449591    2.0572858    6.0891136 
C    -0.2343110    1.9461730    5.3846876 
C    -0.2084212    2.1247721    3.9982019 
C    -1.3963923    2.4052736    3.2856711 
C    -2.6089188    2.4958246    4.0031528 
C    -2.6306037    2.3354113    5.3934638 
H    -1.4627538    1.9223934    7.1755468 
H     0.6938158    1.7172933    5.9186536 
H     0.7393630    2.0234974    3.4618100 
H    -3.5402243    2.6956960    3.4629398 
H    -3.5793315    2.4162180    5.9335183 
C     2.5078689    5.7811188   -2.4552970 
C     2.8621041    5.1472698   -1.2524186 
C     1.9236033    4.3824257   -0.5525769 
C     0.5965711    4.2517898   -1.0252366 
C     0.2557668    4.8981304   -2.2363293 
C     1.2010872    5.6481837   -2.9470890 
H     3.2463283    6.3753742   -3.0027215 
H     3.8806311    5.2431099   -0.8627141 
H     2.2278673    3.8829621    0.3731734 
H    -0.7704626    4.8284409   -2.6122638 
H     0.9112379    6.1442225   -3.8791509 
O     0.9147478   -4.7128671    0.9585012 
O     2.9143775   -3.6402853    0.5237194 
N     0.9205643   -2.8230534   -0.2474667 
C     0.5092265   -1.3221583   -2.0661954 
C    -1.5288701    0.6515165   -3.0233027 
C     1.3948748    1.3352918   -2.8434549 
C    -0.6131384   -2.3845862   -1.9526453 
C    -0.5071716   -2.9637766   -0.5315359 
C     1.5499655   -1.7249558   -0.9795317 
C    -2.8181001    0.3844596   -2.2039323 
C    -1.6422107    2.0470725   -3.6786830 
C     2.7223471    1.2512992   -2.0549903 
C     1.6044843    0.8681127   -4.3024969 
C    -4.0782011    0.4704451   -3.0821241 
C    -2.8963727    2.1462220   -4.5668174 
C     3.8283071    2.0667038   -2.7494627 
C     2.6965415    1.7128865   -4.9866488 
C    -4.1784944    1.8357842   -3.7793084 
C     4.0212487    1.6351138   -4.2115899 
C    -1.4128596   -2.3292862    0.5461645 
C     1.6992687   -3.7359068    0.4320308 
C    -2.3611319   -0.5812050    2.4929885 
C     0.5614847   -1.0939184    2.3475766 
C     1.5076998   -5.9997627    1.4116231 
C    -3.6040209   -0.2388682    1.9165233 
C     1.6703154   -0.2273375    2.2520312 
C    -2.2876416   -0.8380304    3.8733314 
C     0.6400852   -2.2180733    3.1965258 
C     0.2646731   -6.8366880    1.7297126 
C     2.3156523   -6.6184279    0.2630272 
C     2.3602954   -5.7714728    2.6649478 
C    -4.7607324   -0.1904461    2.7043956 
C     2.8338716   -0.4696577    2.9930370 
C    -3.4500322   -0.7874411    4.6577474 
C     1.7975948   -2.4441077    3.9518943 
C    -4.6865519   -0.4750025    4.0774769 
C     2.8945538   -1.5752256    3.8518240 
H     0.9669897   -1.3946306   -3.0657681 
H    -1.4364210   -0.1130496   -3.8210692 
H     1.0814016    2.3966756   -2.8531117 
H    -1.6202146   -2.0154865   -2.1947109 
H    -0.3906068   -3.1940620   -2.6680500 
H    -0.7561625   -4.0365558   -0.5417792 
H     2.5058248   -2.0723162   -1.4061617 
H     1.7864095   -0.8834791   -0.2997766 
H    -2.8721707    1.1453134   -1.3972121 
H    -2.7765298   -0.5931576   -1.6940249 
H    -0.7470268    2.2879200   -4.2740378 
H    -1.7018484    2.8048207   -2.8757179 
H     3.0509548    0.1971703   -1.9928452 
H     2.5686804    1.6053513   -1.0186565 
H     0.6648183    0.9201778   -4.8798727 
H     1.9242455   -0.1918950   -4.3120022 
H    -4.9740874    0.2824887   -2.4631974 
H    -4.0444508   -0.3341934   -3.8425949 
H    -2.7972673    1.4337247   -5.4090048 
H    -2.9508827    3.1552659   -5.0134618 
H     3.5541814    3.1361920   -2.7192304 
H     4.7722435    1.9612459   -2.1848497 
H     2.8323702    1.3678107   -6.0272536 
H     2.3584652    2.7663957   -5.0389883 
H    -5.0573882    1.8640188   -4.4472476 
H    -4.3360455    2.6228407   -3.0150034 
H     4.7869365    2.2661190   -4.6968873 
H     4.4017103    0.5949108   -4.2448930 
H    -1.4939791   -3.0288673    1.3970627 
H    -2.4376681   -2.1897177    0.1587456 
H    -3.6659692   -0.0075633    0.8456534 
H     1.6116825    0.6400119    1.5801520 
H    -1.3260589   -1.0518717    4.3474474 
H    -0.1915763   -2.9260724    3.2661464 
H    -0.3479728   -6.3387040    2.5006488 
H    -0.3522345   -6.9765332    0.8259416 
H     0.5638781   -7.8286195    2.1074571 
H     3.2039900   -6.0108485    0.0330502 
H     1.6891900   -6.7024478   -0.6420103 
H     2.6438724   -7.6318088    0.5500912 
H     1.7384509   -5.3652158    3.4795687 
H     2.7800487   -6.7347064    3.0020294 
H     3.1837618   -5.0737396    2.4526469 
H    -5.7209960    0.0693407    2.2466049 
H     3.6914233    0.2041951    2.8984190 
H    -3.3803474   -0.9809606    5.7329038 
H     1.8482388   -3.3101714    4.6180198 
H    -5.5901763   -0.4393881    4.6945746 
H     3.7997687   -1.7682809    4.4362467 
