117
Energy =
C     0.7643566    2.0636838    2.2181940 
C     1.7640165    1.9411948    1.2365225 
C     1.5672076    2.4158763   -0.0963987 
H     2.6836888    1.3885401    1.4688339 
Pd    0.1168469    0.7699738    0.3469340 
P    -0.7004328    0.4861320   -1.8740075 
P    -1.0073882   -0.9861912    1.4540675 
H    -0.1040673    2.6974872    1.9798541 
H     0.9210499    3.2964521   -0.2190108 
C     1.2401510    1.3182163    6.4167592 
C    -0.0378395    1.5139788    5.8697486 
C    -0.1844938    1.7396428    4.4986534 
C     0.9402307    1.7558418    3.6408307 
C     2.2217149    1.5504584    4.2072844 
C     2.3684735    1.3426221    5.5814895 
H     1.3568439    1.1538651    7.4928108 
H    -0.9208747    1.4917960    6.5157169 
H    -1.1829279    1.8980883    4.0772746 
H     3.1137011    1.5894144    3.5742678 
H     3.3683367    1.2063982    6.0061763 
C     4.6628380    1.8798992   -3.0412054 
C     4.2638218    0.8007370   -2.2341618 
C     3.2669854    0.9829080   -1.2705886 
C     2.6308327    2.2344607   -1.1091162 
C     3.0443283    3.3113294   -1.9210917 
C     4.0585570    3.1354963   -2.8733662 
H     5.4431785    1.7435962   -3.7971519 
H     4.7082895   -0.1919568   -2.3532677 
H     2.9488790    0.1277132   -0.6658313 
H     2.5723086    4.2926222   -1.8006924 
H     4.3739209    3.9826530   -3.4915378 
O     2.2560884   -3.3104058    0.5311667 
O     3.3247569   -2.2203689   -1.1866410 
N     1.0376339   -2.2563656   -1.0503349 
C    -0.5617783   -1.2837491   -2.4724665 
C    -2.4836993    1.0365305   -2.1536844 
C     0.1906856    1.4302830   -3.2605964 
C    -1.2763812   -2.3484362   -1.6074834 
C    -0.2185475   -2.9080673   -0.6207503 
C     0.9145203   -1.7138567   -2.4079744 
C    -3.5856437   -0.0416555   -2.1261944 
C    -2.8406949    2.1950467   -1.1947111 
C    -0.0461771    0.8371265   -4.6703546 
C    -0.1618182    2.9373215   -3.2384257 
C    -4.9430816    0.5804522   -2.5093299 
C    -4.2010147    2.8148537   -1.5592634 
C     0.6881300    1.6464643   -5.7574173 
C     0.5710543    3.7214832   -4.3430221 
C    -5.3122471    1.7528577   -1.5870094 
C     0.2915449    3.1281027   -5.7298647 
C    -0.5755932   -2.7018646    0.8558578 
C     2.3069018   -2.5812104   -0.6071847 
C    -2.8402350   -0.8368746    1.4873655 
C    -0.6163954   -1.2758826    3.2337140 
C     3.5030776   -3.7484398    1.2204942 
C    -3.3596080    0.4007259    1.9258086 
C     0.7445869   -1.3898374    3.5854413 
C    -3.7346474   -1.8750013    1.1631797 
C    -1.6044982   -1.4945750    4.2122546 
C     4.3041847   -2.5156414    1.6615436 
C     2.9540005   -4.5170688    2.4269564 
C     4.3044640   -4.6695995    0.2924150 
C    -4.7411801    0.5935341    2.0438660 
C     1.1108483   -1.7467313    4.8872482 
C    -5.1203667   -1.6729213    1.2603410 
C    -1.2314480   -1.8435762    5.5189927 
C    -5.6257410   -0.4425987    1.7034766 
C     0.1220534   -1.9761620    5.8572263 
H    -0.9437731   -1.3078163   -3.5040699 
H    -2.4600125    1.4366302   -3.1866140 
H     1.2648675    1.3311243   -3.0200483 
H    -2.1466890   -1.9462239   -1.0690346 
H    -1.6531780   -3.1513677   -2.2624725 
H    -0.1150796   -4.0029338   -0.7564335 
H     1.1296472   -2.4926568   -3.1685321 
H     1.6438943   -0.9019901   -2.5530886 
H    -3.6631194   -0.4756625   -1.1132138 
H    -3.3476725   -0.8636100   -2.8237645 
H    -2.0519739    2.9673448   -1.2010568 
H    -2.8759674    1.7901099   -0.1667750 
H    -1.1315666    0.8252200   -4.8974431 
H     0.3041980   -0.2074757   -4.7179014 
H     0.0692901    3.3676796   -2.2488292 
H    -1.2488165    3.0677227   -3.3960440 
H    -5.7258315   -0.1986014   -2.4744102 
H    -4.8952687    0.9348530   -3.5580351 
H    -4.1230520    3.2964686   -2.5541929 
H    -4.4494672    3.6167892   -0.8405882 
H     1.7796336    1.5562634   -5.5922766 
H     0.4767559    1.1998052   -6.7455588 
H     0.2639786    4.7820163   -4.2983669 
H     1.6583515    3.6918894   -4.1518803 
H    -6.2675481    2.2054806   -1.9075250 
H    -5.4687661    1.3660096   -0.5622131 
H     0.8420016    3.6885805   -6.5062140 
H    -0.7859630    3.2274731   -5.9696363 
H     0.2811210   -3.0054183    1.4734450 
H    -1.4092990   -3.3714783    1.1320357 
H    -2.6703031    1.2140221    2.1818947 
H     1.5166541   -1.2038022    2.8297100 
H    -3.3635986   -2.8501867    0.8330470 
H    -2.6649231   -1.4076219    3.9572013 
H     5.1668920   -2.8400100    2.2679410 
H     4.6734113   -1.9524234    0.7917223 
H     3.6791527   -1.8520159    2.2843745 
H     3.7880798   -4.9129880    3.0299048 
H     2.3307554   -5.3634681    2.0932072 
H     2.3406008   -3.8593421    3.0656265 
H     4.6820525   -4.1189158   -0.5815782 
H     5.1604073   -5.0903289    0.8471569 
H     3.6717148   -5.5055055   -0.0515055 
H    -5.1290538    1.5565647    2.3911348 
H     2.1701320   -1.8318804    5.1489625 
H    -5.8051104   -2.4852787    0.9961905 
H    -2.0060493   -2.0185180    6.2729309 
H    -6.7067735   -0.2898614    1.7830108 
H     0.4089955   -2.2514877    6.8771762 
