117
Energy =
C     0.9589242   -0.0808394   -3.3704608 
C     0.3008931   -1.3457540   -3.2918710 
C    -1.0644948   -1.4323595   -2.9418257 
H     0.8909719   -2.2650706   -3.3878472 
Pd    0.2113149   -0.4276370   -1.2881466 
P    -1.0070874   -1.3299738    0.5053502 
P     1.5039038    1.2332080   -0.2776534 
H     0.3294436    0.7857823   -3.6216058 
H    -1.6610062   -0.5141697   -3.0487674 
C     5.1246057    0.4904689   -4.3330652 
C     4.6924308   -0.7394892   -3.8090256 
C     3.3447242   -0.9406219   -3.4921032 
C     2.3898365    0.0810526   -3.7029860 
C     2.8366620    1.3020705   -4.2612905 
C     4.1884629    1.5091642   -4.5639294 
H     6.1812228    0.6462824   -4.5728503 
H     5.4130778   -1.5472949   -3.6448214 
H     3.0346678   -1.9012998   -3.0679713 
H     2.1079786    2.0916964   -4.4767486 
H     4.5084596    2.4640644   -4.9937490 
C    -3.4990487   -4.9680651   -2.8263779 
C    -2.1093300   -5.0901556   -2.9954287 
C    -1.2958915   -3.9544937   -3.0028671 
C    -1.8587346   -2.6650050   -2.8550784 
C    -3.2572730   -2.5586026   -2.6685371 
C    -4.0691863   -3.6983882   -2.6535930 
H    -4.1325064   -5.8611077   -2.8268050 
H    -1.6575836   -6.0793098   -3.1189932 
H    -0.2161739   -4.0743111   -3.1323787 
H    -3.7080989   -1.5687372   -2.5414656 
H    -5.1503673   -3.5934201   -2.5166664 
O    -2.5378232    0.5744190    4.1097406 
O    -2.9847409    2.4314412    2.8088002 
N    -1.0913069    1.1840292    2.5088024 
C     0.9511192    1.7825401    1.4162894 
C     3.3147621    0.7529787   -0.1565054 
C     1.4594441    2.7708572   -1.3453451 
C     1.2150571    0.7305208    2.5297629 
C    -0.1547495    0.1354734    2.9103765 
C    -0.5791730    2.0609285    1.4590328 
C     4.1609940    1.5027990    0.8998067 
C     3.4807437   -0.7784306    0.0077405 
C     0.0166611    3.2169741   -1.6782413 
C     2.3075164    3.9755295   -0.8852474 
C     5.6426778    1.0929715    0.7944784 
C     4.9609609   -1.1878444   -0.0734235 
C     0.0183225    4.3079086   -2.7639330 
C     2.2952143    5.0821107   -1.9602271 
C     5.8167663   -0.4259982    0.9515450 
C     0.8677140    5.5135653   -2.3304480 
C    -0.4662743   -1.2460405    2.2962064 
C    -2.2868482    1.4799352    3.1287519 
C    -1.0038513   -3.1635674    0.3234491 
C    -2.7466156   -0.7491198    0.5258986 
C    -3.5390632    0.8679181    5.1710118 
C    -2.1538054   -3.9717955    0.3488139 
C    -3.1312286    0.2437674   -0.3986575 
C     0.2653418   -3.7685446    0.1802781 
C    -3.7053940   -1.2469366    1.4339465 
C    -3.3623870   -0.3199824    6.1218237 
C    -3.1714457    2.1905325    5.8565861 
C    -4.9501893    0.8966168    4.5729237 
C    -2.0308399   -5.3669347    0.2668583 
C    -4.4471582    0.7225629   -0.4290329 
C     0.3815976   -5.1617702    0.1013675 
C    -5.0279116   -0.7892289    1.3788460 
C    -0.7685530   -5.9648996    0.1536908 
C    -5.4013706    0.1954816    0.4518786 
H     1.5119035    2.7060482    1.6361436 
H     3.6938616    1.0158576   -1.1659486 
H     1.9159651    2.3875419   -2.2769421 
H     1.9269839   -0.0542041    2.2311221 
H     1.6457952    1.2392227    3.4075320 
H    -0.2234204    0.0070728    4.0026560 
H    -0.8229401    3.1084214    1.7019891 
H    -1.0660249    1.8303508    0.4913584 
H     3.7936256    1.2534139    1.9123170 
H     4.0618704    2.5950019    0.7893892 
H     2.8856421   -1.2994831   -0.7645642 
H     3.0673961   -1.0952092    0.9855800 
H    -0.4661374    3.6246609   -0.7709386 
H    -0.5890868    2.3469391   -1.9975118 
H     3.3492277    3.6680147   -0.6962993 
H     1.9064921    4.3787140    0.0651188 
H     6.2292293    1.6318699    1.5598272 
H     6.0362806    1.4104823   -0.1910666 
H     5.3313655   -0.9700668   -1.0929546 
H     5.0542418   -2.2790366    0.0750457 
H     0.4250307    3.8866442   -3.7050777 
H    -1.0188971    4.6207714   -2.9796932 
H     2.8817724    5.9475533   -1.6036689 
H     2.8106523    4.7017331   -2.8644068 
H     6.8802368   -0.7035373    0.8428758 
H     5.5155655   -0.7231655    1.9757830 
H     0.8934660    6.2738396   -3.1310818 
H     0.3914739    5.9943296   -1.4532996 
H    -1.2897395   -1.7176572    2.8609623 
H     0.4087629   -1.9129212    2.3902234 
H    -3.1476073   -3.5213738    0.4105300 
H    -2.3843255    0.6467705   -1.0929244 
H     1.1655769   -3.1423499    0.1316616 
H    -3.4280510   -1.9903502    2.1880681 
H    -3.5551880   -1.2686335    5.5921304 
H    -2.3366447   -0.3454428    6.5271606 
H    -4.0706680   -0.2387170    6.9631750 
H    -3.2879332    3.0383390    5.1643153 
H    -2.1288198    2.1570191    6.2176793 
H    -3.8325306    2.3500119    6.7252430 
H    -5.6826862    1.0852923    5.3764827 
H    -5.0351496    1.6872768    3.8131439 
H    -5.1879181   -0.0751382    4.1114080 
H    -2.9332318   -5.9864512    0.2810685 
H    -4.7261292    1.5059037   -1.1409073 
H     1.3704789   -5.6209033   -0.0009631 
H    -5.7709809   -1.1976115    2.0706446 
H    -0.6802561   -7.0545478    0.0935142 
H    -6.4334915    0.5592517    0.4260145 
