117
Energy =
C     1.0011487   -0.4001373   -3.0322807 
C     0.3999027   -1.6904039   -2.9155739 
C    -0.9494200   -1.8395678   -2.5419578 
H     1.0224792   -2.5838058   -3.0423772 
Pd    0.3751606   -0.7597949   -0.9093492 
P    -0.7850857   -1.7972283    0.8813639 
P     1.5225458    1.0642340    0.0385951 
H     0.3225575    0.4335802   -3.2623088 
H    -1.5846998   -0.9445181   -2.6088048 
C     4.9994786    0.1462676   -4.5468434 
C     4.0333265    1.1514670   -4.7004796 
C     2.7413020    0.9688700   -4.1911808 
C     2.3886827   -0.2172624   -3.5063949 
C     3.3798607   -1.2135615   -3.3446437 
C     4.6643856   -1.0382597   -3.8693660 
H     6.0074020    0.2826875   -4.9513443 
H     4.2817417    2.0759590   -5.2319414 
H     1.9864538    1.7480737   -4.3399956 
H     3.1458515   -2.1328088   -2.7969710 
H     5.4140883   -1.8258017   -3.7410181 
C    -3.2092762   -5.4892909   -2.4883077 
C    -3.8380021   -4.2547615   -2.2704666 
C    -3.0831817   -3.0766913   -2.2655339 
C    -1.6836308   -3.1081789   -2.4718872 
C    -1.0621203   -4.3640342   -2.6717438 
C    -1.8187044   -5.5376540   -2.6862596 
H    -3.7979396   -6.4123460   -2.5032196 
H    -4.9204150   -4.2069356   -2.1134504 
H    -3.5816790   -2.1154678   -2.1069488 
H     0.0192437   -4.4272687   -2.8228945 
H    -1.3216465   -6.4990199   -2.8484036 
O    -1.9427140    2.1790134    3.3342499 
O    -2.1991364   -0.0080481    4.0143777 
N    -0.3071166    0.7104834    2.9198578 
C     1.7537882    1.1585975    1.9088945 
C     3.2947062    1.2789700   -0.5275383 
C     0.6192204    2.6478279   -0.4077242 
C     1.8478401   -0.2457209    2.5540058 
C     0.4534256   -0.5254656    3.1852627 
C     0.6204357    1.8222269    2.6968903 
C     3.9611381    2.6115898   -0.1158305 
C     4.1533049    0.0723601   -0.0803536 
C     0.9104763    3.1662852   -1.8323963 
C    -0.9088690    2.4587198   -0.2456710 
C     5.3888498    2.7008767   -0.6888945 
C     5.5921730    0.1790240   -0.6165393 
C     0.1734659    4.4959480   -2.0838540 
C    -1.6621531    3.7772037   -0.4834076 
C     6.2472763    1.5131359   -0.2267446 
C    -1.3433213    4.3569589   -1.8710515 
C    -0.2160225   -1.7981108    2.6643667 
C    -1.5587795    0.8920552    3.4863918 
C    -0.6984983   -3.6220647    0.6030610 
C    -2.5661757   -1.3514905    0.9564787 
C    -3.2551124    2.6655465    3.8410170 
C    -1.7953726   -4.4971448    0.6820219 
C    -3.0851836   -0.4501486    0.0070526 
C     0.5897759   -4.1489791    0.3595363 
C    -3.4402068   -1.9080699    1.9148441 
C    -3.3151341    2.4812436    5.3623715 
C    -3.2191284    4.1485995    3.4589237 
C    -4.3811502    1.9280859    3.1096649 
C    -1.5992470   -5.8806029    0.5541991 
C    -4.4510852   -0.1380490   -0.0162228 
C     0.7804374   -5.5307755    0.2351583 
C    -4.8074785   -1.6055566    1.8837443 
C    -0.3155876   -6.4012606    0.3419781 
C    -5.3176227   -0.7281559    0.9148330 
H     2.6879258    1.7260226    2.0477891 
H     3.2262484    1.2516646   -1.6307699 
H     0.9747030    3.4080688    0.3172538 
H     2.1133745   -1.0243440    1.8182217 
H     2.6278145   -0.2535944    3.3329474 
H     0.5603224   -0.6559971    4.2810020 
H     1.0161359    2.2041928    3.6621198 
H     0.1188278    2.6612337    2.1995265 
H     4.0206987    2.6812392    0.9879263 
H     3.3632261    3.4755612   -0.4539592 
H     3.6801828   -0.8681982   -0.4206689 
H     4.1903455    0.0340829    1.0258020 
H     0.5597368    2.4129637   -2.5612497 
H     1.9916934    3.2954568   -2.0056081 
H    -1.1745513    2.0319170    0.7357785 
H    -1.2270090    1.7133346   -1.0020043 
H     5.8497351    3.6574119   -0.3837892 
H     5.3335715    2.7090293   -1.7950818 
H     5.5674513    0.0947363   -1.7176040 
H     6.1892203   -0.6722477   -0.2422674 
H     0.5752608    5.2642528   -1.3945229 
H     0.3880821    4.8496585   -3.1083695 
H    -2.7485281    3.6070560   -0.3714376 
H    -1.3752725    4.5035931    0.3021096 
H     7.2608500    1.5805932   -0.6604469 
H     6.3709454    1.5593388    0.8737114 
H    -1.8399659    5.3340844   -2.0064357 
H    -1.7567830    3.6823619   -2.6473239 
H    -1.1001403   -2.0318506    3.2783622 
H     0.4936108   -2.6371346    2.7607958 
H    -2.8063743   -4.1075053    0.8265165 
H    -2.4071282    0.0077721   -0.7187791 
H     1.4480528   -3.4692828    0.2714917 
H    -3.0618469   -2.5788387    2.6916697 
H    -3.3173643    1.4142032    5.6302795 
H    -2.4512167    2.9732351    5.8413001 
H    -4.2365457    2.9482899    5.7500472 
H    -3.1270029    4.2639380    2.3658036 
H    -2.3636317    4.6515501    3.9403258 
H    -4.1479346    4.6438227    3.7874785 
H    -4.2612898    2.0340381    2.0181938 
H    -4.3783956    0.8577819    3.3617723 
H    -5.3538400    2.3623857    3.3975121 
H    -2.4617192   -6.5522337    0.6135458 
H    -4.8364063    0.5660354   -0.7612229 
H     1.7849231   -5.9283347    0.0556255 
H    -5.4751716   -2.0498581    2.6287806 
H    -0.1695750   -7.4822717    0.2479136 
H    -6.3862743   -0.4906627    0.8989731 
