117
Energy =
C    -1.3565898    1.1597672   -1.9558665 
C    -1.2204432   -0.1283408   -2.4976224 
C    -1.8420919   -1.2573175   -1.8650683 
H    -0.5370014   -0.2857435   -3.3418579 
Pd   -0.4246747   -0.3748024   -0.4333275 
P    -1.0280786   -1.8177223    1.3276074 
P     1.5138743    0.6720188    0.4246789 
H    -2.1016341    1.2942784   -1.1558283 
H    -2.8281089   -1.1082588   -1.4072515 
C    -0.1163139    4.8991864   -3.6594899 
C    -0.0721312    3.7332223   -4.4424477 
C    -0.4345554    2.4984511   -3.8933285 
C    -0.8685895    2.4102964   -2.5495001 
C    -0.9145877    3.5939598   -1.7746635 
C    -0.5325430    4.8241276   -2.3204995 
H     0.1671935    5.8627185   -4.0947947 
H     0.2432039    3.7888835   -5.4891738 
H    -0.4166722    1.6047531   -4.5249286 
H    -1.2622899    3.5328784   -0.7379167 
H    -0.5714301    5.7293412   -1.7053969 
C    -0.8941935   -5.3232332   -2.9187746 
C     0.0504548   -4.3052358   -3.1382539 
C    -0.2556779   -2.9802226   -2.8118730 
C    -1.5184572   -2.6406790   -2.2626245 
C    -2.4604070   -3.6739689   -2.0578177 
C    -2.1488582   -5.0007330   -2.3798111 
H    -0.6529944   -6.3610367   -3.1708728 
H     1.0325051   -4.5481130   -3.5576388 
H     0.5041742   -2.2037224   -2.9544468 
H    -3.4414093   -3.4296177   -1.6381426 
H    -2.8916372   -5.7863781   -2.2072546 
O    -2.3699608    3.1390668    1.4273319 
O    -3.3201440    1.1998504    2.2100543 
N    -1.0413985    1.5129843    2.2419842 
C     1.2956102    1.4031973    2.1351172 
C     3.0314074   -0.4490833    0.4381866 
C     2.1291671    2.1325819   -0.5903205 
C     0.8245003    0.3678868    3.1844828 
C    -0.7270053    0.4233711    3.1946616 
C     0.1180518    2.3968820    2.0853153 
C     3.4468874   -1.0756907    1.7848236 
C     2.8791582   -1.5484291   -0.6398707 
C     3.2011369    2.9982587    0.1088298 
C     2.6073099    1.6643574   -1.9841952 
C     4.7633632   -1.8599896    1.6217315 
C     4.1795905   -2.3549623   -0.7988535 
C     3.6456835    4.1700621   -0.7883357 
C     3.0540249    2.8507667   -2.8553976 
C     4.6409295   -2.9474006    0.5424853 
C     4.1409017    3.6802905   -2.1567384 
C    -1.4165087   -0.9180691    2.9176530 
C    -2.3382113    1.9005141    1.9813250 
C     0.1596204   -3.1660199    1.7041469 
C    -2.6330161   -2.7032847    1.1055597 
C    -3.6756927    3.8377486    1.2102404 
C     0.5154624   -4.0065355    0.6253462 
C    -3.7826182   -1.9116497    0.8819016 
C     0.7093652   -3.4138571    2.9766478 
C    -2.7589398   -4.1036719    1.1614805 
C    -4.4615943    3.1128698    0.1108998 
C    -4.4457069    3.9191088    2.5353981 
C    -3.2385544    5.2354922    0.7591626 
C     1.3923023   -5.0796405    0.8223415 
C    -5.0323254   -2.5180882    0.7057563 
C     1.6041850   -4.4788884    3.1649754 
C    -4.0156539   -4.7043471    0.9858146 
C     1.9435853   -5.3154437    2.0921674 
C    -5.1510934   -3.9175853    0.7506880 
H     2.2331835    1.8925625    2.4422480 
H     3.8545738    0.2262879    0.1316805 
H     1.2302700    2.7570700   -0.7496111 
H     1.1789690   -0.6490410    2.9612486 
H     1.2266141    0.6346420    4.1757518 
H    -1.0803368    0.7345753    4.1983971 
H     0.1857639    3.1270489    2.9179662 
H     0.0404728    2.9663150    1.1479470 
H     2.6615761   -1.7725839    2.1302883 
H     3.5676322   -0.2979494    2.5598334 
H     2.5814600   -1.1073716   -1.6074868 
H     2.0564141   -2.2214127   -0.3367915 
H     4.0832890    2.3750393    0.3576548 
H     2.8154441    3.4003665    1.0621654 
H     1.7991780    1.0982191   -2.4846953 
H     3.4643981    0.9738089   -1.8712024 
H     5.0456204   -2.3091520    2.5910246 
H     5.5744220   -1.1556588    1.3502135 
H     4.9701539   -1.6923939   -1.2037915 
H     4.0279739   -3.1572612   -1.5439173 
H     2.7864163    4.8537889   -0.9352791 
H     4.4304802    4.7508144   -0.2711911 
H     3.4126990    2.4758195   -3.8309307 
H     2.1817332    3.4949212   -3.0628688 
H     5.6041285   -3.4737788    0.4185120 
H     3.9033660   -3.7014552    0.8765657 
H     4.4335270    4.5384313   -2.7876981 
H     5.0509210    3.0629271   -2.0196349 
H    -2.5032119   -0.7527724    2.8954860 
H    -1.2128307   -1.6077227    3.7555527 
H     0.0947745   -3.8258233   -0.3695276 
H    -3.7061715   -0.8171098    0.8752796 
H     0.4466217   -2.7861269    3.8338288 
H    -1.8828675   -4.7327896    1.3411986 
H    -3.8690708    3.0621306   -0.8188960 
H    -4.7326826    2.0956178    0.4308929 
H    -5.3867669    3.6730494   -0.1072841 
H    -3.8112273    4.3732834    3.3158651 
H    -4.7765642    2.9261301    2.8710917 
H    -5.3311347    4.5622702    2.3962264 
H    -2.5906084    5.7006231    1.5206782 
H    -2.6931233    5.1948181   -0.1972854 
H    -4.1273750    5.8725270    0.6184769 
H     1.6496278   -5.7268657   -0.0223274 
H    -5.9171701   -1.8949913    0.5393428 
H     2.0291300   -4.6581593    4.1578940 
H    -4.1018179   -5.7949562    1.0327071 
H     2.6369273   -6.1487717    2.2447807 
H    -6.1286569   -4.3903496    0.6110101 
