117
Energy =
C     0.8791951   -0.1670630   -3.1551754 
C     0.2810420   -1.4585314   -3.0616235 
C    -1.0575321   -1.6198079   -2.6450083 
H     0.9041586   -2.3484115   -3.2089026 
Pd    0.2694033   -0.5839556   -1.0339582 
P    -0.8218698   -1.6176212    0.7716192 
P     1.5237796    1.0757570    0.0362436 
H     0.2009137    0.6773282   -3.3431383 
H    -1.7044011   -0.7319402   -2.6984081 
C     4.9056232    0.5430390   -4.5234933 
C     4.5543907   -0.7199769   -4.0180556 
C     3.2556075   -0.9622499   -3.5576264 
C     2.2681891    0.0498337   -3.6079821 
C     2.6324629    1.3090381   -4.1384845 
C     3.9373036    1.5567369   -4.5829253 
H     5.9245938    0.7311389   -4.8760822 
H     5.3018053   -1.5189601   -3.9762285 
H     3.0117865   -1.9465915   -3.1444871 
H     1.8751457    2.0972650   -4.2130720 
H     4.1960058    2.5409196   -4.9869926 
C    -3.2785754   -5.2931967   -2.4905968 
C    -3.9108042   -4.0631083   -2.2582441 
C    -3.1682804   -2.8773483   -2.2900725 
C    -1.7777149   -2.8967591   -2.5500653 
C    -1.1512988   -4.1477741   -2.7621362 
C    -1.8959335   -5.3292725   -2.7392570 
H    -3.8581071   -6.2220115   -2.4769890 
H    -4.9870082   -4.0245664   -2.0609980 
H    -3.6692894   -1.9195620   -2.1173688 
H    -0.0754931   -4.2018497   -2.9524923 
H    -1.3951761   -6.2869669   -2.9116913 
O    -2.9136364    1.9682330    3.1289519 
O    -2.5267148    0.0686484    4.3843083 
N    -1.0288309    0.8004813    2.8182209 
C     0.9767461    1.5602051    1.7599521 
C     3.3414577    0.6396804    0.2823475 
C     1.4684145    2.6942706   -0.9051767 
C     1.3007244    0.5388175    2.8809800 
C    -0.0178194   -0.1874966    3.2005320 
C    -0.5549205    1.8016193    1.8611792 
C     3.4898331   -0.9006335    0.3539814 
C     4.3032612    1.2124010   -0.7822634 
C     0.0486765    3.0618286   -1.3965825 
C     2.0976264    3.9105775   -0.1889422 
C     4.9402679   -1.3160431    0.6512404 
C     5.7568701    0.7930536   -0.4918157 
C     0.1076895    4.2603138   -2.3621837 
C     2.1786951    5.1092605   -1.1543718 
C     5.9070472   -0.7327636   -0.3906419 
C     0.7915466    5.4736879   -1.7093237 
C    -0.2095910   -1.5663672    2.5355805 
C    -2.2092447    0.8847839    3.5269833 
C    -0.7036582   -3.4405182    0.5200573 
C    -2.5955215   -1.1629437    0.8802180 
C    -4.0453996    2.4849325    3.9460457 
C    -1.7845350   -4.3333520    0.6236819 
C    -3.0961855   -0.1997863   -0.0196436 
C     0.5894411   -3.9461132    0.2568571 
C    -3.4740077   -1.7470561    1.8179543 
C    -3.5338613    2.8108187    5.3553080 
C    -4.4384587    3.7547441    3.1848787 
C    -5.1949770    1.4715904    3.9648345 
C    -1.5671196   -5.7135594    0.4985369 
C    -4.4564945    0.1345783   -0.0243286 
C     0.8005688   -5.3251933    0.1358737 
C    -4.8362126   -1.4226551    1.8004492 
C    -0.2785329   -6.2132522    0.2660255 
C    -5.3325844   -0.4962681    0.8705102 
H     1.5201198    2.4979409    1.9612558 
H     3.6176223    1.0712376    1.2656054 
H     2.0807918    2.4593409   -1.7978046 
H     2.1156080   -0.1586753    2.6338646 
H     1.6202054    1.0968168    3.7769165 
H    -0.1086630   -0.3599459    4.2861479 
H    -0.7947736    2.8161554    2.2210633 
H    -1.0628064    1.6721297    0.8854939 
H     3.1697854   -1.3203346   -0.6205572 
H     2.8059197   -1.3254365    1.1118576 
H     4.2425976    2.3122274   -0.8172564 
H     4.0087384    0.8425159   -1.7779694 
H    -0.5851716    3.3302169   -0.5305245 
H    -0.4318441    2.1914594   -1.8800475 
H     3.0989302    3.6709752    0.2106003 
H     1.4665405    4.1922081    0.6762364 
H     5.0128686   -2.4185208    0.6768463 
H     5.2201792   -0.9569983    1.6613098 
H     6.0882570    1.2592718    0.4571786 
H     6.4119027    1.1921958   -1.2869750 
H     0.6696610    3.9655484   -3.2704474 
H    -0.9124573    4.5243110   -2.6939213 
H     2.6259352    5.9754949   -0.6350750 
H     2.8598344    4.8527443   -1.9895339 
H     6.9489669   -0.9998356   -0.1399896 
H     5.6893820   -1.1832030   -1.3778399 
H     0.8741774    6.3021709   -2.4349079 
H     0.1562702    5.8429610   -0.8800557 
H    -0.9563439   -2.1440932    3.1083628 
H     0.7292478   -2.1468600    2.5620246 
H    -2.7998930   -3.9605684    0.7798806 
H    -2.4074593    0.2870411   -0.7204896 
H     1.4331359   -3.2532334    0.1462315 
H    -3.1040086   -2.4506766    2.5694361 
H    -3.2302106    1.8941678    5.8840913 
H    -2.6740263    3.5008819    5.3008717 
H    -4.3350316    3.3022709    5.9329792 
H    -4.7299932    3.5057968    2.1503714 
H    -3.5947939    4.4648652    3.1519426 
H    -5.2912086    4.2449883    3.6834077 
H    -4.8830709    0.5363691    4.4521845 
H    -6.0482695    1.9012773    4.5171763 
H    -5.5206872    1.2492842    2.9364871 
H    -2.4170362   -6.3992727    0.5746246 
H    -4.8317930    0.8838552   -0.7289963 
H     1.8082300   -5.7065808   -0.0599850 
H    -5.5105240   -1.8863925    2.5271449 
H    -0.1159713   -7.2920988    0.1744527 
H    -6.3993524   -0.2500503    0.8598077 
