117
Energy =
C     0.7752822   -0.2103905   -3.1729413 
C     0.2155628   -1.5169314   -3.0606585 
C    -1.1162677   -1.7014664   -2.6277006 
H     0.8580838   -2.3933960   -3.2055087 
Pd    0.1981528   -0.6375996   -1.0362945 
P    -0.8555697   -1.6514046    0.7992019 
P     1.5131143    1.0317220   -0.0703371 
H     0.0664866    0.6092605   -3.3565780 
H    -1.7797261   -0.8258178   -2.6817128 
C     4.7770229    0.7003211   -4.4967116 
C     4.4700526   -0.5956644   -4.0502275 
C     3.1781178   -0.9086370   -3.6129327 
C     2.1536166    0.0658970   -3.6247077 
C     2.4715569    1.3568307   -4.1091922 
C     3.7684071    1.6750705   -4.5300894 
H     5.7908593    0.9423147   -4.8309837 
H     5.2455328   -1.3685866   -4.0423838 
H     2.9692555   -1.9216317   -3.2542699 
H     1.6817908    2.1138214   -4.1695071 
H     3.9883865    2.6823764   -4.8987386 
C    -3.2892949   -5.4024911   -2.4750254 
C    -1.9069169   -5.4210983   -2.7268467 
C    -1.1759448   -4.2308654   -2.7451649 
C    -1.8167154   -2.9886842   -2.5260554 
C    -3.2059493   -2.9868741   -2.2577341 
C    -3.9345352   -4.1813754   -2.2310261 
H    -3.8581623   -6.3379391   -2.4663207 
H    -1.3957071   -6.3719671   -2.9065604 
H    -0.0999580   -4.2710075   -2.9383172 
H    -3.7161719   -2.0354978   -2.0750172 
H    -5.0101659   -4.1567551   -2.0283387 
O    -2.5342303    2.1613685    3.0861374 
O    -2.4253775    0.0797058    4.0815719 
N    -0.7555595    0.8569319    2.7183940 
C     1.3148809    1.4848038    1.7308062 
C     3.3325734    0.5846260   -0.2662348 
C     1.2812176    2.6561741   -0.9899076 
C     1.5555157    0.3136927    2.7143813 
C     0.1635251   -0.2166892    3.1270699 
C    -0.0901435    2.0070176    2.1011859 
C     4.3291992    1.3508867    0.6321645 
C     3.5453648   -0.9448233   -0.1376918 
C    -0.1860891    2.8966254   -1.4228260 
C     1.8434307    3.9242888   -0.3088675 
C     5.7812983    0.9502535    0.3078554 
C     5.0034655   -1.3404271   -0.4267734 
C    -0.2893210    4.1047983   -2.3705835 
C     1.7426192    5.1358485   -1.2568729 
C     5.9898046   -0.5642300    0.4596578 
C     0.2981734    5.3708951   -1.7260748 
C    -0.2297710   -1.5899601    2.5580584 
C    -1.9717644    0.9658720    3.3671957 
C    -0.7406291   -3.4780660    0.5600318 
C    -2.6298256   -1.1984152    0.8916327 
C    -3.7423296    2.6376992    3.8139443 
C     0.5585333   -3.9850774    0.3291922 
C    -3.1169533   -0.2227454   -0.0022291 
C    -1.8234958   -4.3713429    0.6306452 
C    -3.5254884   -1.8088876    1.7944813 
C    -4.9326687    1.7277469    3.4960309 
C    -3.4331330    2.6977230    5.3152687 
C    -3.9400963    4.0387135    3.2270737 
C     0.7723006   -5.3634989    0.2079754 
C    -4.4825928    0.0860247   -0.0463231 
C    -1.6035001   -5.7515632    0.5073996 
C    -4.8923601   -1.5065769    1.7412026 
C    -0.3101677   -6.2517359    0.3066208 
C    -5.3757126   -0.5754374    0.8099179 
H     2.0593703    2.2802808    1.8974139 
H     3.5308264    0.8554217   -1.3228849 
H     1.8728312    2.4720287   -1.9073444 
H     2.1871436   -0.4841579    2.2944767 
H     2.0791941    0.6992144    3.6052168 
H     0.1168808   -0.3243918    4.2266183 
H    -0.0158913    2.8504041    2.8149319 
H    -0.6786340    2.3643075    1.2419190 
H     4.1258789    1.1170310    1.6947807 
H     4.2075090    2.4411258    0.5148504 
H     2.8539768   -1.4695075   -0.8239006 
H     3.2787656   -1.2746979    0.8849811 
H    -0.8118186    3.0877613   -0.5308277 
H    -0.5985175    1.9886224   -1.8984847 
H     2.8930732    3.7780359   -0.0031770 
H     1.2656362    4.1372591    0.6111894 
H     6.4718927    1.5065680    0.9665186 
H     6.0160826    1.2533603   -0.7312734 
H     5.2244930   -1.1253825   -1.4883810 
H     5.1257330   -2.4299415   -0.2872612 
H     0.2586823    3.8804982   -3.3073004 
H    -1.3446588    4.2671313   -2.6541895 
H     2.1359258    6.0347714   -0.7494524 
H     2.3929305    4.9578341   -2.1359165 
H     7.0291091   -0.8366241    0.2039769 
H     5.8393672   -0.8496470    1.5198706 
H     0.2579383    6.2167298   -2.4350043 
H    -0.3254640    5.6571725   -0.8561547 
H    -1.0474949   -2.0109110    3.1683313 
H     0.6203252   -2.2908791    2.6200198 
H     1.4066143   -3.2933035    0.2469331 
H    -2.4123625    0.2930687   -0.6657225 
H    -2.8426926   -3.9996222    0.7606564 
H    -3.1648793   -2.5213280    2.5422952 
H    -5.0903255    1.6771552    2.4066540 
H    -4.7603964    0.7105837    3.8773441 
H    -5.8431583    2.1400930    3.9637529 
H    -2.5378641    3.3169888    5.4977591 
H    -3.2650763    1.6891852    5.7226651 
H    -4.2842407    3.1570315    5.8461986 
H    -3.0564612    4.6693241    3.4229721 
H    -4.0964506    3.9799033    2.1365021 
H    -4.8221594    4.5175808    3.6838295 
H     1.7846782   -5.7444873    0.0370054 
H    -4.8488992    0.8418386   -0.7488659 
H    -2.4558486   -6.4364624    0.5594286 
H    -5.5810027   -1.9943366    2.4383626 
H    -0.1458932   -7.3303295    0.2151288 
H    -6.4455575   -0.3460542    0.7707273 
