117
Energy =
C     1.0599239   -0.3535308   -3.0141401 
C     0.4396501   -1.6378121   -2.9364070 
C    -0.9192996   -1.7766236   -2.5953475 
H     1.0534490   -2.5366549   -3.0674085 
Pd    0.3835482   -0.7459146   -0.9128062 
P    -0.8287014   -1.8044459    0.8297268 
P     1.5354449    1.0415947    0.0957816 
H     0.3974224    0.4934668   -3.2429774 
H    -1.5415285   -0.8721187   -2.6569336 
C     5.0982067    0.1675012   -4.4285070 
C     4.7329065   -1.0242003   -3.7798412 
C     3.4346178   -1.1920263   -3.2875933 
C     2.4599886   -0.1803039   -3.4539317 
C     2.8428950    1.0128094   -4.1096708 
C     4.1483889    1.1874917   -4.5863809 
H     6.1167563    0.2979310   -4.8075643 
H     5.4696112   -1.8233926   -3.6483247 
H     3.1766441   -2.1175750   -2.7617243 
H     2.1014570    1.8041378   -4.2618619 
H     4.4203055    2.1176383   -5.0960155 
C    -3.2259579   -5.3967554   -2.6617637 
C    -1.8326103   -5.4591102   -2.8346216 
C    -1.0616623   -4.2960182   -2.7811534 
C    -1.6708970   -3.0366285   -2.5662924 
C    -3.0736641   -2.9911714   -2.3858816 
C    -3.8430730   -4.1589110   -2.4299753 
H    -3.8258830   -6.3115362   -2.7071026 
H    -1.3447563   -6.4232525   -3.0078357 
H     0.0214804   -4.3702341   -2.9134617 
H    -3.5628620   -2.0270846   -2.2161983 
H    -4.9276316   -4.1002177   -2.2926594 
O    -1.9941779    2.1424684    3.3234482 
O    -2.2984610   -0.0533080    3.9538040 
N    -0.3684035    0.6591314    2.9233847 
C     1.7227973    1.0974843    1.9724411 
C     3.3234029    1.2403397   -0.4245689 
C     0.6663689    2.6470458   -0.3407385 
C     1.7820348   -0.3200014    2.5925310 
C     0.3690799   -0.5915386    3.1851720 
C     0.5793897    1.7617574    2.7453030 
C     3.9997302    2.5538345    0.0302926 
C     4.1534693    0.0120340    0.0173096 
C     1.0010598    3.1901662   -1.7464764 
C    -0.8678920    2.4769105   -0.2211723 
C     5.4414937    2.6333488   -0.5079107 
C     5.6058252    0.1076813   -0.4835117 
C     0.2895452    4.5353271   -1.9886846 
C    -1.5961084    3.8109580   -0.4500742 
C     6.2715000    1.4234175   -0.0514290 
C    -1.2339763    4.4142892   -1.8168837 
C    -0.3041939   -1.8457118    2.6259284 
C    -1.6319606    0.8475260    3.4605697 
C    -0.7544161   -3.6240505    0.5164790 
C    -2.6057249   -1.3383253    0.8712654 
C    -3.3106821    2.6389208    3.8095698 
C    -1.8609249   -4.4896673    0.5550312 
C    -3.0890880   -0.4062628   -0.0672542 
C     0.5334581   -4.1586550    0.2881808 
C    -3.5103080   -1.9058089    1.7941690 
C    -3.2423144    4.1291947    3.4614936 
C    -4.4300225    1.9356648    3.0355407 
C    -3.4103126    2.4227841    5.3246718 
C    -1.6754520   -5.8720600    0.4023263 
C    -4.4497627   -0.0748518   -0.1159685 
C     0.7134020   -5.5393822    0.1384355 
C    -4.8722726   -1.5837281    1.7374631 
C    -0.3927969   -6.4009446    0.2048919 
C    -5.3467654   -0.6759086    0.7785067 
H     2.6608621    1.6490206    2.1444720 
H     3.2803296    1.2365922   -1.5294210 
H     1.0138494    3.3871317    0.4084997 
H     2.0540810   -1.0882931    1.8482787 
H     2.5430485   -0.3540649    3.3893665 
H     0.4478017   -0.7422159    4.2807083 
H     0.9561277    2.1193155    3.7273270 
H     0.1017902    2.6171718    2.2523478 
H     4.0347501    2.5993959    1.1363332 
H     3.4226842    3.4337315   -0.3029385 
H     3.6747071   -0.9141547   -0.3531292 
H     4.1640503   -0.0491773    1.1230113 
H     0.6584320    2.4571179   -2.4994111 
H     2.0880049    3.3070408   -1.8898278 
H    -1.1642650    2.0340850    0.7442646 
H    -1.1772895    1.7519777   -1.0007142 
H     5.9091536    3.5762202   -0.1721408 
H     5.4120702    2.6654330   -1.6146714 
H     5.6053096    0.0461930   -1.5863701 
H     6.1814548   -0.7600194   -0.1134368 
H     0.6845639    5.2835268   -1.2738030 
H     0.5350184    4.9065965   -2.9999719 
H    -2.6872681    3.6546207   -0.3688781 
H    -1.3188600    4.5167710    0.3573600 
H     7.2955791    1.4843097   -0.4607434 
H     6.3706686    1.4451783    1.0522191 
H    -1.7131397    5.4011773   -1.9442445 
H    -1.6371476    3.7619216   -2.6172040 
H    -1.2063535   -2.0778445    3.2137116 
H     0.3917692   -2.6958658    2.7244955 
H    -2.8709550   -4.0931301    0.6867660 
H    -2.3873038    0.0602500   -0.7644693 
H     1.3998465   -3.4858798    0.2320740 
H    -3.1599884   -2.6000664    2.5634985 
H    -2.3933851    4.6085994    3.9773354 
H    -3.1179936    4.2666240    2.3741647 
H    -4.1726224    4.6312679    3.7750689 
H    -4.4453975    0.8590854    3.2589920 
H    -4.2863505    2.0692336    1.9500042 
H    -5.4031959    2.3742585    3.3151159 
H    -3.4377244    1.3504776    5.5690274 
H    -2.5494937    2.8886169    5.8343470 
H    -4.3322890    2.8980911    5.7007759 
H    -2.5453269   -6.5361508    0.4301518 
H    -4.8071830    0.6529914   -0.8519895 
H     1.7174441   -5.9430458   -0.0295746 
H    -5.5638770   -2.0366823    2.4549601 
H    -0.2552159   -7.4811574    0.0910478 
H    -6.4114812   -0.4234078    0.7425506 
