117
Energy =
C    -1.3450585    1.3156890   -1.8755051 
C    -1.3507526    0.0207388   -2.4261019 
C    -2.0182898   -1.0630973   -1.7684442 
H    -0.7217384   -0.1877955   -3.3006703 
Pd   -0.4680453   -0.2664338   -0.4110761 
P    -0.9299808   -1.7450133    1.3673753 
P     1.5235360    0.6947221    0.3979227 
H    -2.0427043    1.5263014   -1.0493736 
H    -2.9573164   -0.8477388   -1.2430054 
C     0.2414965    4.9016232   -3.6348072 
C     0.2112309    3.7152586   -4.3872698 
C    -0.2753059    2.5307659   -3.8235082 
C    -0.7589347    2.5125423   -2.4942620 
C    -0.7320273    3.7189284   -1.7525652 
C    -0.2298645    4.8984003   -2.3126637 
H     0.6231594    5.8250842   -4.0817827 
H     0.5668888    3.7154605   -5.4225452 
H    -0.3052359    1.6223012   -4.4329430 
H    -1.1222579    3.7185756   -0.7299747 
H    -0.2175985    5.8199947   -1.7216722 
C    -1.4429220   -5.1723148   -2.9300454 
C    -0.4449908   -4.2208035   -3.2041344 
C    -0.6286132   -2.8835241   -2.8376987 
C    -1.8210466   -2.4626660   -2.1953800 
C    -2.8165674   -3.4302700   -1.9336054 
C    -2.6269227   -4.7701467   -2.2942239 
H    -1.2972402   -6.2198079   -3.2134013 
H     0.4838351   -4.5256678   -3.6976660 
H     0.1750816   -2.1623345   -3.0249357 
H    -3.7433489   -3.1257515   -1.4369023 
H    -3.4100895   -5.5031393   -2.0750663 
O    -2.5965950    2.7903910    1.2707842 
O    -3.2622252    1.1319154    2.7165592 
N    -1.0425129    1.5056950    2.2904548 
C     1.2894649    1.5552496    2.0425625 
C     2.7956278   -0.6370223    0.7197583 
C     2.2551967    2.0414969   -0.6947068 
C     0.9584456    0.6111945    3.2206003 
C    -0.5868761    0.4936531    3.2675606 
C     0.0319606    2.4386339    1.9356890 
C     2.9388943   -1.6377129   -0.4518253 
C     4.1703971   -0.1455765    1.2210959 
C     3.1962783    3.0649521   -0.0184852 
C     2.8938602    1.4374572   -1.9661895 
C     3.8436555   -2.8125895   -0.0438965 
C     5.0634594   -1.3380593    1.6133433 
C     3.6386171    4.1455987   -1.0250881 
C     3.3581539    2.5302581   -2.9444093 
C     5.2170372   -2.3270691    0.4466709 
C     4.3056937    3.5280518   -2.2628592 
C    -1.1614276   -0.9114648    3.0293375 
C    -2.3855009    1.7714902    2.1433382 
C     0.2478393   -3.1362029    1.5938067 
C    -2.5725892   -2.5867582    1.2499461 
C    -3.9839859    3.3187009    1.0739623 
C     0.9417084   -3.4088253    2.7886417 
C    -3.7073748   -1.7559968    1.1152292 
C     0.4092666   -4.0054205    0.4908569 
C    -2.7453067   -3.9813615    1.3160489 
C    -4.5095277    3.8587869    2.4100214 
C    -3.7803279    4.4546806    0.0672179 
C    -4.8827534    2.2229235    0.4827192 
C     1.7629184   -4.5433335    2.8865643 
C    -4.9889593   -2.3137286    1.0396864 
C     1.2139127   -5.1456694    0.5997466 
C    -4.0331246   -4.5351208    1.2371758 
C     1.8897560   -5.4202711    1.7997251 
C    -5.1549974   -3.7078169    1.0937072 
H     2.1889394    2.1518057    2.2580269 
H     2.3170793   -1.2066349    1.5426754 
H     1.3546343    2.5956000   -1.0210251 
H     1.4397063   -0.3769275    3.1334287 
H     1.3311209    1.0608737    4.1557540 
H    -0.9522988    0.7840185    4.2721317 
H     0.0784857    3.2859880    2.6499541 
H    -0.1354785    2.8516139    0.9296951 
H     3.3746643   -1.1336712   -1.3313705 
H     1.9390322   -2.0028386   -0.7535482 
H     4.0517014    0.5399611    2.0799792 
H     4.6695724    0.4293211    0.4189561 
H     4.0887364    2.5562460    0.3891960 
H     2.6892195    3.5548949    0.8311528 
H     2.1736333    0.7566442   -2.4596626 
H     3.7709729    0.8286172   -1.6802762 
H     3.9553513   -3.5075332   -0.8956056 
H     3.3494711   -3.3802503    0.7649180 
H     4.6096117   -1.8602226    2.4789927 
H     6.0502609   -0.9689877    1.9457356 
H     2.7495198    4.7257753   -1.3416465 
H     4.3223031    4.8542275   -0.5240195 
H     3.8475620    2.0578339   -3.8152099 
H     2.4748404    3.0712672   -3.3273850 
H     5.8389705   -3.1866848    0.7542337 
H     5.7540885   -1.8297750   -0.3853229 
H     4.6027501    4.3199735   -2.9733323 
H     5.2369305    3.0099272   -1.9586747 
H    -2.2525673   -0.8500707    3.1552013 
H    -0.7914677   -1.5942528    3.8135317 
H     0.8408312   -2.7526948    3.6591223 
H    -3.5940287   -0.6666149    1.1001123 
H    -0.1137550   -3.7989174   -0.4489787 
H    -1.8829181   -4.6437215    1.4293853 
H    -4.6358712    3.0495529    3.1442333 
H    -3.8141606    4.6135714    2.8155632 
H    -5.4871132    4.3433653    2.2468898 
H    -3.4379160    4.0690364   -0.9069590 
H    -3.0392148    5.1792600    0.4442351 
H    -4.7353292    4.9829719   -0.0891976 
H    -5.8432065    2.6709536    0.1758182 
H    -4.4127350    1.7828836   -0.4144529 
H    -5.0791683    1.4290000    1.2174242 
H     2.2949861   -4.7457380    3.8217664 
H    -5.8594112   -1.6564888    0.9428580 
H     1.3150200   -5.8168139   -0.2591285 
H    -4.1543350   -5.6221361    1.2892725 
H     2.5214109   -6.3103178    1.8843046 
H    -6.1568667   -4.1449019    1.0318293 
