117
Energy =
C     0.8203870   -0.1117954   -3.1741705 
C     0.2471120   -1.4145816   -3.0848506 
C    -1.0792125   -1.6064047   -2.6426101 
H     0.8830757   -2.2909373   -3.2562550 
Pd    0.2591538   -0.5658352   -1.0463407 
P    -0.7732652   -1.6395443    0.7696639 
P     1.5027461    1.1066726    0.0178045 
H     0.1244603    0.7231820   -3.3379673 
H    -1.7444480   -0.7310803   -2.6727635 
C     4.8062808    0.6790418   -4.6147125 
C     4.4868224   -0.5937241   -4.1126181 
C     3.2017849   -0.8617756   -3.6286092 
C     2.1963453    0.1334285   -3.6516668 
C     2.5284840    1.4029247   -4.1786137 
C     3.8198639    1.6763877   -4.6467441 
H     5.8148871    0.8876348   -4.9851393 
H     5.2483634   -1.3800959   -4.0921919 
H     2.9831339   -1.8530491   -3.2179642 
H     1.7565959    2.1786626   -4.2315025 
H     4.0536486    2.6678428   -5.0482001 
C    -3.2236752   -5.3257770   -2.5005901 
C    -3.8765832   -4.1117690   -2.2423058 
C    -3.1584863   -2.9109360   -2.2700132 
C    -1.7720921   -2.8988618   -2.5515854 
C    -1.1241240   -4.1342119   -2.7889816 
C    -1.8445765   -5.3306909   -2.7704709 
H    -3.7842495   -6.2661886   -2.4903078 
H    -4.9501778   -4.0974525   -2.0282795 
H    -3.6760173   -1.9657238   -2.0777994 
H    -0.0504061   -4.1643542   -2.9956119 
H    -1.3274806   -6.2757252   -2.9633979 
O    -2.8885371    1.8763384    3.2118871 
O    -2.4329474   -0.0244742    4.4416422 
N    -0.9883698    0.7498682    2.8461298 
C     0.9778685    1.5649672    1.7555661 
C     3.3330413    0.7056198    0.2244670 
C     1.3957964    2.7319580   -0.9069845 
C     1.3466243    0.5440678    2.8630461 
C     0.0524329   -0.2185730    3.1971886 
C    -0.5571131    1.7683945    1.8871698 
C     3.5128261   -0.8319449    0.2832182 
C     4.2614102    1.3034682   -0.8559718 
C    -0.0418192    3.0769814   -1.3613296 
C     2.0192516    3.9539957   -0.1954566 
C     4.9769428   -1.2209583    0.5471905 
C     5.7285220    0.9104978   -0.5985524 
C    -0.0282902    4.2837878   -2.3181811 
C     2.0552547    5.1615612   -1.1526255 
C     5.9099063   -0.6127846   -0.5111764 
C     0.6489430    5.5045468   -1.6720685 
C    -0.1182028   -1.5937765    2.5181416 
C    -2.1528142    0.8045177    3.5837232 
C    -0.6258184   -3.4567857    0.4950453 
C    -2.5531798   -1.2255787    0.9259188 
C    -4.0116304    2.3617125    4.0595247 
C     0.6714071   -3.9366899    0.2053785 
C    -3.3932876   -1.8357498    1.8821085 
C    -1.6901564   -4.3689526    0.6020997 
C    -3.0994486   -0.2707134    0.0440523 
C    -3.4750000    2.6856514    5.4598984 
C    -4.4483592    3.6297396    3.3194787 
C    -5.1389393    1.3240874    4.0947054 
C     0.9034591   -5.3102236    0.0616767 
C    -4.7628228   -1.5440881    1.9010370 
C    -1.4518048   -5.7434054    0.4539600 
C    -4.4671648    0.0304350    0.0755068 
C    -0.1588086   -6.2179787    0.1948376 
C    -5.3047538   -0.6255531    0.9889106 
H     1.5023280    2.5141001    1.9536147 
H     3.6209128    1.1366778    1.2046381 
H     1.9910018    2.5161252   -1.8158670 
H     2.1760458   -0.1293797    2.5982341 
H     1.6645399    1.1039036    3.7584239 
H    -0.0144542   -0.4062213    4.2819357 
H    -0.8149784    2.7742109    2.2586150 
H    -1.0796864    1.6327244    0.9200013 
H     3.1804304   -1.2518759   -0.6871063 
H     2.8534423   -1.2745791    1.0525060 
H     4.1787804    2.4020750   -0.8825287 
H     3.9535158    0.9339988   -1.8477667 
H    -0.6591598    3.3269559   -0.4780880 
H    -0.5180297    2.2015270   -1.8400341 
H     3.0340126    3.7300614    0.1783694 
H     1.4038008    4.2169271    0.6866658 
H     5.0712300   -2.3219539    0.5641927 
H     5.2713666   -0.8625784    1.5533663 
H     6.0706133    1.3767259    0.3466305 
H     6.3590339    1.3274669   -1.4043171 
H     0.5165530    4.0065147   -3.2422146 
H    -1.0608901    4.5315673   -2.6228169 
H     2.4985079    6.0319338   -0.6368239 
H     2.7211509    4.9243200   -2.0055495 
H     6.9618469   -0.8615265   -0.2846863 
H     5.6795569   -1.0609048   -1.4965659 
H     0.6995454    6.3396714   -2.3929523 
H     0.0267861    5.8561377   -0.8253457 
H    -0.8337962   -2.1997778    3.1013617 
H     0.8364990   -2.1483637    2.5132274 
H     1.5017011   -3.2282520    0.0920951 
H    -2.9876256   -2.5348221    2.6193420 
H    -2.7089439   -4.0153235    0.7794592 
H    -2.4408602    0.2358614   -0.6714771 
H    -3.1404012    1.7709364    5.9730809 
H    -2.6311401    3.3940470    5.3925772 
H    -4.2728713    3.1551009    6.0600177 
H    -4.7580110    3.3839689    2.2894868 
H    -3.6206141    4.3577173    3.2742059 
H    -5.2995765    4.0973756    3.8417293 
H    -5.4832172    1.1041099    3.0719036 
H    -4.7962755    0.3914185    4.5660159 
H    -5.9882857    1.7304911    4.6702718 
H     1.9142503   -5.6719848   -0.1542489 
H    -5.4071305   -2.0277500    2.6418218 
H    -2.2889570   -6.4443154    0.5329490 
H    -4.8783463    0.7733844   -0.6157265 
H     0.0200971   -7.2924792    0.0845770 
H    -6.3770672   -0.4051773    1.0064323 
