117
Energy =
C    -1.3556496    1.4427032   -1.8143837 
C    -1.3508376    0.1598684   -2.3806955 
C    -1.9706003   -0.9591839   -1.7247579 
H    -0.7744914   -0.0128679   -3.2983953 
Pd   -0.3649155   -0.2563497   -0.4175205 
P    -0.8385094   -1.7488904    1.3304776 
P     1.6575911    0.5931670    0.4481364 
H    -1.9801905    1.6124106   -0.9236391 
H    -2.8949507   -0.7759117   -1.1619493 
C    -0.0310709    5.1032866   -3.6321723 
C    -0.0337482    3.9165647   -4.3859649 
C    -0.4370871    2.7110632   -3.8044703 
C    -0.8534306    2.6662102   -2.4511494 
C    -0.8505320    3.8713204   -1.7085682 
C    -0.4398008    5.0756669   -2.2900342 
H     0.2823729    6.0450721   -4.0936961 
H     0.2740782    3.9353081   -5.4362654 
H    -0.4536498    1.8034914   -4.4158886 
H    -1.1858546    3.8505034   -0.6675172 
H    -0.4465015    5.9965135   -1.6978795 
C    -1.4145853   -5.0027081   -3.1064413 
C    -0.4284082   -4.0336017   -3.3605933 
C    -0.6080726   -2.7166419   -2.9251746 
C    -1.7830219   -2.3351998   -2.2276098 
C    -2.7673859   -3.3195587   -1.9878751 
C    -2.5827337   -4.6385458   -2.4206917 
H    -1.2727997   -6.0340435   -3.4455390 
H     0.4868196   -4.3086424   -3.8954345 
H     0.1849603   -1.9806230   -3.1016485 
H    -3.6817949   -3.0443307   -1.4526873 
H    -3.3573833   -5.3853993   -2.2185090 
O    -2.5831383    2.7766951    1.2807255 
O    -3.1812927    1.1068760    2.7427794 
N    -0.9834977    1.4962954    2.2445222 
C     1.3572395    1.5746164    2.0144252 
C     2.8657629   -0.7457165    0.9577242 
C     2.7179189    1.6874002   -0.6588932 
C     1.0204197    0.6879870    3.2387114 
C    -0.5167964    0.5063855    3.2381683 
C     0.0815795    2.4233163    1.8418170 
C     3.3250936   -1.5847912   -0.2558078 
C     4.0779259   -0.2495502    1.7773240 
C     2.5404568    1.2878935   -2.1412216 
C     2.5283096    3.2092585   -0.4916893 
C     4.2120829   -2.7587814    0.1927672 
C     4.9580858   -1.4357888    2.2171011 
C     3.5423152    2.0421400   -3.0333829 
C     3.5361587    3.9699649   -1.3748626 
C     5.4169566   -2.2723225    1.0126585 
C     3.4182462    3.5636647   -2.8523859 
C    -1.0417327   -0.9219579    3.0009358 
C    -2.3314884    1.7561747    2.1397663 
C     0.3395681   -3.1469136    1.5152431 
C    -2.4735305   -2.6036397    1.2240245 
C    -3.9883664    3.2795219    1.1307754 
C     0.5912923   -3.8997654    0.3463208 
C    -3.6284293   -1.7915859    1.1657166 
C     0.9279245   -3.5471429    2.7306131 
C    -2.6150485   -4.0037079    1.2054012 
C    -4.4810626    3.8023811    2.4860199 
C    -3.8432321    4.4252625    0.1254501 
C    -4.8823912    2.1686868    0.5607812 
C     1.3856317   -5.0514015    0.4037995 
C    -4.8992476   -2.3733188    1.0870182 
C     1.7419013   -4.6894962    2.7785407 
C    -3.8925316   -4.5806739    1.1272825 
C     1.9617168   -5.4501430    1.6207567 
C    -5.0348123   -3.7715923    1.0626275 
H     2.2391303    2.2050271    2.2113016 
H     2.2647119   -1.4168716    1.5999408 
H     3.7569343    1.4479128   -0.3568874 
H     1.5430809   -0.2818398    3.2393467 
H     1.3328703    1.2167900    4.1546689 
H    -0.9236798    0.7867017    4.2290962 
H     0.1063262    3.3148265    2.5007533 
H    -0.0805298    2.7664539    0.8096874 
H     3.9053738   -0.9446323   -0.9473694 
H     2.4433507   -1.9534177   -0.8133855 
H     3.7508611    0.3206660    2.6649066 
H     4.6857064    0.4425651    1.1629078 
H     1.5089995    1.5378502   -2.4466173 
H     2.6531207    0.1977806   -2.2726865 
H     2.6594769    3.5144269    0.5613473 
H     1.5013250    3.4868579   -0.7895262 
H     4.5469514   -3.3289430   -0.6925123 
H     3.6065916   -3.4501095    0.8059789 
H     4.3766798   -2.0773806    2.9086756 
H     5.8274733   -1.0602664    2.7860093 
H     4.5705642    1.7180400   -2.7776515 
H     3.3785640    1.7664468   -4.0909934 
H     3.3773195    5.0576814   -1.2618815 
H     4.5617763    3.7601289   -1.0118328 
H     6.0213398   -3.1321852    1.3526260 
H     6.0771048   -1.6559682    0.3706944 
H     4.1846107    4.0850265   -3.4534145 
H     2.4342336    3.8910307   -3.2353372 
H    -2.1304090   -0.8990362    3.1583772 
H    -0.6270881   -1.5905574    3.7746379 
H     0.1441692   -3.5938570   -0.6059894 
H    -3.5399307   -0.7008980    1.2133166 
H     0.7540296   -2.9819299    3.6517224 
H    -1.7357071   -4.6517188    1.2517204 
H    -4.5702261    2.9875922    3.2192539 
H    -3.7870709    4.5677210    2.8737633 
H    -5.4716123    4.2703363    2.3555825 
H    -3.5263979    4.0539068   -0.8626545 
H    -3.1072862    5.1653427    0.4819328 
H    -4.8150840    4.9320465    0.0060375 
H    -4.4287426    1.7400096   -0.3502148 
H    -5.0453138    1.3692852    1.2976286 
H    -5.8586861    2.6002579    0.2814906 
H     1.5580077   -5.6333283   -0.5072389 
H    -5.7855253   -1.7312908    1.0499823 
H     2.1952878   -4.9904220    3.7285537 
H    -3.9894717   -5.6712944    1.1159681 
H     2.5876573   -6.3471488    1.6651757 
H    -6.0286713   -4.2264969    1.0000929 
