117
Energy =
C     0.8188657   -0.0958919   -3.1711210 
C     0.2466129   -1.4006829   -3.1161198 
C    -1.0925508   -1.5901590   -2.7085564 
H     0.8839407   -2.2766048   -3.2850597 
Pd    0.2069321   -0.5982606   -1.0604498 
P    -0.8781495   -1.6722425    0.7212354 
P     1.5195383    1.0232433   -0.0135255 
H     0.1199612    0.7366341   -3.3337385 
H    -1.7483010   -0.7075909   -2.7385693 
C     4.8472124    0.8252366   -4.4041635 
C     4.5226342   -0.4829694   -4.0086926 
C     3.2219047   -0.7994603   -3.6010301 
C     2.2061073    0.1841845   -3.5923709 
C     2.5422904    1.4887244   -4.0253483 
C     3.8477560    1.8098542   -4.4163990 
H     5.8677200    1.0695997   -4.7156375 
H     5.2911312   -1.2628239   -4.0178653 
H     2.9991049   -1.8226402   -3.2818312 
H     1.7601527    2.2547156   -4.0694355 
H     4.0817804    2.8277018   -4.7453219 
C    -3.2966434   -5.2758751   -2.7234968 
C    -3.9354631   -4.0593057   -2.4426244 
C    -3.1971105   -2.8708463   -2.4149060 
C    -1.8045008   -2.8743211   -2.6650615 
C    -1.1707297   -4.1127270   -2.9224494 
C    -1.9112212   -5.2966875   -2.9578116 
H    -3.8729512   -6.2061951   -2.7571541 
H    -5.0135521   -4.0332051   -2.2536086 
H    -3.7020391   -1.9227233   -2.2028776 
H    -0.0927165   -4.1545554   -3.1036096 
H    -1.4051333   -6.2445141   -3.1658660 
O    -2.5643101    2.0596344    3.1399665 
O    -2.4768752   -0.0588583    4.0568334 
N    -0.7899785    0.7587760    2.7393230 
C     1.2953945    1.4122388    1.7994062 
C     3.3386946    0.5700249   -0.1972343 
C     1.3134042    2.6807139   -0.8781004 
C     1.5182673    0.2057862    2.7437918 
C     0.1190612   -0.3347161    3.1162099 
C    -0.1136436    1.9258969    2.1674928 
C     4.3261545    1.2927470    0.7463286 
C     3.5383726   -0.9648908   -0.1246442 
C    -0.1462382    2.9505627   -1.3194571 
C     1.8797712    3.9190687   -0.1478207 
C     5.7803689    0.8940957    0.4291093 
C     4.9979108   -1.3602833   -0.4065337 
C    -0.2257682    4.1904899   -2.2276806 
C     1.8026949    5.1627222   -1.0556682 
C     5.9759118   -0.6267469    0.5243587 
C     0.3666679    5.4282589   -1.5344605 
C    -0.2721587   -1.6826307    2.4879522 
C    -2.0115233    0.8508373    3.3805379 
C    -0.7734527   -3.4891561    0.4141175 
C    -2.6498957   -1.2094235    0.8108465 
C    -3.7756417    2.5158310    3.8752174 
C    -1.8636606   -4.3759328    0.4377838 
C    -3.1194371   -0.1969704   -0.0509750 
C     0.5247344   -3.9971164    0.1800141 
C    -3.5600268   -1.8455376    1.6809292 
C    -3.4799983    2.5147769    5.3804906 
C    -3.9584142    3.9401286    3.3420100 
C    -4.9692221    1.6276856    3.5111669 
C    -1.6522346   -5.7522153    0.2652039 
C    -4.4817644    0.1258563   -0.0966471 
C     0.7299131   -5.3716167    0.0094123 
C    -4.9235308   -1.5288106    1.6257496 
C    -0.3601805   -6.2544799    0.0613296 
C    -5.3891571   -0.5586167    0.7258331 
H     2.0397747    2.1985822    2.0054669 
H     3.5562311    0.8800171   -1.2392544 
H     1.9139078    2.5222227   -1.7944881 
H     2.1545173   -0.5782846    2.3053971 
H     2.0289440    0.5578479    3.6557639 
H     0.0571226   -0.4859903    4.2098081 
H    -0.0476819    2.7463021    2.9081681 
H    -0.6896624    2.3112728    1.3118061 
H     4.1043039    1.0188433    1.7955619 
H     4.2140190    2.3876538    0.6704575 
H     2.8540483   -1.4572938   -0.8411604 
H     3.2534206   -1.3318720    0.8803455 
H    -0.7804221    3.1188674   -0.4288950 
H    -0.5620916    2.0631048   -1.8298352 
H     2.9241685    3.7518667    0.1650540 
H     1.2928687    4.1066744    0.7719763 
H     6.4643259    1.4187634    1.1198707 
H     6.0337417    1.2360715   -0.5934658 
H     5.2368757   -1.1060482   -1.4555319 
H     5.1102376   -2.4553044   -0.3076158 
H     0.3312375    3.9915974   -3.1648054 
H    -1.2758759    4.3733258   -2.5181181 
H     2.1983552    6.0401179   -0.5135725 
H     2.4622667    5.0074724   -1.9321236 
H     7.0170858   -0.8967183    0.2737765 
H     5.8073247   -0.9524177    1.5701464 
H     0.3439741    6.2973922   -2.2154561 
H    -0.2648919    5.6923157   -0.6632516 
H    -1.0981332   -2.1246144    3.0716777 
H     0.5746894   -2.3888291    2.5315692 
H    -2.8816112   -4.0014030    0.5697039 
H    -2.4037290    0.3365303   -0.6880549 
H     1.3787541   -3.3092659    0.1341737 
H    -3.2133823   -2.5890656    2.4046905 
H    -3.3232738    1.4898671    5.7497491 
H    -2.5818470    3.1193958    5.5951128 
H    -4.3325577    2.9596963    5.9212511 
H    -4.1049024    3.9251079    2.2485910 
H    -3.0724171    4.5563159    3.5704411 
H    -4.8414301    4.4070352    3.8091692 
H    -5.1172984    1.6212199    2.4193103 
H    -4.8073035    0.5950649    3.8535026 
H    -5.8810465    2.0277782    3.9868626 
H    -2.5101028   -6.4320068    0.2810910 
H    -4.8343489    0.9105466   -0.7740988 
H     1.7415480   -5.7537603   -0.1633392 
H    -5.6234711   -2.0361209    2.2972314 
H    -0.2026742   -7.3300999   -0.0688881 
H    -6.4563804   -0.3175162    0.6855018 
