117
Energy =
C     0.9473484   -0.1413700   -3.2992082 
C     0.3185941   -1.4133512   -3.1509890 
C    -1.0361000   -1.5245528   -2.7719093 
H     0.9285455   -2.3217315   -3.2210595 
Pd    0.2484440   -0.4124394   -1.1847372 
P    -0.9308649   -1.3138484    0.6377346 
P     1.4757947    1.3091058   -0.1820218 
H     0.2966556    0.7024432   -3.5690764 
H    -1.6642339   -0.6307754   -2.8997243 
C     5.0446537    0.3959292   -4.5284723 
C     4.6460313   -0.8182685   -3.9445935 
C     3.3231966   -1.0028819   -3.5282438 
C     2.3593155    0.0180703   -3.7027271 
C     2.7721187    1.2267435   -4.3094535 
C     4.1004783    1.4177436   -4.7102511 
H     6.0822945    0.5398855   -4.8456686 
H     5.3749312   -1.6234935   -3.8063735 
H     3.0415065   -1.9473449   -3.0507970 
H     2.0350307    2.0196177   -4.4785247 
H     4.3967511    2.3632523   -5.1761145 
C    -3.3316432   -5.1438481   -2.4829155 
C    -3.9461013   -3.8917124   -2.3355990 
C    -3.1801426   -2.7227013   -2.4093021 
C    -1.7832575   -2.7815621   -2.6263597 
C    -1.1752922   -4.0532206   -2.7506176 
C    -1.9432780   -5.2182399   -2.6871786 
H    -3.9296334   -6.0599115   -2.4376903 
H    -5.0266817   -3.8231461   -2.1734677 
H    -3.6670138   -1.7478344   -2.3043793 
H    -0.0955018   -4.1369824   -2.9046372 
H    -1.4565955   -6.1927083   -2.7934486 
O    -2.7052156    0.6528590    4.0706538 
O    -3.1723264    2.4399476    2.6831580 
N    -1.2281628    1.2525881    2.4907298 
C     0.8283091    1.9161026    1.4653923 
C     3.2743283    0.8832730    0.1857398 
C     1.4803391    2.8561337   -1.2370803 
C     1.0953676    0.9877847    2.6792707 
C    -0.2428108    0.2946657    2.9975266 
C    -0.7089792    2.1361237    1.4470699 
C     3.4024731   -0.6474610    0.3872937 
C     4.2875379    1.3600663   -0.8788378 
C     0.0856050    3.2041765   -1.8081681 
C     2.0975699    4.1130195   -0.5827259 
C     4.8345198   -1.0505304    0.7766433 
C     5.7227090    0.9524805   -0.4953477 
C     0.1997479    4.3290556   -2.8539888 
C     2.2337796    5.2387165   -1.6267395 
C     5.8496855   -0.5617468   -0.2678063 
C     0.8753628    5.5781882   -2.2628274 
C    -0.4118624   -1.1305718    2.4266877 
C    -2.4528412    1.5273171    3.0633528 
C    -0.7992226   -3.1490160    0.5157568 
C    -2.7047103   -0.8474531    0.6317314 
C    -3.7433027    0.9590415    5.0931085 
C     0.5074129   -3.6643246    0.3578312 
C    -3.6416576   -1.4025578    1.5290264 
C    -1.8838695   -4.0396489    0.5995075 
C    -3.1402443    0.1155549   -0.3017738 
C    -3.4185946    2.3100173    5.7440970 
C    -5.1387211    0.9426889    4.4585609 
C    -3.5707431   -0.1947713    6.0855876 
C     0.7254230   -5.0471074    0.3203998 
C    -4.9919735   -1.0398931    1.4473952 
C    -1.6592393   -5.4238379    0.5603686 
C    -4.4846330    0.5047147   -0.3543779 
C    -0.3593296   -5.9310152    0.4310693 
C    -5.4164400   -0.0866618    0.5096533 
H     1.3459405    2.8754994    1.6278384 
H     3.5105544    1.3915329    1.1423984 
H     2.1238864    2.5524788   -2.0859888 
H     1.9150787    0.2689911    2.5263481 
H     1.3785193    1.6152047    3.5405859 
H    -0.3735234    0.2065589    4.0878451 
H    -0.9988266    3.1774368    1.6674511 
H    -1.1508340    1.8793228    0.4642260 
H     3.1173233   -1.1415682   -0.5630010 
H     2.6834762   -1.0040389    1.1477183 
H     4.2418214    2.4539201   -1.0042689 
H     4.0298476    0.9141457   -1.8535298 
H    -0.5766915    3.5422394   -0.9891255 
H    -0.3891578    2.3073314   -2.2469754 
H     3.0787735    3.8914000   -0.1269139 
H     1.4364011    4.4626937    0.2336789 
H     4.8922345   -2.1480224    0.8932103 
H     5.0781532   -0.6140081    1.7653786 
H     6.0206025    1.4896610    0.4268823 
H     6.4145190    1.2812362   -1.2915294 
H     0.7919041    3.9626958   -3.7159592 
H    -0.8028619    4.5806780   -3.2434949 
H     2.6717279    6.1347850   -1.1520849 
H     2.9445062    4.9156103   -2.4128090 
H     6.8772670   -0.8181486    0.0454724 
H     5.6655868   -1.0872232   -1.2243106 
H     0.9994297    6.3506800   -3.0423504 
H     0.2130778    6.0142475   -1.4892276 
H    -1.1934505   -1.6624707    2.9976854 
H     0.5201141   -1.7104411    2.5475518 
H     1.3565891   -2.9761376    0.2617097 
H    -3.3261451   -2.1165886    2.2961608 
H    -2.9075187   -3.6639660    0.6681220 
H    -2.4119207    0.5664535   -0.9863261 
H    -2.3873511    2.3073014    6.1379076 
H    -3.5278880    3.1314700    5.0193901 
H    -4.1090539    2.4882132    6.5858404 
H    -5.3445114   -0.0440909    4.0146026 
H    -5.2211209    1.7125513    3.6776489 
H    -5.8945818    1.1348240    5.2393601 
H    -3.7322477   -1.1627550    5.5810737 
H    -2.5559499   -0.1883810    6.5183134 
H    -4.3026824   -0.1006285    6.9050189 
H     1.7430971   -5.4346729    0.2046878 
H    -5.7163736   -1.4971322    2.1286053 
H    -2.5125741   -6.1069799    0.6192533 
H    -4.8036363    1.2674327   -1.0717170 
H    -0.1914991   -7.0125982    0.4036907 
H    -6.4706725    0.2044716    0.4638233 
