117
Energy =
C    -0.9984028    1.2471902   -2.0673014 
C    -1.4070865   -0.0759767   -2.3619642 
C    -2.3400367   -0.7891931   -1.5667102 
H    -0.9076378   -0.6006454   -3.1870453 
Pd   -0.5221241   -0.1750442   -0.3519502 
P    -0.9081833   -1.8026508    1.3444264 
P     1.5117692    0.7578601    0.4665330 
H    -1.6662163    1.8651168   -1.4485127 
H    -3.0759874   -0.2146866   -0.9867849 
C     1.3913207    3.3860003   -4.9350895 
C     1.7363253    2.0684284   -4.5894293 
C     0.9891934    1.3736523   -3.6318128 
C    -0.1124234    1.9864743   -2.9912127 
C    -0.4321685    3.3196483   -3.3296105 
C     0.3040642    4.0078367   -4.3031954 
H     1.9715564    3.9262222   -5.6899076 
H     2.5906040    1.5811779   -5.0708618 
H     1.2675117    0.3484783   -3.3622437 
H    -1.2818929    3.8099749   -2.8414549 
H     0.0317789    5.0356641   -4.5636134 
C    -3.5423566   -4.7799677   -2.6395310 
C    -2.2163904   -4.3703553   -2.8565623 
C    -1.8129766   -3.0809244   -2.4960632 
C    -2.7231224   -2.1746040   -1.9038326 
C    -4.0506034   -2.6017036   -1.6901447 
C    -4.4567255   -3.8899058   -2.0583580 
H    -3.8592257   -5.7890414   -2.9222058 
H    -1.4961559   -5.0595311   -3.3099463 
H    -0.7768699   -2.7701048   -2.6741849 
H    -4.7697356   -1.9121702   -1.2377019 
H    -5.4916314   -4.2007230   -1.8844342 
O    -2.3555804    2.6472265    1.5218600 
O    -3.1827490    0.8369396    2.6703495 
N    -0.9274858    1.3009798    2.6002812 
C     1.3845758    1.3615815    2.2331384 
C     2.7869088   -0.6214725    0.4714036 
C     2.2826528    2.2088259   -0.4624724 
C     1.0938438    0.2297214    3.2522572 
C    -0.4535897    0.1813668    3.4325204 
C     0.1464993    2.2656965    2.3842709 
C     3.2042876   -0.9480022   -0.9841920 
C     3.9969305   -0.5012568    1.4276871 
C     1.4737571    3.5186480   -0.3183561 
C     3.7743723    2.4813491   -0.1569426 
C     4.1370752   -2.1707689   -1.0462348 
C     4.8662007   -1.7703171    1.3432890 
C     2.0370624    4.6289745   -1.2229758 
C     4.3311625    3.6116949   -1.0455109 
C     5.3369664   -2.0254744   -0.0974566 
C     3.5144017    4.9033734   -0.9117480 
C    -1.0914492   -1.1681008    3.0932795 
C    -2.2478797    1.5437100    2.3020837 
C     0.4221447   -3.0778286    1.3619223 
C    -2.4506239   -2.8220038    1.2648802 
C    -3.6797179    3.2174194    1.1608166 
C     1.0879237   -3.5216037    2.5208045 
C    -3.6780913   -2.1828086    1.5496879 
C     0.7493814   -3.6644047    0.1195280 
C    -2.4387332   -4.2023187    0.9895743 
C    -4.4523378    2.2298226    0.2760130 
C    -4.4471415    3.5826548    2.4378383 
C    -3.2831099    4.4703768    0.3722848 
C     2.0625168   -4.5280982    2.4369111 
C    -4.8634883   -2.9276828    1.5999651 
C     1.6986107   -4.6907767    0.0434990 
C    -3.6336638   -4.9360359    1.0259360 
C     2.3637036   -5.1208784    1.2026713 
C    -4.8448221   -4.3066948    1.3429971 
H     2.3169110    1.8986808    2.4754993 
H     2.1928069   -1.4843380    0.8245732 
H     2.2037879    1.8893591   -1.5190260 
H     1.4833460   -0.7488769    2.9265314 
H     1.5835887    0.4622614    4.2122383 
H    -0.7092784    0.3863537    4.4913764 
H     0.2639336    2.9327454    3.2640460 
H    -0.0885149    2.8858534    1.5147429 
H     3.7163703   -0.0785031   -1.4368536 
H     2.2942865   -1.1313198   -1.5880319 
H     3.6531010   -0.3522722    2.4657629 
H     4.6174594    0.3735521    1.1749801 
H     1.5354200    3.8701006    0.7286671 
H     0.4066884    3.3430054   -0.5444344 
H     4.3762811    1.5753553   -0.3225925 
H     3.8939414    2.7594448    0.9086856 
H     4.4770802   -2.3219318   -2.0867357 
H     3.5634819   -3.0710877   -0.7609266 
H     4.2771270   -2.6395192    1.6966095 
H     5.7308275   -1.6699207    2.0235370 
H     1.9368317    4.3215776   -2.2784925 
H     1.4309061    5.5444232   -1.0981580 
H     5.3909808    3.7872126   -0.7870943 
H     4.3115661    3.2754960   -2.1009204 
H     5.9667260   -2.9320686   -0.1411455 
H     5.9745839   -1.1819108   -0.4291892 
H     3.9124022    5.6819700   -1.5865895 
H     3.6119423    5.2969497    0.1196068 
H    -2.1745336   -1.0967551    3.2627339 
H    -0.7115385   -1.9397312    3.7843295 
H     0.8551020   -3.0942448    3.5007180 
H    -3.7086006   -1.1073371    1.7602412 
H     0.2434467   -3.3181390   -0.7870960 
H    -1.5024620   -4.7180408    0.7605727 
H    -3.8727523    1.9889180   -0.6315408 
H    -4.6761167    1.3023748    0.8233204 
H    -5.4019866    2.6915474   -0.0432775 
H    -3.8322418    4.2403356    3.0754931 
H    -4.7196840    2.6810870    3.0063336 
H    -5.3686840    4.1260295    2.1683652 
H    -2.6937370    5.1547838    1.0047366 
H    -2.6750308    4.1973068   -0.5077345 
H    -4.1852748    4.9998785    0.0240353 
H     2.5784036   -4.8568745    3.3448332 
H    -5.8051898   -2.4237320    1.8418131 
H     1.9256981   -5.1498199   -0.9240981 
H    -3.6101753   -6.0092548    0.8111020 
H     3.1161510   -5.9137252    1.1433037 
H    -5.7720628   -4.8875303    1.3839938 
