117
Energy =
C    -1.0090731    1.2035475   -2.0876570 
C    -1.4126907   -0.1267094   -2.3564079 
C    -2.3411650   -0.8281476   -1.5456099 
H    -0.9129150   -0.6649324   -3.1725022 
Pd   -0.5227367   -0.1838063   -0.3471487 
P    -0.8982667   -1.7807164    1.3810466 
P     1.5098495    0.7726730    0.4476913 
H    -1.6782194    1.8299386   -1.4788844 
H    -3.0779989   -0.2453063   -0.9751591 
C     1.3637447    3.2999162   -5.0004784 
C     1.7153390    1.9903089   -4.6319281 
C     0.9737932    1.3098444   -3.6597883 
C    -0.1287349    1.9294996   -3.0273792 
C    -0.4551791    3.2549079   -3.3891124 
C     0.2754249    3.9284391   -4.3770680 
H     1.9396495    3.8288343   -5.7665363 
H     2.5704357    1.4980577   -5.1067774 
H     1.2573427    0.2909728   -3.3723878 
H    -1.3056560    3.7504135   -2.9075248 
H    -0.0020747    4.9501512   -4.6554194 
C    -3.5291118   -4.8446062   -2.5352161 
C    -2.2056390   -4.4335981   -2.7645219 
C    -1.8069610   -3.1353445   -2.4314218 
C    -2.7193065   -2.2214293   -1.8544498 
C    -4.0442813   -2.6499456   -1.6282982 
C    -4.4458122   -3.9469759   -1.9695602 
H    -3.8422122   -5.8606553   -2.7962886 
H    -1.4836514   -5.1286140   -3.2060543 
H    -0.7728138   -2.8235603   -2.6191135 
H    -4.7651150   -1.9546352   -1.1875375 
H    -5.4788721   -4.2586883   -1.7865207 
O    -2.3604525    2.6666297    1.4745034 
O    -3.1791308    0.8750537    2.6577806 
N    -0.9257409    1.3466866    2.5762754 
C     1.3851960    1.4090213    2.2029872 
C     2.7899360   -0.6017552    0.4742657 
C     2.2726227    2.2089370   -0.5105413 
C     1.1010017    0.2955422    3.2439281 
C    -0.4458669    0.2450963    3.4289093 
C     0.1441388    2.3112636    2.3402024 
C     3.2039244   -0.9539710   -0.9762873 
C     4.0026449   -0.4598856    1.4241529 
C     1.4594719    3.5183399   -0.3884845 
C     3.7642753    2.4922673   -0.2147175 
C     4.1396519   -2.1753616   -1.0184293 
C     4.8746785   -1.7283306    1.3613142 
C     2.0161350    4.6134802   -1.3154627 
C     4.3143856    3.6078987   -1.1257851 
C     5.3417766   -2.0099577   -0.0757005 
C     3.4933360    4.8989108   -1.0136437 
C    -1.0794942   -1.1130709    3.1177431 
C    -2.2474487    1.5784611    2.2752685 
C     0.4374717   -3.0498281    1.4201492 
C    -2.4366632   -2.8078397    1.3254994 
C    -3.6871981    3.2263211    1.1065628 
C     1.1099178   -3.4658372    2.5854903 
C    -3.6661018   -2.1684114    1.6012025 
C     0.7625474   -3.6611975    0.1891729 
C    -2.4195662   -4.1932755    1.0775770 
C    -3.2961348    4.4656873    0.2941615 
C    -4.4593389    2.2204548    0.2421676 
C    -4.4522879    3.6128009    2.3787192 
C     2.0883870   -4.4698912    2.5191830 
C    -4.8480733   -2.9172742    1.6697754 
C     1.7157479   -4.6850849    0.1312677 
C    -3.6111443   -4.9312945    1.1320588 
C     2.3870889   -5.0877476    1.2966942 
C    -4.8241012   -4.3010543    1.4403181 
H     2.3161623    1.9539261    2.4328370 
H     2.1999994   -1.4599896    0.8452937 
H     2.1917533    1.8696435   -1.5607281 
H     1.4932780   -0.6876169    2.9356261 
H     1.5922619    0.5477549    4.1981662 
H    -0.6996953    0.4698063    4.4842052 
H     0.2609956    2.9947941    3.2073181 
H    -0.0949876    2.9143645    1.4599211 
H     3.7124976   -0.0916732   -1.4463379 
H     2.2926858   -1.1506535   -1.5740103 
H     3.6616768   -0.2917586    2.4602644 
H     4.6201530    0.4113693    1.1525064 
H     1.5229899    3.8895837    0.6515464 
H     0.3923648    3.3347287   -0.6080731 
H     4.3689193    1.5854819   -0.3653945 
H     3.8860607    2.7905281    0.8452124 
H     4.4772889   -2.3447132   -2.0568996 
H     3.5689940   -3.0716945   -0.7151973 
H     4.2886529   -2.5919261    1.7329377 
H     5.7410997   -1.6130356    2.0368858 
H     1.9140233    4.2859834   -2.3647433 
H     1.4070183    5.5289533   -1.2060345 
H     5.3743187    3.7919284   -0.8738413 
H     4.2929023    3.2520806   -2.1747030 
H     5.9730198   -2.9161328   -0.1039445 
H     5.9770158   -1.1717670   -0.4251284 
H     3.8866407    5.6662784   -1.7039309 
H     3.5923103    5.3118638    0.0099500 
H    -2.1624188   -1.0424959    3.2885824 
H    -0.6949020   -1.8697001    3.8226542 
H     0.8792086   -3.0186088    3.5570019 
H    -3.7006991   -1.0890993    1.7903722 
H     0.2515268   -3.3366233   -0.7225924 
H    -1.4817330   -4.7094402    0.8561337 
H    -2.7070228    5.1631762    0.9124160 
H    -2.6895796    4.1781897   -0.5823006 
H    -4.2006578    4.9862789   -0.0613380 
H    -4.6781189    1.3023067    0.8068694 
H    -3.8819890    1.9651051   -0.6628781 
H    -5.4116031    2.6731986   -0.0821715 
H    -4.7211327    2.7210757    2.9642550 
H    -3.8374286    4.2835196    3.0026910 
H    -5.3758743    4.1489076    2.1017883 
H     2.6092582   -4.7770084    3.4318299 
H    -5.7912882   -2.4126729    1.9042716 
H     1.9410016   -5.1636978   -0.8272401 
H    -3.5835665   -6.0084580    0.9384721 
H     3.1425422   -5.8786487    1.2512234 
H    -5.7486080   -4.8850306    1.4959911 
