117
Energy =
C     0.8115820   -0.1262875   -3.1676910 
C     0.2504535   -1.4350495   -3.0960711 
C    -1.0863170   -1.6306105   -2.6835534 
H     0.8945783   -2.3076396   -3.2562643 
Pd    0.2089379   -0.6091170   -1.0496715 
P    -0.8662329   -1.6709158    0.7457426 
P     1.5135414    1.0329148   -0.0243507 
H     0.1050509    0.6983011   -3.3376128 
H    -1.7491893   -0.7537285   -2.7223787 
C     4.8282033    0.8165810   -4.4222202 
C     4.5157799   -0.4905758   -4.0137121 
C     3.2190656   -0.8140588   -3.5987888 
C     2.1951088    0.1611228   -3.5960219 
C     2.5189580    1.4642417   -4.0424837 
C     3.8204849    1.7926523   -4.4404948 
H     5.8457190    1.0666042   -4.7389438 
H     5.2906990   -1.2640888   -4.0182494 
H     3.0058804   -1.8360860   -3.2694895 
H     1.7302205    2.2231210   -4.0914151 
H     4.0449874    2.8093520   -4.7794419 
C    -3.2603782   -5.3340561   -2.6511389 
C    -3.9083238   -4.1196546   -2.3820646 
C    -3.1796729   -2.9249715   -2.3697979 
C    -1.7877223   -2.9199152   -2.6235818 
C    -1.1445667   -4.1559547   -2.8688240 
C    -1.8754806   -5.3462013   -2.8891072 
H    -3.8291651   -6.2693390   -2.6729096 
H    -4.9860702   -4.1001693   -2.1903351 
H    -3.6918930   -1.9786655   -2.1674421 
H    -0.0667138   -4.1910759   -3.0522848 
H    -1.3622713   -6.2921040   -3.0882897 
O    -2.5719606    2.0813474    3.1102144 
O    -2.4755366   -0.0258548    4.0517194 
N    -0.7888833    0.7863418    2.7302263 
C     1.2936549    1.4392465    1.7853465 
C     3.3350652    0.5893551   -0.2093568 
C     1.2942245    2.6802298   -0.9050284 
C     1.5221100    0.2421972    2.7402824 
C     0.1250403   -0.2979792    3.1221014 
C    -0.1154544    1.9523159    2.1527738 
C     4.3207846    1.3279103    0.7236853 
C     3.5448336   -0.9434015   -0.1217360 
C    -0.1680987    2.9350149   -1.3464846 
C     1.8530296    3.9294742   -0.1875052 
C     5.7765857    0.9352378    0.4062222 
C     5.0059835   -1.3323020   -0.4043204 
C    -0.2589148    4.1664869   -2.2650932 
C     1.7644985    5.1642870   -1.1062760 
C     5.9820759   -0.5832975    0.5161894 
C     0.3253418    5.4146793   -1.5837639 
C    -0.2614531   -1.6558315    2.5129143 
C    -2.0130623    0.8786537    3.3666224 
C    -0.7463417   -3.4904411    0.4594578 
C    -2.6417511   -1.2212525    0.8289877 
C    -3.7885530    2.5391290    3.8357337 
C    -1.8283010   -4.3868278    0.4958260 
C    -3.1183750   -0.2214240   -0.0436025 
C     0.5559283   -3.9893294    0.2284891 
C    -3.5479511   -1.8559489    1.7041599 
C    -3.4973289    2.5592498    5.3417074 
C    -3.9787610    3.9552340    3.2836113 
C    -4.9753839    1.6387882    3.4796670 
C    -1.6046800   -5.7630416    0.3388176 
C    -4.4833700    0.0890255   -0.0951195 
C     0.7732705   -5.3637574    0.0731073 
C    -4.9140789   -1.5517653    1.6432260 
C    -0.3085763   -6.2558665    0.1376911 
C    -5.3864308   -0.5950649    0.7324378 
H     2.0364097    2.2295728    1.9816874 
H     3.5473649    0.8900813   -1.2551493 
H     1.8943647    2.5172582   -1.8208613 
H     2.1583020   -0.5446439    2.3066935 
H     2.0353725    0.6034079    3.6471979 
H     0.0650127   -0.4340608    4.2178651 
H    -0.0492966    2.7758622    2.8901072 
H    -0.6934012    2.3333965    1.2966372 
H     4.1037849    1.0632989    1.7763267 
H     4.2014917    2.4212678    0.6369511 
H     2.8613821   -1.4475264   -0.8309152 
H     3.2655344   -1.3017885    0.8879240 
H    -0.8024691    3.1057390   -0.4564946 
H    -0.5776215    2.0400086   -1.8486828 
H     2.8993607    3.7727633    0.1243397 
H     1.2670035    4.1211809    0.7319892 
H     6.4591606    1.4711766    1.0896637 
H     6.0248702    1.2684722   -0.6204776 
H     5.2401067   -1.0869424   -1.4565193 
H     5.1256106   -2.4255476   -0.2949256 
H     0.2977818    3.9639292   -3.2016182 
H    -1.3109790    4.3386771   -2.5549579 
H     2.1549133    6.0494260   -0.5730405 
H     2.4230353    5.0061624   -1.9829992 
H     7.0242049   -0.8491993    0.2652293 
H     5.8186111   -0.8994522    1.5656988 
H     0.2942173    6.2778261   -2.2719946 
H    -0.3061732    5.6811231   -0.7132437 
H    -1.0863916   -2.0922484    3.1022374 
H     0.5878118   -2.3584029    2.5666272 
H    -2.8493921   -4.0201703    0.6253983 
H    -2.4060881    0.3118514   -0.6847016 
H     1.4035467   -3.2943468    0.1729323 
H    -3.1961500   -2.5887071    2.4363681 
H    -3.3346850    1.5401665    5.7243401 
H    -2.6039674    3.1726980    5.5511782 
H    -4.3544853    3.0050561    5.8744013 
H    -4.1221304    3.9251187    2.1900881 
H    -3.0972877    4.5799109    3.5064146 
H    -4.8660034    4.4225636    3.7422587 
H    -5.1198262    1.6169338    2.3875246 
H    -4.8082912    0.6118133    3.8361475 
H    -5.8912391    2.0395235    3.9470065 
H    -2.4562961   -6.4503487    0.3644859 
H    -4.8414113    0.8637529   -0.7811239 
H     1.7879893   -5.7386074   -0.0975446 
H    -5.6108767   -2.0583102    2.3185490 
H    -0.1415809   -7.3314212    0.0193304 
H    -6.4556341   -0.3637385    0.6876078 
