117
Energy =
C     0.9635419   -0.0586707   -3.2960535 
C     0.3174415   -1.3260073   -3.1877324 
C    -1.0408353   -1.4298544   -2.8195308 
H     0.9157967   -2.2400253   -3.2803695 
Pd    0.2494591   -0.3810478   -1.1939608 
P    -0.9538463   -1.3189648    0.5943566 
P     1.4956971    1.2922012   -0.1346081 
H     0.3252196    0.8010171   -3.5446783 
H    -1.6562752   -0.5243942   -2.9248960 
C     5.0737648    0.4619376   -4.4889850 
C     4.6563002   -0.7643658   -3.9449516 
C     3.3290835   -0.9442688   -3.5406147 
C     2.3795499    0.0942843   -3.6877114 
C     2.8112284    1.3155663   -4.2548185 
C     4.1439673    1.5012940   -4.6433586 
H     6.1147848    0.6018712   -4.7967746 
H     5.3738563   -1.5831291   -3.8285917 
H     3.0326386   -1.8994104   -3.0943829 
H     2.0854330    2.1229323   -4.4027345 
H     4.4549059    2.4567770   -5.0782881 
C    -3.3862366   -5.0244378   -2.6455889 
C    -3.9845495   -3.7688383   -2.4651283 
C    -3.2026217   -2.6086885   -2.5015681 
C    -1.8055819   -2.6802316   -2.7138256 
C    -1.2141114   -3.9559473   -2.8717706 
C    -1.9979581   -5.1117884   -2.8452985 
H    -3.9967275   -5.9332093   -2.6297921 
H    -5.0649036   -3.6903283   -2.3060081 
H    -3.6768570   -1.6307292   -2.3706455 
H    -0.1347922   -4.0498479   -3.0231726 
H    -1.5238596   -6.0893324   -2.9771012 
O    -2.7232994    0.5706315    4.0680890 
O    -3.1543489    2.4043610    2.7305258 
N    -1.2248235    1.1968044    2.5189400 
C     0.8482734    1.8587967    1.5269937 
C     3.2856437    0.8282708    0.2293667 
C     1.5298326    2.8706574   -1.1417525 
C     1.0933674    0.8896018    2.7132120 
C    -0.2576903    0.2094520    3.0039059 
C    -0.6850961    2.1039690    1.5065230 
C     3.3900422   -0.7098099    0.3829927 
C     4.3121146    1.3237187   -0.8137201 
C     0.1446971    3.2566102   -1.7118512 
C     2.1600843    4.0974963   -0.4441787 
C     4.8136944   -1.1465774    0.7667355 
C     5.7387827    0.8827339   -0.4354644 
C     0.2832339    4.4118086   -2.7211053 
C     2.3204409    5.2531443   -1.4513322 
C     5.8421001   -0.6397328   -0.2559302 
C     0.9719290    5.6319536   -2.0861688 
C    -0.4455320   -1.1959320    2.3915072 
C    -2.4505606    1.4710448    3.0893527 
C    -0.8469651   -3.1514978    0.4198866 
C    -2.7205510   -0.8259502    0.5895223 
C    -3.7636185    0.8620601    5.0926304 
C     0.4532880   -3.6797638    0.2526389 
C    -3.6731985   -1.3929631    1.4625142 
C    -1.9437147   -4.0294065    0.4747994 
C    -3.1336187    0.1716923   -0.3174963 
C    -5.1548078    0.8857336    4.4491971 
C    -3.6150678   -0.3230627    6.0515364 
C    -3.4229930    2.1880785    5.7854515 
C     0.6529799   -5.0637826    0.1776024 
C    -5.0170253   -1.0067536    1.3816424 
C    -1.7374726   -5.4148810    0.3979321 
C    -4.4713003    0.5833989   -0.3685234 
C    -0.4439166   -5.9357353    0.2595584 
C    -5.4190941   -0.0190495    0.4700928 
H     1.3800764    2.8043118    1.7217584 
H     3.5233943    1.3024008    1.2029987 
H     2.1753962    2.5840009   -1.9950313 
H     1.9015922    0.1619618    2.5419560 
H     1.3828570    1.4854618    3.5946264 
H    -0.3964988    0.0923574    4.0905177 
H    -0.9596626    3.1425143    1.7575057 
H    -1.1248419    1.8850674    0.5136529 
H     3.1028843   -1.1693544   -0.5839021 
H     2.6615356   -1.0792899    1.1281083 
H     4.2832270    2.4216024   -0.9041035 
H     4.0538052    0.9131902   -1.8036934 
H    -0.5190829    3.5786778   -0.8876016 
H    -0.3394889    2.3809936   -2.1819549 
H     3.1344393    3.8474609    0.0116601 
H     1.4977090    4.4311965    0.3779307 
H     4.8545266   -2.2480031    0.8481823 
H     5.0579285   -0.7457605    1.7703293 
H     6.0388851    1.3856295    0.5051954 
H     6.4402423    1.2264591   -1.2167478 
H     0.8769275    4.0640227   -3.5897011 
H    -0.7125927    4.6899526   -3.1099862 
H     2.7675062    6.1274513   -0.9456064 
H     3.0325076    4.9445275   -2.2420000 
H     6.8639075   -0.9212310    0.0546380 
H     5.6560876   -1.1315126   -1.2298219 
H     1.1128827    6.4265778   -2.8401571 
H     0.3100308    6.0531327   -1.3040304 
H    -1.2400197   -1.7309362    2.9414320 
H     0.4760049   -1.7941906    2.5021584 
H     1.3118709   -3.0005673    0.1788779 
H    -3.3750940   -2.1343700    2.2104039 
H    -2.9624886   -3.6420144    0.5501634 
H    -2.3928081    0.6315797   -0.9824100 
H    -5.2201306    1.6790097    3.6904360 
H    -5.3727944   -0.0845133    3.9756163 
H    -5.9128260    1.0669875    5.2305206 
H    -2.6031586   -0.3450125    6.4904754 
H    -3.7879044   -1.2731719    5.5176388 
H    -4.3508672   -0.2419041    6.8688951 
H    -2.3946492    2.1579180    6.1856860 
H    -3.5147752    3.0321625    5.0846997 
H    -4.1164970    2.3520010    6.6275853 
H     1.6658707   -5.4616345    0.0550875 
H    -5.7538942   -1.4728776    2.0431754 
H    -2.6000772   -6.0878697    0.4345309 
H    -4.7725881    1.3724122   -1.0647563 
H    -0.2904285   -7.0183079    0.2027741 
H    -6.4682485    0.2900162    0.4252454 
