117
Energy =
C     0.8764941   -0.1289270   -3.1566953 
C     0.2668936   -1.4161181   -3.0813536 
C    -1.0723367   -1.5728967   -2.6651671 
H     0.8823287   -2.3089096   -3.2425882 
Pd    0.2634380   -0.5704154   -1.0414877 
P    -0.8324358   -1.6181865    0.7525387 
P     1.5319779    1.0647633    0.0500548 
H     0.2062379    0.7245478   -3.3321110 
H    -1.7127812   -0.6797148   -2.7055845 
C     4.9085485    0.5585390   -4.5201388 
C     4.5456548   -0.7066569   -4.0285719 
C     3.2450571   -0.9415251   -3.5694942 
C     2.2672619    0.0804080   -3.6078265 
C     2.6431865    1.3419879   -4.1242705 
C     3.9499911    1.5820893   -4.5671866 
H     5.9291468    0.7410083   -4.8709735 
H     5.2853045   -1.5132905   -3.9967565 
H     2.9923269   -1.9278189   -3.1664566 
H     1.8934769    2.1383013   -4.1892100 
H     4.2176377    2.5680350   -4.9610088 
C    -3.3197546   -5.2323569   -2.5721220 
C    -3.9439410   -4.0014795   -2.3228000 
C    -3.1928649   -2.8207197   -2.3339583 
C    -1.8016480   -2.8460829   -2.5897826 
C    -1.1833145   -4.0982474   -2.8180601 
C    -1.9364714   -5.2745542   -2.8161770 
H    -3.9059700   -6.1570653   -2.5747979 
H    -5.0205492   -3.9582654   -2.1287286 
H    -3.6877006   -1.8620519   -2.1487573 
H    -0.1070814   -4.1573194   -3.0045060 
H    -1.4419688   -6.2330177   -3.0018836 
O    -2.9005860    1.9479997    3.1547702 
O    -2.5183609    0.0382415    4.3958423 
N    -1.0228788    0.7729633    2.8286534 
C     0.9861371    1.5348497    1.7782565 
C     3.3454992    0.6099629    0.2913486 
C     1.4911471    2.6944044   -0.8724222 
C     1.3049050    0.5026937    2.8907902 
C    -0.0161353   -0.2240265    3.1985850 
C    -0.5449131    1.7807426    1.8804946 
C     3.4789667   -0.9323129    0.3496286 
C     4.3113027    1.1826825   -0.7696938 
C     0.0737647    3.0827738   -1.3545366 
C     2.1361100    3.8959236   -0.1453203 
C     4.9258143   -1.3646943    0.6399026 
C     5.7611225    0.7455553   -0.4868543 
C     0.1423505    4.2907548   -2.3076049 
C     2.2275667    5.1035623   -1.0986339 
C     5.8955581   -0.7825943   -0.3998726 
C     0.8428860    5.4894300   -1.6452657 
C    -0.2115333   -1.5931091    2.5139837 
C    -2.2000322    0.8584950    3.5428399 
C    -0.7300147   -3.4384108    0.4771247 
C    -2.6029255   -1.1551322    0.8743126 
C    -4.0259344    2.4653609    3.9802556 
C    -1.8211053   -4.3209134    0.5608015 
C    -3.1044087   -0.1830312   -0.0152990 
C     0.5589402   -3.9537120    0.2124946 
C    -3.4788728   -1.7441796    1.8113594 
C    -3.5054061    2.7821825    5.3882779 
C    -4.4177010    3.7404191    3.2272410 
C    -5.1798266    1.4569147    4.0004367 
C    -1.6179444   -5.7012512    0.4148860 
C    -4.4635978    0.1559625   -0.0106395 
C     0.7557241   -5.3329355    0.0706404 
C    -4.8398837   -1.4145763    1.8034665 
C    -0.3336322   -6.2111349    0.1809436 
C    -5.3374929   -0.4790227    0.8833814 
H     1.5327265    2.4687807    1.9883048 
H     3.6267040    1.0305421    1.2779208 
H     2.0978620    2.4628894   -1.7698007 
H     2.1201282   -0.1933197    2.6407019 
H     1.6210799    1.0522774    3.7931126 
H    -0.1093546   -0.4108549    4.2815292 
H    -0.7817243    2.7927608    2.2492143 
H    -1.0523096    1.6615641    0.9031619 
H     3.1526565   -1.3405287   -0.6277643 
H     2.7925159   -1.3567535    1.1053804 
H     4.2619555    2.2833475   -0.7941579 
H     4.0108922    0.8253974   -1.7681890 
H    -0.5537201    3.3490072   -0.4831865 
H    -0.4183086    2.2229534   -1.8452741 
H     3.1358647    3.6410462    0.2485172 
H     1.5108850    4.1755742    0.7247400 
H     4.9873459   -2.4680193    0.6563869 
H     5.2119340   -1.0166200    1.6520582 
H     6.0998913    1.1995911    0.4654229 
H     6.4181717    1.1450592   -1.2801636 
H     0.6968145    3.9991959   -3.2214923 
H    -0.8761443    4.5699205   -2.6319264 
H     2.6862466    5.9593105   -0.5719833 
H     2.9031046    4.8479865   -1.9386180 
H     6.9353532   -1.0629146   -0.1549542 
H     5.6700069   -1.2218876   -1.3903504 
H     0.9328556    6.3239277   -2.3630475 
H     0.2147880    5.8581308   -0.8102949 
H    -0.9555947   -2.1793759    3.0815532 
H     0.7270059   -2.1745025    2.5273562 
H    -2.8331238   -3.9394610    0.7178717 
H    -2.4174572    0.3069681   -0.7155843 
H     1.4107299   -3.2685065    0.1173474 
H    -3.1077620   -2.4561747    2.5543671 
H    -3.2018978    1.8616996    5.9104802 
H    -2.6435927    3.4696817    5.3326550 
H    -4.3016593    3.2731376    5.9731198 
H    -4.7161026    3.4975188    2.1932602 
H    -3.5711363    4.4470098    3.1928155 
H    -5.2654808    4.2320277    3.7328419 
H    -4.8698163    0.5184178    4.4826211 
H    -6.0286382    1.8882258    4.5583864 
H    -5.5112603    1.2401276    2.9727527 
H    -2.4756035   -6.3787901    0.4756809 
H    -4.8398103    0.9119923   -0.7075706 
H     1.7602197   -5.7221688   -0.1260282 
H    -5.5122819   -1.8819156    2.5296201 
H    -0.1822635   -7.2900697    0.0727058 
H    -6.4034490   -0.2291041    0.8797864 
