117
Energy =
C     0.7385006   -0.2314886   -3.1714400 
C     0.1906746   -1.5413603   -3.0422805 
C    -1.1349516   -1.7330741   -2.5935719 
H     0.8385439   -2.4137945   -3.1875645 
Pd    0.1887523   -0.6463316   -1.0247121 
P    -0.8458014   -1.6503907    0.8277717 
P     1.5096754    1.0344681   -0.0862699 
H     0.0207393    0.5811140   -3.3516721 
H    -1.8061474   -0.8634104   -2.6481676 
C     4.7132512    0.7001774   -4.5602839 
C     4.4229356   -0.5948761   -4.1001811 
C     3.1402273   -0.9144060   -3.6409960 
C     2.1083185    0.0523347   -3.6438470 
C     2.4092758    1.3424068   -4.1413387 
C     3.6970519    1.6673078   -4.5843930 
H     5.7198500    0.9471816   -4.9122988 
H     5.2041456   -1.3620521   -4.0993418 
H     2.9446063   -1.9264374   -3.2723009 
H     1.6130547    2.0931322   -4.1943034 
H     3.9038042    2.6736867   -4.9630882 
C    -3.2749364   -5.4508744   -2.3892199 
C    -1.8946172   -5.4600079   -2.6526407 
C    -1.1741064   -4.2638045   -2.6879581 
C    -1.8235851   -3.0251683   -2.4743900 
C    -3.2104483   -3.0327343   -2.1941560 
C    -3.9285209   -4.2331223   -2.1507004 
H    -3.8356311   -6.3910229   -2.3671411 
H    -1.3767331   -6.4081109   -2.8278284 
H    -0.0995167   -4.2965090   -2.8900828 
H    -3.7271953   -2.0841520   -2.0152319 
H    -5.0025965   -4.2157850   -1.9392072 
O    -2.5030741    2.1931179    3.0823091 
O    -2.4018777    0.1125733    4.0804016 
N    -0.7292396    0.8816490    2.7152870 
C     1.3369183    1.4979940    1.7150326 
C     3.3277833    0.5906424   -0.3034652 
C     1.2619972    2.6526234   -1.0126048 
C     1.5808096    0.3279068    2.6989932 
C     0.1894246   -0.1900953    3.1312380 
C    -0.0586487    2.0310476    2.1025720 
C     4.3339757    1.3632023    0.5786123 
C     3.5464664   -0.9374885   -0.1699551 
C    -0.2111439    2.8853362   -1.4297642 
C     1.8283178    3.9262021   -0.3451869 
C     5.7827593    0.9657191    0.2359753 
C     5.0015242   -1.3305698   -0.4775169 
C    -0.3303337    4.0889156   -2.3814835 
C     1.7114517    5.1325324   -1.2979385 
C     5.9980053   -0.5474748    0.3913548 
C     0.2603976    5.3601281   -1.7501195 
C    -0.2135755   -1.5687984    2.5836672 
C    -1.9450963    0.9958960    3.3646101 
C    -0.7194904   -3.4785292    0.6054035 
C    -2.6224913   -1.2072732    0.9242161 
C    -3.7155804    2.6706633    3.8019426 
C     0.5820899   -3.9777234    0.3710209 
C    -3.1188924   -0.2400845    0.0262581 
C    -1.7946764   -4.3795398    0.6927037 
C    -3.5108303   -1.8161637    1.8352605 
C    -3.9061608    4.0730790    3.2160063 
C    -4.9045928    1.7630624    3.4727560 
C    -3.4182106    2.7277179    5.3057659 
C     0.8060248   -5.3555887    0.2625516 
C    -4.4862625    0.0616058   -0.0132564 
C    -1.5645702   -5.7591922    0.5819492 
C    -4.8794532   -1.5209115    1.7868092 
C    -0.2687082   -6.2512550    0.3774668 
C    -5.3719067   -0.5980606    0.8520953 
H     2.0890712    2.2888014    1.8689016 
H     3.5118134    0.8568787   -1.3638218 
H     1.8434589    2.4653606   -1.9358811 
H     2.1993449   -0.4766176    2.2720686 
H     2.1203579    0.7105568    3.5815410 
H     0.1524811   -0.2829824    4.2326695 
H     0.0321613    2.8669599    2.8235489 
H    -0.6520407    2.4025707    1.2531864 
H     4.1457240    1.1321935    1.6446547 
H     4.2074258    2.4527007    0.4592586 
H     2.8469034   -1.4678172   -0.8434641 
H     3.2953751   -1.2623559    0.8582633 
H    -0.8278277    3.0773558   -0.5316661 
H    -0.6249724    1.9736066   -1.8969460 
H     2.8822413    3.7848368   -0.0521087 
H     1.2616491    4.1421705    0.5810243 
H     6.4806410    1.5269080    0.8827158 
H     6.0022503    1.2651319   -0.8075589 
H     5.2071876   -1.1199761   -1.5431021 
H     5.1287988   -2.4190627   -0.3345682 
H     0.2069539    3.8624615   -3.3238600 
H    -1.3896671    4.2461188   -2.6528443 
H     2.1078731    6.0353972   -0.8000355 
H     2.3513060    4.9523504   -2.1841850 
H     7.0343988   -0.8179019    0.1221284 
H     5.8635221   -0.8286306    1.4548400 
H     0.2081678    6.2024595   -2.4624341 
H    -0.3533661    5.6482280   -0.8738014 
H    -1.0313379   -1.9765145    3.2026985 
H     0.6334379   -2.2727791    2.6522794 
H     1.4240157   -3.2801342    0.2758433 
H    -2.4200890    0.2750510   -0.6438608 
H    -2.8158600   -4.0146592    0.8264077 
H    -3.1430835   -2.5218760    2.5859935 
H    -3.0228915    4.7016424    3.4199360 
H    -4.0541686    4.0166232    2.1241390 
H    -4.7908419    4.5528004    3.6667622 
H    -4.7366645    0.7448068    3.8531365 
H    -5.0538024    1.7149086    2.3820237 
H    -5.8183245    2.1753487    3.9341448 
H    -3.2562720    1.7182547    5.7132493 
H    -2.5226433    3.3441333    5.4962158 
H    -4.2722378    3.1890040    5.8302569 
H     1.8202936   -5.7303296    0.0889755 
H    -4.8596915    0.8108459   -0.7190907 
H    -2.4111183   -6.4501752    0.6466975 
H    -5.5622903   -2.0077259    2.4903309 
H    -0.0965314   -7.3294036    0.2958107 
H    -6.4428811   -0.3732868    0.8173947 
