117
Energy =
C    -1.4027104    1.3703393   -1.8371812 
C    -1.3869403    0.0698665   -2.3609544 
C    -1.9806449   -1.0366499   -1.6604884 
H    -0.8224437   -0.1242941   -3.2817678 
Pd   -0.3648304   -0.2752796   -0.4003825 
P    -0.7943199   -1.7174540    1.3998636 
P     1.6571486    0.6286724    0.4075109 
H    -2.0139237    1.5597058   -0.9412283 
H    -2.8992559   -0.8484985   -1.0898651 
C    -0.1600934    4.9879655   -3.7930316 
C    -0.1589074    3.7777440   -4.5085075 
C    -0.5350794    2.5861700   -3.8818684 
C    -0.9275663    2.5791615   -2.5206674 
C    -0.9283512    3.8073615   -1.8168093 
C    -0.5447325    4.9978693   -2.4435242 
H     0.1315958    5.9186958   -4.2899148 
H     0.1304768    3.7670261   -5.5641468 
H    -0.5496540    1.6592955   -4.4636478 
H    -1.2452339    3.8154438   -0.7698239 
H    -0.5541036    5.9370707   -1.8810033 
C    -1.3900618   -5.1121480   -2.9295206 
C    -0.4206058   -4.1383361   -3.2264083 
C    -0.6116895   -2.8114430   -2.8275740 
C    -1.7816313   -2.4246699   -2.1244900 
C    -2.7490666   -3.4142024   -1.8412208 
C    -2.5530414   -4.7429462   -2.2377177 
H    -1.2392141   -6.1512254   -3.2398530 
H     0.4905043   -4.4172609   -3.7662503 
H     0.1686409   -2.0706715   -3.0377132 
H    -3.6593349   -3.1351096   -1.3009499 
H    -3.3148809   -5.4933125   -2.0025894 
O    -2.6037744    2.7764686    1.2295367 
O    -3.1562936    1.1475347    2.7541982 
N    -0.9717080    1.5523701    2.2121002 
C     1.3643765    1.6561501    1.9454399 
C     2.8923300   -0.6754685    0.9415178 
C     2.6841926    1.7011784   -0.7510790 
C     1.0576965    0.8046581    3.2021863 
C    -0.4766802    0.6016861    3.2299915 
C     0.0739928    2.4806152    1.7640707 
C     3.3460830   -1.5459064   -0.2519056 
C     4.1087693   -0.1360690    1.7267899 
C     2.4876568    1.2516583   -2.2165739 
C     2.4760179    3.2249258   -0.6292623 
C     4.2575390   -2.6918703    0.2195924 
C     5.0136014   -1.2947431    2.1895718 
C     3.4631940    1.9904671   -3.1498064 
C     3.4570140    3.9707062   -1.5544315 
C     5.4671885   -2.1617556    1.0047821 
C     3.3195587    3.5151025   -3.0157860 
C    -0.9839163   -0.8409956    3.0465615 
C    -2.3247832    1.7889177    2.1180902 
C     0.4066332   -3.0923610    1.6097494 
C    -2.4181055   -2.5976893    1.3441537 
C    -4.0185531    3.2525594    1.0824116 
C     1.0180855   -3.4471001    2.8277923 
C    -3.5854278   -1.8041435    1.2790184 
C     0.6528523   -3.8764555    0.4603463 
C    -2.5395515   -3.9995905    1.3687105 
C    -3.9046468    4.3666470    0.0382626 
C    -4.9022798    2.1099250    0.5613519 
C    -4.5018609    3.8122334    2.4262747 
C     1.8504415   -4.5750071    2.8977807 
C    -4.8486594   -2.4058142    1.2362608 
C     1.4657247   -5.0137056    0.5404618 
C    -3.8094979   -4.5965736    1.3265181 
C     2.0656246   -5.3666285    1.7600715 
C    -4.9642598   -3.8059645    1.2550865 
H     2.2395189    2.3052258    2.1092172 
H     2.3106551   -1.3344716    1.6135159 
H     3.7312719    1.4854671   -0.4592923 
H     1.5941990   -0.1573126    3.2258644 
H     1.3755546    1.3666553    4.0962488 
H    -0.8733849    0.9081377    4.2173021 
H     0.0950192    3.3933519    2.3933602 
H    -0.1075704    2.7875338    0.7238436 
H     3.9061555   -0.9196825   -0.9724130 
H     2.4617107   -1.9449843   -0.7835032 
H     3.7860448    0.4564507    2.6012832 
H     4.6966438    0.5456204    1.0821278 
H     1.4477204    1.4771899   -2.5120471 
H     2.6138631    0.1594868   -2.3147439 
H     2.6214771    3.5656304    0.4109369 
H     1.4400985    3.4788251   -0.9170708 
H     4.5875840   -3.2849813   -0.6523118 
H     3.6720232   -3.3721436    0.8637588 
H     4.4525891   -1.9229675    2.9097280 
H     5.8855589   -0.8886073    2.7329067 
H     4.5002432    1.6895614   -2.9014801 
H     3.2857882    1.6782200   -4.1949873 
H     3.2840842    5.0591483   -1.4738269 
H     4.4917696    3.7873978   -1.2031742 
H     6.0899401   -3.0012820    1.3619799 
H     6.1077824   -1.5560580    0.3335359 
H     4.0676201    4.0276099   -3.6467431 
H     2.3243124    3.8156435   -3.3915099 
H    -2.0702543   -0.8290759    3.2206565 
H    -0.5470187   -1.4783717    3.8342574 
H     0.8485111   -2.8572914    3.7341915 
H    -3.5121085   -0.7114099    1.2932141 
H     0.1871334   -3.6062445   -0.4938686 
H    -1.6503426   -4.6335254    1.4211012 
H    -3.1762898    5.1295770    0.3605621 
H    -3.5944160    3.9679312   -0.9412343 
H    -4.8859507    4.8539344   -0.0848502 
H    -5.0421891    1.3324716    1.3259482 
H    -4.4545683    1.6589903   -0.3417897 
H    -5.8892766    2.5167431    0.2825221 
H    -4.5684970    3.0208506    3.1869866 
H    -3.8151683    4.6006240    2.7792431 
H    -5.5013483    4.2602088    2.2939092 
H     2.3218745   -4.8403981    3.8495963 
H    -5.7445828   -1.7776980    1.1932071 
H     1.6340334   -5.6200471   -0.3552806 
H    -3.8907268   -5.6883073    1.3485692 
H     2.7064798   -6.2519912    1.8219298 
H    -5.9521909   -4.2764836    1.2205134 
