117
Energy =
C     0.7919517   -0.0578733   -3.2481811 
C     0.2453191   -1.3755187   -3.2011945 
C    -1.0811619   -1.5979284   -2.7703100 
H     0.8995914   -2.2350433   -3.3896327 
Pd    0.2215202   -0.5810314   -1.1426865 
P    -0.7801865   -1.6831197    0.6713224 
P     1.4733178    1.1008051   -0.1151009 
H     0.0785502    0.7654566   -3.4007920 
H    -1.7576171   -0.7304944   -2.7874991 
C     4.8153292    0.9139971   -4.4625102 
C     4.5213589   -0.3774818   -3.9936449 
C     3.2214739   -0.7087131   -3.5962150 
C     2.1765513    0.2415288   -3.6689177 
C     2.4831455    1.5271445   -4.1743844 
C     3.7876083    1.8638650   -4.5574410 
H     5.8352822    1.1712287   -4.7653770 
H     5.3131036   -1.1315955   -3.9364981 
H     3.0206197   -1.7163752   -3.2180531 
H     1.6806618    2.2652382   -4.2840001 
H     3.9982993    2.8664902   -4.9438782 
C    -3.1929159   -5.3373649   -2.7120972 
C    -3.8583043   -4.1334617   -2.4387261 
C    -3.1496233   -2.9267419   -2.4377515 
C    -1.7612032   -2.8985350   -2.7080805 
C    -1.1001774   -4.1240515   -2.9584229 
C    -1.8109916   -5.3265777   -2.9667261 
H    -3.7458222   -6.2822668   -2.7241622 
H    -4.9339656   -4.1318828   -2.2347351 
H    -3.6758793   -1.9887450   -2.2323979 
H    -0.0241517   -4.1411697   -3.1547528 
H    -1.2841601   -6.2641808   -3.1694646 
O    -2.7639335    1.8119554    3.2730272 
O    -2.2779420   -0.1242137    4.4349344 
N    -0.8801153    0.6913767    2.8194214 
C     1.0401111    1.5144657    1.6511716 
C     3.3141807    0.7316534   -0.1670155 
C     1.2512008    2.6951369   -1.0728950 
C     1.4489203    0.4189545    2.6739016 
C     0.1547690   -0.3056804    3.0883972 
C    -0.4919400    1.7103458    1.8453343 
C     4.2002416    1.4727707    0.8625593 
C     3.5809235   -0.7933437   -0.1101074 
C    -0.2371891    3.0566853   -1.2861980 
C     2.0433811    3.9289098   -0.5906689 
C     5.6893741    1.1605798    0.6181680 
C     5.0708421   -1.1060926   -0.3281483 
C    -0.3812906    4.2055278   -2.3003114 
C     1.8867518    5.0920564   -1.5920908 
C     5.9609899   -0.3511985    0.6722518 
C     0.4123491    5.4416096   -1.8470115 
C    -0.0931297   -1.6678180    2.4086905 
C    -2.0213757    0.7279828    3.5922092 
C    -0.6566661   -3.4969586    0.3684601 
C    -2.5544872   -1.2621605    0.8658681 
C    -3.8733598    2.2643861    4.1555898 
C     0.6361725   -3.9932421    0.0870157 
C    -3.3736270   -1.8689896    1.8423024 
C    -1.7383468   -4.3917327    0.4419640 
C    -3.1193644   -0.3111663   -0.0082631 
C    -4.9960962    1.2213156    4.1722107 
C    -3.3152258    2.5426950    5.5573252 
C    -4.3264792    3.5551885    3.4664459 
C     0.8466494   -5.3674709   -0.0802229 
C    -4.7408781   -1.5712644    1.8947840 
C    -1.5213255   -5.7670899    0.2703738 
C    -4.4850177   -0.0047954    0.0559312 
C    -0.2330186   -6.2588397    0.0204740 
C    -5.3013569   -0.6518533    0.9945583 
H     1.5733932    2.4527582    1.8771461 
H     3.5926569    1.0743826   -1.1850750 
H     1.6685267    2.4024629   -2.0542915 
H     2.2005216   -0.2846781    2.2852414 
H     1.8905322    0.9054185    3.5590573 
H     0.1562181   -0.5071227    4.1730856 
H    -0.7417051    2.7146620    2.2249565 
H    -1.0517839    1.5669842    0.9007261 
H     3.9316652    1.1472884    1.8843176 
H     4.0315134    2.5614075    0.8246754 
H     2.9570109   -1.3052485   -0.8659250 
H     3.2648416   -1.1906907    0.8743896 
H    -0.6832313    3.3777018   -0.3265923 
H    -0.8043595    2.1656131   -1.6182916 
H     3.1135751    3.6871151   -0.4832417 
H     1.6772955    4.2467000    0.4050934 
H     6.3044613    1.6923358    1.3659061 
H     5.9830969    1.5540039   -0.3747938 
H     5.3460292   -0.8094586   -1.3577695 
H     5.2371573   -2.1960984   -0.2530523 
H    -0.0110420    3.8691649   -3.2892626 
H    -1.4492408    4.4559996   -2.4314113 
H     2.4355426    5.9751049   -1.2190011 
H     2.3665628    4.8021547   -2.5478276 
H     7.0263538   -0.5572753    0.4667782 
H     5.7591149   -0.7214401    1.6970150 
H     0.3345609    6.2462813   -2.5994840 
H    -0.0364073    5.8367234   -0.9142930 
H    -0.8218168   -2.2422058    3.0070690 
H     0.8378462   -2.2606361    2.3839632 
H     1.4806985   -3.2975028    0.0014428 
H    -2.9533998   -2.5723002    2.5673904 
H    -2.7526947   -4.0231380    0.6152358 
H    -2.4770254    0.1883209   -0.7432474 
H    -5.3519813    1.0323818    3.1470402 
H    -4.6436977    0.2756403    4.6092305 
H    -5.8398898    1.6050838    4.7710379 
H    -2.4751779    3.2564679    5.5003989 
H    -2.9688468    1.6125715    6.0335085 
H    -4.1050239    2.9883127    6.1856987 
H    -3.5015745    4.2869317    3.4316439 
H    -4.6532517    3.3433117    2.4342208 
H    -5.1697175    4.0021335    4.0188917 
H     1.8539963   -5.7427975   -0.2889225 
H    -5.3688487   -2.0512510    2.6518050 
H    -2.3711352   -6.4549571    0.3246888 
H    -4.9109916    0.7356259   -0.6290418 
H    -0.0708959   -7.3340134   -0.1077209 
H    -6.3716473   -0.4255171    1.0394644 
