87
Energy =
C     2.2336481   -2.7761298    0.1582584 
C     3.1747346   -1.7212076    0.3573053 
C     3.0612471   -0.8722711    1.4873652 
H     3.8712894   -1.4570995   -0.4476972 
Pd    1.1619726   -0.8430414    0.2612899 
P     0.2209072    1.2447402    0.7601461 
P    -0.9367858   -1.3516504   -0.5886482 
H     1.7858598   -3.2176890    1.0613281 
H     2.5275925   -1.2839483    2.3582957 
C     1.8572551   -5.2692536   -3.3347868 
C     1.1934158   -5.5950508   -2.1416929 
C     1.3390596   -4.7811343   -1.0123057 
C     2.1449864   -3.6202144   -1.0507057 
C     2.8056895   -3.3032295   -2.2601171 
C     2.6662224   -4.1222372   -3.3864721 
H     1.7486234   -5.9064336   -4.2181837 
H     0.5664261   -6.4912654   -2.0894609 
H     0.8215614   -5.0428121   -0.0818807 
H     3.4276245   -2.4046294   -2.3297581 
H     3.1893097   -3.8626057   -4.3126339 
C     5.4353895    2.5733843    2.4938345 
C     4.5611863    2.0002871    3.4304060 
C     3.7998697    0.8782493    3.0826055 
C     3.8959206    0.3030699    1.7936600 
C     4.7887276    0.8858909    0.8646852 
C     5.5471000    2.0091301    1.2121757 
H     6.0326489    3.4505715    2.7621558 
H     4.4759788    2.4264700    4.4352779 
H     3.1206960    0.4317219    3.8183015 
H     4.8947795    0.4606638   -0.1386913 
H     6.2337144    2.4461974    0.4799220 
C    -1.6534185    1.2342279    0.3658529 
C    -2.0455263   -0.2601420    0.4756003 
C     0.9891692    2.8790012    0.1125294 
C    -1.2009574   -1.0222957   -2.4436877 
C    -2.2139770    2.1563116    1.4401306 
C    -3.4352484   -0.8403724    0.2565571 
C    -0.1369056    1.4676836    2.5821382 
C    -1.9970176   -2.8240375   -0.1695958 
C    -1.4299452    2.2579301    2.6127403 
C    -3.3920286   -2.2236992   -0.0591500 
C    -0.0793709    3.8117014   -0.4941308 
C     1.7126114    3.5951725    1.2729234 
C     2.0208580    2.4854333   -0.9681750 
C    -0.2365718    0.1106819   -2.8546876 
C    -2.6475037   -0.6426129   -2.8194162 
C    -0.7808529   -2.3232320   -3.1683096 
C    -3.3741194    2.9359145    1.3087068 
C    -4.6712456   -0.1913827    0.3664782 
C    -1.8365743    3.0938789    3.6632683 
C    -4.5791455   -2.9356203   -0.2749691 
C    -3.7756523    3.7744441    2.3600563 
C    -5.8578212   -0.9093918    0.1409448 
C    -3.0157950    3.8447943    3.5378810 
C    -5.8141980   -2.2737291   -0.1783029 
H    -1.8649654    1.6174990   -0.6454277 
H    -1.7361368   -0.5893123    1.4933152 
H    -0.2473361    0.4569651    3.0203667 
H     0.6992510    1.9550723    3.1066852 
H    -1.9161727   -3.6387539   -0.9053444 
H    -1.6382193   -3.2158947    0.8024195 
H     0.4211497    4.7275679   -0.8578620 
H    -0.8400814    4.1098843    0.2453854 
H    -0.5876852    3.3523635   -1.3595211 
H     2.2450111    4.4729183    0.8643249 
H     1.0032125    3.9615272    2.0344393 
H     2.4638043    2.9486006    1.7574058 
H     2.5220637    3.3978226   -1.3390851 
H     1.5467594    1.9870495   -1.8282721 
H     2.7941916    1.8156173   -0.5568527 
H    -0.4860511    1.0650246   -2.3605139 
H     0.8108451   -0.1443708   -2.6146614 
H    -0.3102738    0.2732529   -3.9452405 
H    -2.6865388   -0.4581274   -3.9091997 
H    -3.3657876   -1.4429628   -2.5829327 
H    -2.9836965    0.2757026   -2.3094190 
H    -0.7510965   -2.1304295   -4.2559688 
H    -1.4994207   -3.1422282   -2.9988940 
H     0.2217352   -2.6653101   -2.8595679 
H    -3.9522319    2.9104440    0.3786937 
H    -4.7185537    0.8665160    0.6306766 
H    -1.2249606    3.1755615    4.5682183 
H    -4.5424589   -4.0005214   -0.5290629 
H    -4.6773876    4.3858992    2.2533746 
H    -6.8219512   -0.3963634    0.2166867 
H    -3.3296085    4.5053918    4.3524235 
H    -6.7428229   -2.8255389   -0.3559508 
