87
Energy =
C     2.3180370   -2.6554404    0.1937789 
C     3.2340509   -1.5737342    0.3349956 
C     3.1461604   -0.6975015    1.4471535 
H     3.9005161   -1.3165638   -0.4972185 
Pd    1.1973134   -0.7418401    0.2876433 
P     0.1292797    1.2844820    0.8293097 
P    -0.8582906   -1.3526052   -0.6061186 
H     1.8889444   -3.0660599    1.1205392 
H     2.6774923   -1.1003421    2.3582593 
C     1.9634229   -5.3203624   -3.1720171 
C     1.2779293   -5.5762280   -1.9740860 
C     1.4165561   -4.7060710   -0.8867326 
C     2.2347008   -3.5563215   -0.9737308 
C     2.9203365   -3.3124116   -2.1860286 
C     2.7885883   -4.1881131   -3.2699718 
H     1.8609321   -6.0018357   -4.0224760 
H     0.6406098   -6.4621714   -1.8846458 
H     0.8841685   -4.9142643    0.0486852 
H     3.5585541   -2.4290935   -2.2913482 
H     3.3313802   -3.9849951   -4.1988602 
C     5.5784075    2.7718059    2.1994595 
C     4.8873486    2.1375675    3.2428980 
C     4.0992486    1.0105368    2.9790936 
C     3.9892117    0.4909979    1.6684320 
C     4.6949509    1.1389405    0.6278734 
C     5.4791268    2.2665104    0.8919914 
H     6.1937370    3.6541007    2.4023241 
H     4.9643150    2.5205826    4.2656316 
H     3.5615657    0.5182161    3.7976379 
H     4.6239718    0.7659334   -0.3993687 
H     6.0167729    2.7564892    0.0736823 
C    -1.7245127    1.1887957    0.3521334 
C    -2.0464891   -0.3239353    0.4287289 
C     0.8300333    2.9795573    0.2922037 
C    -1.1003953   -1.0446180   -2.4686233 
C    -2.3792983    2.0482705    1.4238653 
C    -3.3997064   -0.9718928    0.1728959 
C    -0.3217957    1.4268798    2.6396349 
C    -1.8490909   -2.8786629   -0.2070408 
C    -1.6583503    2.1428810    2.6367499 
C    -3.2763068   -2.3522128   -0.1347530 
C     1.7663980    3.4853748    1.4115296 
C     1.6535523    2.7344707   -0.9916309 
C    -0.2715455    4.0248157    0.0215341 
C    -0.5786175   -2.3149777   -3.1803032 
C    -0.2090787    0.1524924   -2.8600479 
C    -2.5598031   -0.7629310   -2.8795816 
C    -3.5656782    2.7794386    1.2591968 
C    -4.6698169   -0.3867956    0.2438348 
C    -2.1547027    2.9207611    3.6930505 
C    -4.4184668   -3.1255342   -0.3794238 
C    -4.0565359    3.5616356    2.3161021 
C    -5.8108757   -1.1661715   -0.0113274 
C    -3.3600530    3.6224345    3.5330265 
C    -5.6882211   -2.5278512   -0.3210784 
H    -1.9133918    1.5817046   -0.6608126 
H    -1.7490055   -0.6486365    1.4514880 
H    -0.3896022    0.4001965    3.0480606 
H     0.4610893    1.9478057    3.2124443 
H    -1.7068810   -3.6899089   -0.9372517 
H    -1.4950627   -3.2484562    0.7753977 
H     2.3097586    4.3730331    1.0415575 
H     2.5181651    2.7330224    1.6996823 
H     1.2034002    3.7934793    2.3086524 
H     2.1596849    3.6733013   -1.2799229 
H     2.4267302    1.9632648   -0.8330975 
H     1.0169260    2.4249136   -1.8353331 
H     0.2127171    4.9593621   -0.3169114 
H    -0.8597310    4.2540597    0.9242586 
H    -0.9642760    3.7052858   -0.7754871 
H     0.4419742   -2.5819243   -2.8583728 
H    -1.2364494   -3.1840402   -3.0138997 
H    -0.5509621   -2.1259089   -4.2687190 
H    -0.2460261    0.2909386   -3.9557551 
H    -0.5591577    1.0903016   -2.3968221 
H     0.8439355   -0.0094681   -2.5681163 
H    -2.5831537   -0.5793530   -3.9700440 
H    -2.9692349    0.1297820   -2.3779003 
H    -3.2285256   -1.6101328   -2.6621273 
H    -4.0952221    2.7614975    0.3004505 
H    -4.7791673    0.6684883    0.4998149 
H    -1.5923142    2.9986119    4.6297014 
H    -4.3198382   -4.1880437   -0.6270858 
H    -4.9787937    4.1364560    2.1842707 
H    -6.8018211   -0.7030595    0.0336779 
H    -3.7439132    4.2384966    4.3524793 
H    -6.5818333   -3.1275022   -0.5217389 
