87
Energy =
C     0.8999238   -2.8553431   -2.0030385 
C     2.0896678   -2.0795358   -2.0760864 
C     2.9246409   -1.9374898   -0.9277996 
H     2.2615554   -1.4429298   -2.9532971 
Pd    0.8833479   -1.2162217   -0.4739567 
P     1.2488693    0.4021316    1.1364061 
P    -1.3512201   -0.5118776   -0.3603858 
H     0.8918841   -3.6864637   -1.2805376 
H     2.9369163   -2.7756101   -0.2139136 
C    -2.1473966   -3.1389258   -5.0337132 
C    -1.3434105   -1.9878824   -4.9589377 
C    -0.3440277   -1.8875432   -3.9858440 
C    -0.1241019   -2.9377001   -3.0640818 
C    -0.9373028   -4.0898770   -3.1536322 
C    -1.9375733   -4.1904397   -4.1296711 
H    -2.9302565   -3.2143389   -5.7950842 
H    -1.5004904   -1.1639529   -5.6630832 
H     0.2579642   -0.9739968   -3.9244076 
H    -0.7763525   -4.9175960   -2.4537257 
H    -2.5541333   -5.0934125   -4.1845171 
C     6.2101732    0.8095197   -0.4572322 
C     6.0720860   -0.2976167    0.3935844 
C     5.0110558   -1.1939826    0.2144924 
C     4.0620166   -1.0009683   -0.8141784 
C     4.2163153    0.1175184   -1.6665426 
C     5.2804044    1.0087538   -1.4917455 
H     7.0405345    1.5098193   -0.3211453 
H     6.7983801   -0.4686747    1.1950164 
H     4.9143290   -2.0602885    0.8787181 
H     3.4891069    0.3038870   -2.4643555 
H     5.3845126    1.8671967   -2.1636085 
C    -1.5197872    1.0057104    0.8013140 
C    -0.1115636    1.6495790    0.7769662 
C    -2.8169610   -1.7099990   -0.0568996 
C     1.1734358   -0.2546594    2.9174396 
C    -2.6192964    1.8088158    0.1199844 
C     0.3227930    2.8856146    1.5515581 
C    -1.7939448    0.5505222   -1.8363332 
C     2.5094724    1.7685269    1.1380170 
C    -2.7406491    1.5902509   -1.2717273 
C     1.7330076    2.9521830    1.7005195 
C    -3.6129507   -1.8877056   -1.3677244 
C    -2.2017681   -3.0646546    0.3604053 
C    -3.7478085   -1.1919582    1.0593174 
C     0.1285562   -1.3903680    2.9692989 
C     0.8370978    0.8208917    3.9691706 
C     2.5718555   -0.8601619    3.1883191 
C    -3.5202456    2.6651775    0.7723906 
C    -0.4803361    3.9146610    2.0586237 
C    -3.7248253    2.2655141   -2.0087422 
C     2.3201888    4.0394456    2.3607309 
C    -4.5064815    3.3358880    0.0324240 
C     0.1149457    4.9971290    2.7282442 
C    -4.6012063    3.1458028   -1.3548558 
C     1.5072510    5.0614154    2.8780892 
H    -1.8008358    0.7183436    1.8270654 
H     0.1073275    1.8727171   -0.2913417 
H    -0.8528632    0.9939958   -2.2148969 
H    -2.2169484   -0.0460084   -2.6582035 
H     3.4200026    1.5181085    1.7045378 
H     2.8190983    1.9263228    0.0867235 
H    -4.3825150   -2.6645568   -1.2078717 
H    -2.9724006   -2.2226838   -2.2017007 
H    -4.1317698   -0.9589500   -1.6596270 
H    -3.0136479   -3.7937595    0.5344764 
H    -1.5456886   -3.4661448   -0.4292976 
H    -1.6174628   -2.9810624    1.2916513 
H    -4.5645639   -1.9224017    1.2033913 
H    -4.2010933   -0.2205254    0.8038020 
H    -3.2218093   -1.0951137    2.0248228 
H    -0.8941621   -1.0271860    2.7732447 
H     0.3617860   -2.1865638    2.2395304 
H     0.1317941   -1.8412835    3.9781447 
H     1.5820256    1.6318926    3.9919475 
H    -0.1516504    1.2760201    3.7923626 
H     0.8197156    0.3439792    4.9668462 
H     2.5617110   -1.3617974    4.1727734 
H     3.3633445   -0.0926939    3.2133702 
H     2.8414450   -1.6121254    2.4257073 
H    -3.4712120    2.7923575    1.8592523 
H    -1.5641145    3.8836768    1.9322029 
H    -3.8212350    2.0903236   -3.0856571 
H     3.4078309    4.0841723    2.4833976 
H    -5.2120410    3.9989678    0.5431726 
H    -0.5161281    5.7947154    3.1333220 
H    -5.3759187    3.6668433   -1.9264300 
H     1.9637815    5.9066402    3.4030551 
