81
Energy =
C     0.1583714    2.1733618   -1.6253967 
C     1.1391486    2.3386278   -0.5953458 
C     2.2528097    1.4674682   -0.5324869 
H     0.9329126    3.0138042    0.2433819 
Pd    0.3182031    0.2986073   -0.4528587 
P     0.7209351   -1.3483160    1.1142745 
P    -1.5868179   -0.8669357   -1.0284080 
H     0.5047726    1.8015748   -2.5992408 
H     2.5214696    0.9477629   -1.4666750 
C    -3.5988615    4.2711139   -1.7188659 
C    -3.0423401    3.7502268   -2.8968182 
C    -1.8246225    3.0600002   -2.8534581 
C    -1.1376624    2.8784400   -1.6317413 
C    -1.7287676    3.3781709   -0.4453498 
C    -2.9409606    4.0738769   -0.4925603 
H    -4.5510544    4.8093954   -1.7513572 
H    -3.5585241    3.8834285   -3.8526060 
H    -1.3902016    2.6624913   -3.7775317 
H    -1.2420603    3.2114015    0.5219241 
H    -3.3834963    4.4580993    0.4326019 
C     5.3309098    1.1780227    2.4487001 
C     4.2037201    1.9793338    2.6995789 
C     3.1924461    2.0987667    1.7425259 
C     3.2852509    1.4062441    0.5115329 
C     4.4278134    0.6049295    0.2721375 
C     5.4431348    0.4953204    1.2289199 
H     6.1198121    1.0891348    3.2021940 
H     4.1174566    2.5204224    3.6475876 
H     2.3233663    2.7258609    1.9585015 
H     4.5143500    0.0683899   -0.6800365 
H     6.3186789   -0.1295296    1.0282080 
F     1.2432290   -3.0461825    3.5690833 
F     1.1658984   -3.0196723   -1.2126667 
F    -3.8774466    0.5191018   -2.7829358 
F     0.3046822   -0.4978966   -3.4389105 
F     0.2401613    1.4462000    2.3371155 
F     3.5397869   -1.5650200    2.6550552 
F    -2.3967531   -0.1902744    1.6923691 
F    -3.8920859   -2.4094545   -2.2376388 
F     0.3993658    2.1850557    4.9115363 
F     5.7455690   -2.7851188    1.7516341 
F    -4.4036606    1.4041982    2.5932585 
F    -4.1977249   -3.3069952   -4.7927110 
F     1.3471387   -2.2868307    6.1841723 
F     3.4083676   -4.2799304   -2.0962209 
F    -5.8532363    2.0810087   -1.8697728 
F    -0.0229290   -1.3851069   -5.9607764 
F     0.9378276    0.3313303    6.8551195 
F     5.7140719   -4.1599330   -0.6122499 
F    -6.1370598    2.5568976    0.8036833 
F    -2.2629493   -2.7908292   -6.6525655 
C    -0.7163232   -2.5716307    1.1363010 
C    -1.6018330   -2.5210583   -0.1195976 
C     0.7929322   -0.8259948    2.8652451 
C     2.2500888   -2.3027694    0.7766363 
C    -3.1045551    0.0482600   -0.5644949 
C    -1.8049648   -1.4087788   -2.7609603 
C     1.0382156   -1.7589445    3.8904697 
C     2.2824264   -2.9973266   -0.4471662 
C    -3.9967828    0.6712510   -1.4565336 
C    -0.8233422   -1.1676784   -3.7378620 
C     0.5512037    0.5047165    3.2467274 
C     3.4523240   -2.2448516    1.5054673 
C    -3.2768547    0.3280452    0.8030807 
C    -2.9374816   -2.1514613   -3.1459615 
C     0.6105571    0.9095523    4.5861606 
C     4.6183436   -2.8755141    1.0461049 
C    -4.2932870    1.1530298    1.2889241 
C    -3.1123489   -2.6177125   -4.4522140 
C     1.0978483   -1.3869411    5.2368346 
C     3.4268691   -3.6349159   -0.9313806 
C    -5.0346992    1.4938644   -0.9989844 
C    -0.9687941   -1.6255696   -5.0548425 
C     0.8851886   -0.0399299    5.5828848 
C     4.6091372   -3.5704011   -0.1722504 
C    -5.1815249    1.7406648    0.3733401 
C    -2.1171335   -2.3512232   -5.4102086 
H    -0.3191437   -3.5861454    1.3016251 
H    -1.2945365   -2.2876536    2.0289477 
H    -1.2302468   -3.2287560   -0.8776702 
H    -2.6437274   -2.7941712    0.1134666 
