81
Energy =
C     0.4626877    1.8551796   -1.9553778 
C     1.1666388    2.2597415   -0.7962240 
C     2.2595587    1.4726995   -0.3101418 
H     0.7630212    3.0658847   -0.1723570 
Pd    0.4284774    0.2240441   -0.3893741 
P     0.9639006   -1.6060964    0.9074705 
P    -1.7174486   -0.6190254   -0.5001661 
H     0.9971571    1.1776654   -2.6414875 
H     2.8686583    0.9384090   -1.0520972 
C    -3.0735849    3.5283829   -3.7273477 
C    -2.3135069    2.5659742   -4.4076029 
C    -1.1645691    2.0349996   -3.8106535 
C    -0.7473853    2.4624480   -2.5268423 
C    -1.5182996    3.4433923   -1.8583234 
C    -2.6705224    3.9643148   -2.4533062 
H    -3.9765631    3.9408607   -4.1882971 
H    -2.6224345    2.2234247   -5.3998447 
H    -0.5724633    1.2799956   -4.3411195 
H    -1.2236589    3.7941794   -0.8657565 
H    -3.2572990    4.7218922   -1.9234256 
C     4.1877006    2.1480032    3.4783127 
C     2.8567396    2.5587191    3.2903078 
C     2.2121841    2.3278510    2.0709234 
C     2.8945630    1.6947124    1.0030805 
C     4.2228964    1.2617880    1.2164886 
C     4.8635231    1.4876167    2.4411260 
H     4.6865403    2.3225299    4.4365581 
H     2.3172585    3.0531980    4.1051141 
H     1.1663121    2.6310425    1.9498795 
H     4.7578672    0.7521722    0.4073626 
H     5.8937943    1.1484701    2.5868176 
F    -0.9025890   -0.3983969    2.7994076 
F     2.0178442   -4.1024750    2.2548660 
F    -4.6963371   -1.1779869   -0.4256548 
F    -0.4870384   -2.7356164   -2.0585670 
F     3.6910122   -1.6508312    2.5763719 
F     2.6859802   -1.4517418   -1.6489447 
F    -1.5259605    2.1143520    0.9217055 
F    -3.8812446    0.5713443   -2.5629281 
F     4.0846277   -0.5999591    5.0101563 
F     4.6019674   -3.1569661   -2.4686443 
F    -3.5214809    3.6589795    1.8332167 
F    -4.1639746   -0.1209223   -5.1340391 
F    -0.4771055    0.6660054    5.2639640 
F     3.9535918   -5.8202785    1.4015786 
F    -6.7047595    0.3804971    0.5548781 
F    -0.8176064   -3.4501987   -4.6617039 
F     2.0314176    0.5752321    6.3732206 
F     5.2440579   -5.3456086   -0.9608652 
F    -6.1194693    2.8051087    1.6735097 
F    -2.6607637   -2.1350817   -6.2130030 
C    -0.5045471   -2.7914523    0.9518633 
C    -1.8557565   -2.1508042    0.5937337 
C     1.3541325   -1.1262631    2.6312919 
C     2.3059768   -2.7159039    0.3507490 
C    -3.0577826    0.4334367    0.1631995 
C    -2.2103159   -1.1052855   -2.1985762 
C     0.3265202   -0.4993549    3.3587853 
C     2.6487458   -3.8612990    1.0943807 
C    -4.3998159    0.0101931    0.1244763 
C    -1.4361649   -2.1158425   -2.7989822 
C     2.6328763   -1.1355088    3.2182563 
C     2.9816070   -2.5035578   -0.8635964 
C    -2.7870484    1.6675736    0.7784029 
C    -3.1336557   -0.4382643   -3.0247792 
C     2.8595518   -0.5891434    4.4883449 
C     3.9776546   -3.3812965   -1.3139486 
C    -3.8110164    2.4819262    1.2782102 
C    -3.2940098   -0.7862637   -4.3743823 
C     0.5235359    0.0644475    4.6209998 
C     3.6403135   -4.7523295    0.6732273 
C    -5.4433206    0.7975802    0.6201702 
C    -1.5731199   -2.4862461   -4.1387419 
C     1.8069959    0.0162853    5.1892986 
C     4.3058066   -4.5074305   -0.5419491 
C    -5.1424389    2.0445855    1.1979159 
C    -2.5150471   -1.8095548   -4.9343880 
H    -0.2353051   -3.5574982    0.2076093 
H    -0.5421553   -3.2797890    1.9389927 
H    -2.5246486   -2.8788357    0.1069045 
H    -2.3614813   -1.7840299    1.5003102 
