81
Energy =
C     0.3976451    1.8339385   -2.1739394 
C     1.3511885    2.1702303   -1.1737863 
C     2.4078109    1.2557424   -0.8924850 
H     1.1814740    3.0247848   -0.5067568 
Pd    0.4461425    0.2779520   -0.5366047 
P     1.0180058   -1.4326695    0.9132091 
P    -1.6398624   -0.7475443   -0.6377859 
H     0.7293788    1.1144808   -2.9392118 
H     2.7275594    0.6083695   -1.7244392 
C    -3.2298831    3.8714301   -3.2425399 
C    -2.7740554    2.7746903   -3.9889624 
C    -1.5786849    2.1391568   -3.6353863 
C    -0.8215514    2.5774098   -2.5226537 
C    -1.2850136    3.6965101   -1.7927603 
C    -2.4760717    4.3339062   -2.1503151 
H    -4.1644236    4.3715866   -3.5158140 
H    -3.3534220    2.4150610   -4.8451869 
H    -1.2181706    1.2860910   -4.2222451 
H    -0.7198434    4.0664198   -0.9323519 
H    -2.8214252    5.1981072   -1.5737707 
C     5.2893609    1.4790778    2.2934201 
C     3.9797230    1.9436619    2.5074476 
C     3.0359398    1.8947790    1.4768915 
C     3.3834495    1.3716974    0.2093431 
C     4.7006467    0.9038940    0.0075648 
C     5.6479614    0.9657998    1.0386827 
H     6.0228761    1.5081097    3.1050453 
H     3.6926948    2.3359708    3.4883506 
H     2.0085991    2.2244480    1.6652012 
H     4.9839580    0.4956907   -0.9693642 
H     6.6640278    0.5949874    0.8670797 
F     1.0687032   -3.5417011    3.1144963 
F     2.6062122   -2.4258790   -1.3510629 
F    -4.3284641   -1.9647556    0.0929297 
F    -0.3214730   -2.2753462   -2.7362500 
F    -0.1660740    1.0040950    2.3896080 
F     3.1812126   -1.2937951    3.2454922 
F    -1.8510232    2.0743345    0.5536961 
F    -4.2473556    0.3644346   -2.1557876 
F    -1.1521851    1.1282575    4.8868329 
F     5.7966821   -1.8137536    3.0338083 
F    -3.8575058    3.1377308    1.9979543 
F    -4.8219010    0.0645226   -4.7499143 
F     0.0757689   -3.3909303    5.6378304 
F     5.2554746   -2.9796302   -1.5276440 
F    -6.3454049   -0.8772777    1.5658818 
F    -0.9428759   -2.5937346   -5.3646999 
F    -1.0343263   -1.0581958    6.5296119 
F     6.8659261   -2.6662464    0.6702353 
F    -6.1127551    1.6770597    2.5087929 
F    -3.2062209   -1.4207814   -6.3798734 
C     0.0273079   -2.8885980    0.2816294 
C    -1.4462331   -2.4703030    0.1234315 
C     0.4483969   -1.2932468    2.6496858 
C     2.7745810   -1.9350365    0.9717572 
C    -3.0070274   -0.0044419    0.3194257 
C    -2.2849439   -1.0018681   -2.3364512 
C     0.5045312   -2.3952881    3.5265581 
C     3.3682600   -2.3392078   -0.2402916 
C    -4.1900377   -0.7217129    0.5824908 
C    -1.4619176   -1.7320742   -3.2148288 
C    -0.1019301   -0.1006104    3.1507293 
C     3.6339295   -1.7601015    2.0734101 
C    -2.9277324    1.3163173    0.7968313 
C    -3.4318198   -0.4020431   -2.8898678 
C    -0.6159627   -0.0112968    4.4516886 
C     5.0064493   -2.0274975    1.9834973 
C    -3.9635608    1.8889828    1.5474542 
C    -3.7469736   -0.5444504   -4.2498391 
C     0.0086979   -2.3344530    4.8328966 
C     4.7336222   -2.6153682   -0.3574853 
C    -5.2394668   -0.1766493    1.3281008 
C    -1.7501217   -1.8919247   -4.5726661 
C    -0.5563136   -1.1317806    5.2951521 
C     5.5577012   -2.4582917    0.7687727 
C    -5.1239044    1.1419553    1.8056996 
C    -2.9112229   -1.2914290   -5.0926769 
H     0.4703174   -3.1606491   -0.6878491 
H     0.1222327   -3.7458559    0.9668391 
H    -2.0045598   -3.2030677   -0.4804841 
H    -1.9407483   -2.4121868    1.1085755 
