81
Energy =
C     0.6733181    1.7636827   -2.0281660 
C     1.1035706    2.3756271   -0.8260383 
C     2.1594328    1.7802191   -0.0641748 
H     0.5087331    3.1875308   -0.3917514 
Pd    0.5014671    0.3253791   -0.3129465 
P     0.9548862   -1.3763243    1.1968214 
P    -1.5184201   -0.7382567   -0.6888610 
H     1.4034557    1.1164073   -2.5400047 
H     2.9338131    1.2314676   -0.6191388 
C    -2.6759528    2.7973428   -4.5143868 
C    -1.6010126    2.0561979   -5.0270628 
C    -0.5194150    1.7251294   -4.2008829 
C    -0.4857274    2.1450491   -2.8511274 
C    -1.5777014    2.8898532   -2.3456855 
C    -2.6599016    3.2095508   -3.1703245 
H    -3.5285873    3.0431343   -5.1546085 
H    -1.6110835    1.7252553   -6.0709468 
H     0.3171868    1.1432304   -4.6041346 
H    -1.5884380    3.1994789   -1.2964852 
H    -3.5018795    3.7788138   -2.7639279 
C     3.3243066    3.0053076    3.8943911 
C     2.0761671    3.4011076    3.3838167 
C     1.6765514    2.9967628    2.1062605 
C     2.5286162    2.2039788    1.2980987 
C     3.7745700    1.7997686    1.8326358 
C     4.1680202    2.1969836    3.1159373 
H     3.6296837    3.3116294    4.8998812 
H     1.4052472    4.0147292    3.9928937 
H     0.6879859    3.2909448    1.7400497 
H     4.4415146    1.1753568    1.2271263 
H     5.1354229    1.8718281    3.5129572 
F    -0.3550603    0.3866095    3.0928653 
F     1.6052601   -4.1303464    2.3376738 
F    -4.3570646   -1.7800972   -0.3825778 
F    -0.0464565   -2.2754415   -2.6768951 
F     3.7044952   -2.0846989    2.6995404 
F     2.6292327   -1.3509117   -1.4052080 
F    -1.6678807    1.9695289    0.8437130 
F    -4.0185139    0.3531353   -2.3922257 
F     4.5380474   -1.0642455    5.0354992 
F     4.0712551   -3.3447391   -2.4757977 
F    -3.7271688    2.9832268    2.2184081 
F    -4.3946649    0.0482604   -5.0199986 
F     0.5317132    1.4345253    5.4339571 
F     3.0655662   -6.1299664    1.2274031 
F    -6.4215719   -0.7345372    1.0316153 
F    -0.4594970   -2.5762010   -5.3416775 
F     2.9836455    0.7121451    6.4115157 
F     4.3034187   -5.7413754   -1.1786619 
F    -6.1158109    1.6510358    2.3327524 
F    -2.6348929   -1.3966403   -6.5281987 
C    -0.6721138   -2.2696493    1.4729926 
C    -1.3970976   -2.4238214    0.1249646 
C     1.6022594   -0.9430894    2.8478372 
C     2.0283602   -2.6856798    0.4957825 
C    -2.9283799    0.0302670    0.1989823 
C    -2.0463605   -1.0109250   -2.4194699 
C     0.8365884   -0.0166840    3.5841063 
C     2.1808480   -3.9299596    1.1411042 
C    -4.1761202   -0.6222235    0.2736488 
C    -1.1522585   -1.7337316   -3.2342547 
C     2.8696661   -1.2738642    3.3657777 
C     2.6975874   -2.5130811   -0.7306748 
C    -2.8123754    1.2626236    0.8684711 
C    -3.1464096   -0.4122023   -3.0619277 
C     3.3249661   -0.7500522    4.5830733 
C     3.4601788   -3.5370277   -1.3086179 
C    -3.8763505    1.8164086    1.5931900 
C    -3.3612642   -0.5594021   -4.4392493 
C     1.2695074    0.5296024    4.7927660 
C     2.9384974   -4.9686752    0.5915734 
C    -5.2565971   -0.0945417    0.9870950 
C    -1.3383887   -1.8932716   -4.6099781 
C     2.5309354    0.1652538    5.2888768 
C     3.5809701   -4.7673330   -0.6434330 
C    -5.1020016    1.1351686    1.6519115 
C    -2.4554536   -1.2947212   -5.2161344 
H    -0.4967058   -3.2456035    1.9512214 
H    -1.2525678   -1.6417264    2.1708832 
H    -0.8221663   -3.0631224   -0.5667067 
H    -2.3976355   -2.8653681    0.2522710 
