81
Energy =
C     2.7478888    0.7897713   -0.2451363 
C     1.9894216    1.9574116    0.0578854 
C     1.3203235    2.0663109    1.3055482 
H     1.8019784    2.6917150   -0.7353726 
Pd    0.6133651    0.2547798    0.1934534 
P    -1.6284678    0.1617527    0.8124003 
P     0.1352068   -1.6076456   -1.1027893 
H     3.1871764    0.2428079    0.6034659 
H     1.7203776    1.4646971    2.1348826 
C     4.7334344    0.2056187   -4.0126871 
C     5.3263657   -0.2320864   -2.8187734 
C     4.6551717   -0.0703087   -1.6001982 
C     3.3913379    0.5602397   -1.5513910 
C     2.7972753    0.9828276   -2.7646278 
C     3.4624257    0.8063274   -3.9818298 
H     5.2504049    0.0644717   -4.9671575 
H     6.3091385   -0.7124959   -2.8378840 
H     5.1192295   -0.4194627   -0.6717091 
H     1.7973347    1.4324300   -2.7514273 
H     2.9871861    1.1299207   -4.9137865 
C    -1.2120306    5.2850033    2.6215523 
C    -0.8125337    4.2748592    3.5095555 
C     0.0016240    3.2284131    3.0609141 
C     0.4308071    3.1669008    1.7139558 
C    -0.0006342    4.1788069    0.8236135 
C    -0.8057309    5.2290012    1.2772302 
H    -1.8474354    6.1051939    2.9694077 
H    -1.1325751    4.3052157    4.5557173 
H     0.3183948    2.4459739    3.7582214 
H     0.3013174    4.1552933   -0.2284893 
H    -1.1238654    6.0095835    0.5780195 
F     2.8555199   -2.6470793   -1.0790038 
F    -0.8252736   -4.3208360   -2.1090971 
F    -4.3243926   -0.7869295    1.8665026 
F    -1.8614952    1.6997757   -1.6646937 
F    -0.4752190   -1.3210504   -4.2136602 
F     1.0143376   -2.2719160    1.7833690 
F     0.1641477   -0.0849241    3.3007649 
F    -3.1906506    2.0391652    2.9041541 
F     1.2491093   -1.8002966   -6.2329192 
F     0.8663227   -4.6271234    3.0832420 
F    -0.4598087   -1.0809568    5.7196237 
F    -4.3081337    4.4113870    2.3873020 
F     4.5642637   -3.1706913   -3.1333318 
F    -0.9390851   -6.6903580   -0.7867847 
F    -4.9323045   -1.7992832    4.3165436 
F    -3.0230179    4.0990059   -2.1637497 
F     3.7773559   -2.6995057   -5.7079510 
F    -0.0966119   -6.8478270    1.8083376 
F    -3.0034687   -1.9354879    6.2484335 
F    -4.2540565    5.4685420   -0.1298558 
C    -1.6415315   -1.3565842   -1.6069742 
C    -2.4747888   -1.0666758   -0.3475128 
C     1.1285198   -2.0076620   -2.5791620 
C     0.0769105   -3.2123325   -0.2047521 
C    -2.0515312   -0.4634620    2.4784229 
C    -2.5404258    1.7425023    0.6140749 
C     2.4397862   -2.4669022   -2.3464164 
C    -0.4075412   -4.3765077   -0.8339602 
C    -3.3574539   -0.8867064    2.7930250 
C    -2.5118009    2.3336211   -0.6630093 
C     0.7493021   -1.7845940   -3.9143320 
C     0.5170746   -3.3329637    1.1251120 
C    -1.0901877   -0.5197886    3.5034860 
C    -3.1614289    2.4804497    1.6392042 
C     1.6279400   -2.0328077   -4.9769676 
C     0.4556839   -4.5488999    1.8184566 
C    -1.3943484   -1.0291401    4.7729152 
C    -3.7566936    3.7246566    1.3884786 
C     3.3302641   -2.7391408   -3.3869639 
C    -0.4730709   -5.6077649   -0.1701670 
C    -3.6917276   -1.3995965    4.0502002 
C    -3.0961123    3.5709705   -0.9427025 
C     2.9250829   -2.4975836   -4.7094456 
C    -0.0369346   -5.6902038    1.1644278 
C    -2.7018697   -1.4610498    5.0478109 
C    -3.7279619    4.2705491    0.0977419 
H    -1.6577418   -0.5046572   -2.3012225 
H    -2.0218960   -2.2432298   -2.1379086 
H    -3.4777222   -0.6955345   -0.6106906 
H    -2.6092468   -1.9858997    0.2490413 
