83
Energy =
C    -0.0902818   -1.1858649   -2.8177733 
C     1.1118011   -0.4520997   -2.7398233 
C     2.1502496   -0.8439070   -1.8383577 
H     1.2003311    0.5022702   -3.2736103 
Pd    0.3034019   -0.3976849   -0.6837569 
P     1.1331348   -0.2863913    1.4846620 
P    -1.7467454    0.2880651    0.2147664 
H    -0.0749210   -2.2084571   -2.4080797 
H     2.2506814   -1.9206992   -1.6397668 
C    -3.4705189   -0.4562066   -5.3664253 
C    -2.4202644    0.4766774   -5.3297508 
C    -1.3099183    0.2586280   -4.5082156 
C    -1.2279662   -0.9021965   -3.7029501 
C    -2.2871746   -1.8389632   -3.7609811 
C    -3.3985836   -1.6177402   -4.5814181 
H    -4.3377790   -0.2809317   -6.0108957 
H    -2.4678088    1.3783753   -5.9486936 
H    -0.5024213    0.9973389   -4.4964254 
H    -2.2311299   -2.7480327   -3.1510255 
H    -4.2084875   -2.3535343   -4.6132862 
C     5.7569368    1.4503090   -1.3002430 
C     4.5529875    2.1035691   -1.6126889 
C     3.3745801    1.3678074   -1.7762760 
C     3.3763782   -0.0411692   -1.6436857 
C     4.5938604   -0.6846753   -1.3261399 
C     5.7719433    0.0540677   -1.1545733 
H     6.6779352    2.0272529   -1.1688160 
H     4.5309428    3.1932622   -1.7148363 
H     2.4360332    1.8948600   -1.9813569 
H     4.6179646   -1.7751370   -1.2258950 
H     6.7065939   -0.4629511   -0.9142992 
O     0.3574359    1.2205707    3.5975016 
O    -2.6314788    0.6695315    2.7328898 
C    -0.2309644    0.2957095    2.6644636 
C    -1.4407690    0.9490887    1.9696364 
C     1.6981692   -1.9446022    2.2272155 
C    -2.7079469    1.6746305   -0.6750857 
C     2.2278021    0.9968449    2.1296552 
C    -2.9972424   -0.8232687    0.9131276 
C     1.6105629    1.6333588    3.2309654 
C    -3.3167055   -0.4048719    2.2246960 
C     0.5713425   -2.9643057    1.9603321 
C    -1.6510457    2.5874424   -1.3299090 
C    -3.5965299    2.4674074    0.3030442 
C    -3.5948704    0.9968909   -1.7389988 
C     2.9901207   -2.3620379    1.4976954 
C     1.9719633   -1.7847067    3.7356182 
C     3.5272212    1.3695081    1.7396760 
C    -3.6751071   -1.9110559    0.3361559 
C     2.2705544    2.6399951    3.9482810 
C    -4.3126175   -1.0511577    2.9685842 
C    -4.6690746   -2.5665464    1.0747913 
C     4.1914974    2.3756682    2.4513231 
C    -4.9822047   -2.1317825    2.3771765 
C     3.5627960    3.0020545    3.5444955 
H    -0.6041125   -0.5661738    3.2432134 
H    -1.2976624    2.0410197    1.9618171 
H     0.8739209   -3.9542270    2.3462460 
H     3.7882214   -1.6085608    1.6125519 
H     2.8111864   -2.5224528    0.4222722 
H     3.3575092   -3.3121825    1.9254629 
H     2.7686727   -1.0455540    3.9250821 
H     2.3056372   -2.7570149    4.1414888 
H     1.0748958   -1.4810423    4.3013602 
H    -4.3893988    0.3916001   -1.2708629 
H    -4.0792978    1.7774214   -2.3526250 
H     0.3680947   -3.0652427    0.8783492 
H    -0.3736246   -2.6872287    2.4609072 
H    -2.1562888    3.4143160   -1.8608639 
H    -0.9718839    3.0338415   -0.5808281 
H    -1.0416737    2.0306367   -2.0636109 
H    -4.1818074    3.2035603   -0.2779705 
H    -3.0136968    3.0279526    1.0523318 
H    -4.3107710    1.8127012    0.8299052 
H    -3.0132722    0.3528093   -2.4152284 
H    -3.4305564   -2.2330771   -0.6812872 
H     4.0137402    0.8772313    0.8946495 
H    -4.5449641   -0.7108157    3.9812779 
H     1.7747257    3.1158724    4.7985290 
H    -5.2036187   -3.4162325    0.6397807 
H     5.2015225    2.6726271    2.1538998 
H     4.0898391    3.7885398    4.0944936 
H    -5.7600005   -2.6505317    2.9469448 
