83
Energy =
C    -0.1793047   -1.1885430   -2.6667020 
C     1.0939979   -0.5860544   -2.5590488 
C     2.0764233   -1.0765523   -1.6476204 
H     1.2845305    0.3599713   -3.0806099 
Pd    0.2288677   -0.4769235   -0.5298494 
P     1.0574806   -0.2232988    1.6243710 
P    -1.8574979    0.1885781    0.2930727 
H    -0.2776420   -2.2226741   -2.3004895 
H     2.0600002   -2.1540161   -1.4279653 
C    -3.3955707   -0.0022722   -5.2636767 
C    -3.4372516   -1.2265155   -4.5786484 
C    -2.3779228   -1.5982275   -3.7424062 
C    -1.2597808   -0.7502040   -3.5647305 
C    -1.2279767    0.4765723   -4.2693687 
C    -2.2835369    0.8429732   -5.1103219 
H    -4.2209614    0.2894862   -5.9207703 
H    -4.2937312   -1.8970279   -4.7038538 
H    -2.4078397   -2.5598122   -3.2176695 
H    -0.3764038    1.1553254   -4.1578415 
H    -2.2415174    1.7949915   -5.6492035 
C     5.9034386    0.8321562   -1.1261221 
C     5.7588588   -0.5478741   -0.9107630 
C     4.5088846   -1.1586239   -1.0731293 
C     3.3746697   -0.4011596   -1.4449872 
C     3.5326776    0.9917008   -1.6379313 
C     4.7848722    1.5978135   -1.4923471 
H     6.8822443    1.3080162   -1.0078615 
H     6.6264603   -1.1536227   -0.6294604 
H     4.4107352   -2.2400242   -0.9290717 
H     2.6628928    1.6116486   -1.8809080 
H     4.8848407    2.6769831   -1.6461996 
O    -0.0179999    2.0307502    2.5826516 
O    -2.2143690   -0.8205375    2.7682457 
C    -0.2878572    0.6186673    2.6712691 
C    -1.7091977    0.3923298    2.1824488 
C     1.6806579   -1.7143481    2.6118756 
C    -2.6477930    1.7805739   -0.3908230 
C     2.1168426    1.2217337    1.8947966 
C    -3.0949890   -1.1092669    0.5716824 
C     1.3162648    2.2891133    2.3600599 
C    -3.0604983   -1.5014532    1.9279254 
C     2.8540454   -2.3317565    1.8244948 
C    -1.4720879    2.6735125   -0.8434413 
C    -3.5001690    2.4995679    0.6716047 
C    -3.5356014    1.3818591   -1.5878292 
C     2.1479413   -1.2768418    4.0134105 
C     0.5092940   -2.7165251    2.6939836 
C     3.4782418    1.4387789    1.6232972 
C    -3.8995409   -1.8232134   -0.3359122 
C     1.8473646    3.5651983    2.5683445 
C    -3.8327592   -2.5680941    2.4022995 
C    -4.6821242   -2.8880762    0.1297709 
C     4.0238870    2.7115049    1.8425192 
C    -4.6444752   -3.2540173    1.4882200 
C     3.2116028    3.7622586    2.3037611 
H    -0.2091803    0.2978529    3.7277954 
H    -2.3354596    1.2342470    2.5247275 
H     3.2253876   -3.2179636    2.3699260 
H     1.3264099   -0.8538383    4.6163344 
H     2.9602642   -0.5326309    3.9590281 
H     2.5284529   -2.1630760    4.5530587 
H    -0.3390430   -2.3124262    3.2705079 
H     0.8575433   -3.6392700    3.1919772 
H     0.1421542   -2.9896807    1.6876372 
H    -4.4388609    0.8445954   -1.2545930 
H    -3.8608366    2.2991317   -2.1107592 
H     3.6956350   -1.6287021    1.7098838 
H     2.5336976   -2.6598290    0.8218868 
H    -1.8673076    3.6273337   -1.2368535 
H    -0.7938139    2.9033809   -0.0026557 
H    -0.8860785    2.1873609   -1.6435414 
H    -4.0331839    3.3361559    0.1843133 
H    -2.8831088    2.9292822    1.4788637 
H    -4.2611358    1.8309678    1.1118792 
H    -2.9975274    0.7564971   -2.3172061 
H    -3.9144909   -1.5471715   -1.3936760 
H     4.1075179    0.6302076    1.2408038 
H    -3.7954244   -2.8407843    3.4603998 
H     1.2074012    4.3704674    2.9387613 
H    -5.3242076   -3.4367646   -0.5658286 
H     5.0855821    2.8845919    1.6438210 
H     3.6476564    4.7529075    2.4683615 
H    -5.2596608   -4.0873513    1.8426055 
