83
Energy =
C    -0.2611768   -1.2864661   -2.6596314 
C     0.9761862   -0.6090612   -2.6353395 
C     2.0259850   -1.0230200   -1.7558656 
H     1.0901543    0.3266229   -3.1969044 
Pd    0.2342765   -0.4606104   -0.5573836 
P     1.1346807   -0.2736851    1.5758240 
P    -1.7930986    0.2527823    0.3473062 
H    -0.2871176   -2.2912036   -2.2084614 
H     2.0871166   -2.0974743   -1.5311443 
C    -3.6863500   -0.4751849   -5.1245901 
C    -3.6712296   -1.5733964   -4.2505608 
C    -2.5428126   -1.8246561   -3.4617321 
C    -1.4111003   -0.9779309   -3.5209021 
C    -1.4328800    0.1114580   -4.4236618 
C    -2.5590112    0.3593082   -5.2138796 
H    -4.5655394   -0.2783760   -5.7464103 
H    -4.5375201   -2.2405115   -4.1910174 
H    -2.5311630   -2.6857320   -2.7842362 
H    -0.5636747    0.7707566   -4.5137206 
H    -2.5582965    1.2052212   -5.9087959 
C     5.7431939    1.1279421   -1.4065416 
C     4.5583027    1.8223538   -1.6996734 
C     3.3440124    1.1346121   -1.7959100 
C     3.2893381   -0.2684464   -1.6199600 
C     4.4888142   -0.9534328   -1.3196418 
C     5.7024308   -0.2619909   -1.2113769 
H     6.6927634    1.6670697   -1.3282886 
H     4.5783433    2.9082317   -1.8367038 
H     2.4222911    1.6963428   -1.9844946 
H     4.4698826   -2.0405453   -1.1869716 
H     6.6220043   -0.8118924   -0.9859085 
O     0.1530036    1.8507015    2.9156743 
O    -2.1843690   -0.8575052    2.7614355 
C    -0.1772534    0.4607022    2.7466413 
C    -1.6113957    0.3568709    2.2398023 
C     1.7862297   -1.8273845    2.4457844 
C    -2.4664812    1.9320692   -0.2114797 
C     2.2031341    1.1445293    1.9197416 
C    -3.1419838   -0.9367441    0.5800496 
C     1.4589353    2.1349554    2.5987550 
C    -3.1147501   -1.4063673    1.9115616 
C     2.2660953   -1.4873372    3.8698768 
C    -2.6315338    1.8581191   -1.7426945 
C    -1.3913589    2.9796389    0.1525019 
C    -3.8106985    2.2405916    0.4718477 
C     0.6192515   -2.8381340    2.4648527 
C     2.9584746   -2.3759053    1.6081480 
C     3.5326300    1.4051547    1.5435088 
C    -4.0673646   -1.4786102   -0.3294211 
C     2.0200232    3.3751904    2.9221318 
C    -3.9880737   -2.4067197    2.3525377 
C    -4.9542129   -2.4735292    0.1047574 
C     4.1057743    2.6408665    1.8711198 
C    -4.9053062   -2.9354683    1.4329710 
C     3.3510487    3.6145568    2.5501976 
H    -0.1227986   -0.0398416    3.7314357 
H    -2.1858040    1.2198663    2.6278270 
H     2.6755625   -2.4027821    4.3342378 
H     0.2688315   -3.0637985    1.4409141 
H    -0.2414872   -2.4667207    3.0469270 
H     0.9629896   -3.7822470    2.9243372 
H     2.6355723   -2.6312609    0.5858582 
H     3.3404332   -3.2969774    2.0839399 
H     3.7935251   -1.6582196    1.5431482 
H    -3.7207321    2.2931649    1.5705852 
H    -4.1699672    3.2259831    0.1232204 
H     1.4466096   -1.1312803    4.5171328 
H     3.0610799   -0.7224944    3.8596009 
H    -3.0164084    2.8247051   -2.1147339 
H    -1.6647325    1.6622891   -2.2349362 
H    -3.3395301    1.0716120   -2.0560261 
H    -1.6978665    3.9643538   -0.2437727 
H    -0.4125430    2.7219802   -0.2928920 
H    -1.2561121    3.0763784    1.2427854 
H    -4.5770365    1.4876376    0.2222820 
H    -4.0987673   -1.1236502   -1.3628797 
H     4.1141144    0.6563008    0.9987899 
H    -3.9506086   -2.7454440    3.3913944 
H     1.4260336    4.1205863    3.4576680 
H    -5.6882976   -2.8898523   -0.5917418 
H     5.1425710    2.8465864    1.5894353 
H     3.8075906    4.5779194    2.7995376 
H    -5.6008458   -3.7141215    1.7622015 
