83
Energy =
C    -0.0685257   -1.2054688   -2.6635888 
C     1.1853823   -0.5701445   -2.5210954 
C     2.1531037   -1.0335089   -1.5803481 
H     1.3661351    0.3799349   -3.0387298 
Pd    0.2574950   -0.4815747   -0.5190733 
P     1.0111290   -0.1996084    1.6591608 
P    -1.8684149    0.1400774    0.2335932 
H    -0.1503984   -2.2413258   -2.2982096 
H     2.1582702   -2.1106666   -1.3585790 
C    -3.2409005   -0.1067042   -5.3517020 
C    -3.2738222   -1.3270412   -4.6592310 
C    -2.2287372   -1.6700870   -3.7933491 
C    -1.1343458   -0.7966138   -3.5926776 
C    -1.1107084    0.4257718   -4.3051721 
C    -2.1516960    0.7634644   -5.1758451 
H    -4.0549196    0.1624686   -6.0322067 
H    -4.1119132   -2.0170270   -4.8019204 
H    -2.2515309   -2.6285634   -3.2626084 
H    -0.2767281    1.1232790   -4.1774935 
H    -2.1160677    1.7124342   -5.7205242 
C     5.9103507    0.9772536   -0.9462140 
C     5.7954595   -0.4055169   -0.7304644 
C     4.5677905   -1.0496076   -0.9298913 
C     3.4262645   -0.3235626   -1.3401364 
C     3.5536039    1.0724514   -1.5333227 
C     4.7841063    1.7119595   -1.3503926 
H     6.8719924    1.4792364   -0.7987721 
H     6.6693773   -0.9872734   -0.4196199 
H     4.4936694   -2.1327570   -0.7846771 
H     2.6760242    1.6684835   -1.8061398 
H     4.8603468    2.7929758   -1.5048251 
O    -0.1562473    2.0243692    2.5826670 
O    -2.2754293   -0.8892734    2.6902283 
C    -0.3894877    0.6052142    2.6622923 
C    -1.7870698    0.3408108    2.1270474 
C     1.6469004   -1.6695981    2.6699627 
C    -2.6564772    1.7215276   -0.4775140 
C     2.0195630    1.2760658    1.9568712 
C    -3.0932204   -1.1785427    0.4695832 
C     1.1758439    2.3203746    2.3976279 
C    -3.0874720   -1.5794951    1.8238480 
C     0.5039340   -2.7061919    2.7173716 
C    -3.5388452    2.4391737    0.5610301 
C    -3.5119282    1.3098875   -1.6935636 
C    -1.4784254    2.6228807   -0.9071519 
C     2.8624374   -2.2530935    1.9216321 
C     2.0562872   -1.2158716    4.0843611 
C     3.3812934    1.5319948    1.7233541 
C    -3.8625412   -1.8992890   -0.4627970 
C     1.6641411    3.6113747    2.6187741 
C    -3.8532298   -2.6621950    2.2712864 
C    -4.6388343   -2.9802282   -0.0241806 
C     3.8837989    2.8200808    1.9555475 
C    -4.6296067   -3.3553178    1.3321890 
C     3.0290266    3.8474025    2.3922127 
H    -0.3363358    0.2856969    3.7207494 
H    -2.4488501    1.1624098    2.4516041 
H     0.8627486   -3.6162738    3.2309144 
H     3.6867069   -1.5261566    1.8330156 
H     2.5840516   -2.5907571    0.9097180 
H     3.2414176   -3.1279480    2.4799580 
H     2.8466342   -0.4470306    4.0536241 
H     2.4468837   -2.0890924    4.6378203 
H     1.2036383   -0.8174898    4.6602454 
H    -0.8698446    2.1383630   -1.6911797 
H    -1.8730885    3.5711925   -1.3141926 
H     0.1793207   -2.9936110    1.7004559 
H    -0.3752816   -2.3258731    3.2630717 
H    -4.0625084    3.2724783    0.0582154 
H    -4.3083916    1.7685506    0.9829175 
H    -2.9438696    2.8725635    1.3827700 
H    -3.8332241    2.2222212   -2.2274710 
H    -4.4176860    0.7651736   -1.3798441 
H    -2.9506829    0.6872392   -2.4077771 
H    -0.8218550    2.8629552   -0.0521565 
H    -3.8556454   -1.6162387   -1.5186945 
H     4.0439048    0.7412685    1.3603817 
H    -3.8385912   -2.9412241    3.3282970 
H     0.9911501    4.3982890    2.9696309 
H    -5.2539428   -3.5342682   -0.7396364 
H     4.9452338    3.0235136    1.7864593 
H     3.4316062    4.8503503    2.5672661 
H    -5.2397024   -4.2011013    1.6652132 
