83
Energy =
C     2.1057710    0.5141695   -2.0252290 
C     1.0838633   -0.2285790   -2.6533855 
C    -0.2215959    0.3261671   -2.8402006 
H     1.2490521   -1.2891575   -2.8808560 
Pd    0.2513039    0.2626845   -0.6644452 
P    -1.8442379    0.5974838    0.2798742 
P     1.0712699   -0.0001224    1.5026332 
H     1.9555955    1.6031241   -1.9517742 
H    -0.2778823    1.4123837   -2.9999933 
C     6.1694123   -0.6643881   -1.2742390 
C     5.2825022   -1.5820631   -1.8627924 
C     3.9573721   -1.2181166   -2.1191418 
C     3.4876176    0.0747285   -1.7875035 
C     4.3991238    0.9960457   -1.2204733 
C     5.7246361    0.6295262   -0.9608078 
H     7.2067629   -0.9528891   -1.0767784 
H     5.6298869   -2.5859231   -2.1273676 
H     3.2852902   -1.9470549   -2.5831430 
H     4.0559108    2.0086175   -0.9805737 
H     6.4155367    1.3569292   -0.5219211 
C    -3.4863188   -1.9335695   -4.5131794 
C    -2.5026717   -2.5853079   -3.7517586 
C    -1.4499774   -1.8564966   -3.1884144 
C    -1.3458189   -0.4597217   -3.3898669 
C    -2.3465686    0.1840080   -4.1529878 
C    -3.4070864   -0.5450537   -4.7066035 
H    -4.3115193   -2.5040710   -4.9514458 
H    -2.5661274   -3.6648758   -3.5820875 
H    -0.7130401   -2.3730319   -2.5632798 
H    -2.2808446    1.2635359   -4.3265540 
H    -4.1679528   -0.0294292   -5.3016102 
O    -2.2593165   -1.0014865    2.4095766 
O    -0.0958305    1.7450129    3.1812235 
C    -1.7346576    0.3149477    2.1608980 
C    -0.3247435    0.3943735    2.7359128 
C    -2.6997849    2.2752933    0.0618226 
C     1.7407149   -1.7012162    1.9960831 
C    -3.0452496   -0.7505861    0.1707287 
C     2.0588334    1.3226106    2.2528659 
C    -3.0607654   -1.4598918    1.3924169 
C     1.2186773    2.1253920    3.0552075 
C    -4.0445094    2.2961586    0.8135661 
C     0.5803840   -2.7024453    1.8034609 
C     2.2453936   -1.6929525    3.4501923 
C     2.8862075   -2.0287756    1.0175971 
C    -1.7237744    3.3376393    0.6122109 
C    -2.9317608    2.4902291   -1.4470121 
C    -3.8231346   -1.2031681   -0.9094966 
C     3.4075515    1.6815951    2.0818368 
C    -3.8479618   -2.6040648    1.5615852 
C     1.6957765    3.2789203    3.6876946 
C     3.8984009    2.8291405    2.7196837 
C    -4.6221465   -2.3424017   -0.7462781 
C     3.0436815    3.6213274    3.5083642 
C    -4.6274861   -3.0350111    0.4780524 
H    -2.3654458    1.0548958    2.6884150 
H    -0.2615136   -0.2852833    3.6072350 
H    -4.5287377    3.2753935    0.6468032 
H    -0.7526892    3.3001693    0.0852169 
H    -1.5326190    3.2063794    1.6909422 
H    -2.1566441    4.3426418    0.4598726 
H    -1.9795273    2.4934106   -2.0021236 
H    -3.4176774    3.4705655   -1.6004090 
H    -3.5879454    1.7168154   -1.8804542 
H     3.7101293   -1.2961806    1.0682420 
H     3.3037600   -3.0217218    1.2639206 
H    -3.9206249    2.1741119    1.9030585 
H    -4.7260987    1.5089452    0.4493530 
H     0.9524069   -3.7262795    1.9879109 
H    -0.2549665   -2.5112987    2.4976929 
H     0.1841416   -2.6638679    0.7716914 
H     2.6298039   -2.6986647    3.6999011 
H     1.4434341   -1.4591745    4.1716213 
H     3.0633047   -0.9669812    3.5935305 
H     2.5206369   -2.0591294   -0.0217779 
H     4.0678249    1.0686857    1.4624785 
H    -3.8049825   -0.6769938   -1.8679352 
H     1.0252550    3.8776065    4.3100556 
H    -3.8504488   -3.1286686    2.5207724 
H     4.9504237    3.1075216    2.6054971 
H    -5.2370997   -2.6943182   -1.5796913 
H    -5.2536720   -3.9255108    0.5946500 
H     3.4358065    4.5167375    4.0012434 
