83
Energy =
C     2.3765041   -1.4681835   -0.8652318 
C     2.8202605   -0.3541565   -0.1182038 
C     2.5473559   -0.2351109    1.2773790 
H     3.2597769    0.5021428   -0.6443532 
Pd    0.6258087   -0.3834163    0.1338612 
P    -0.8858430    0.4841774    1.6681347 
P    -1.1637693   -0.6233894   -1.3542029 
H     2.1272724   -2.3822290   -0.3034030 
H     2.4688245   -1.1693661    1.8524146 
C     2.9851412   -2.1758337   -5.0635372 
C     2.5125066   -3.1952866   -4.2226472 
C     2.3262631   -2.9478284   -2.8574187 
C     2.5986039   -1.6741441   -2.3055466 
C     3.0833716   -0.6592348   -3.1643864 
C     3.2758248   -0.9101697   -4.5265856 
H     3.1346073   -2.3673330   -6.1308502 
H     2.2972646   -4.1881945   -4.6307655 
H     1.9680394   -3.7489018   -2.2010656 
H     3.3062541    0.3374066   -2.7703158 
H     3.6527472   -0.1137277   -5.1762913 
C     3.6967958    3.2257290    3.5718583 
C     3.5943767    1.9657818    4.1832141 
C     3.2108042    0.8476347    3.4318474 
C     2.9120399    0.9668472    2.0552569 
C     3.0000611    2.2469859    1.4588855 
C     3.3998676    3.3598717    2.2060467 
H     4.0048176    4.0979654    4.1573489 
H     3.8280673    1.8509487    5.2467230 
H     3.1589560   -0.1359085    3.9109939 
H     2.7304668    2.3786646    0.4052822 
H     3.4612749    4.3410399    1.7246680 
O    -3.3800143   -1.3566088   -0.0015794 
O    -2.4933940    2.1234363    0.2956759 
C    -2.7631809   -0.1330100   -0.4401301 
C    -2.5367021    0.7630229    0.7669418 
C    -1.1324167    0.3384944   -2.9974137 
C    -1.2789818   -0.4366937    3.2757341 
C    -1.8449102   -2.2914973   -1.5679996 
C    -0.7831481    2.2710928    1.9505161 
C    -2.9682231   -2.4475290   -0.7265837 
C    -1.6932089    2.9189013    1.0850605 
C    -0.2933213    1.6063567   -2.7272329 
C     0.0366846   -0.5646010    4.0697111 
C    -1.7950666   -1.8350064    2.8733357 
C    -2.3273238    0.3366218    4.0984033 
C    -0.4548630   -0.5628132   -4.0502609 
C    -2.5499135    0.7127150   -3.4699473 
C    -1.3512985   -3.4017125   -2.2782845 
C     0.0775512    3.0361397    2.7556165 
C    -3.6259062   -3.6769995   -0.6029446 
C    -1.7684214    4.3128660    1.0129693 
C     0.0002607    4.4349914    2.7010699 
C    -2.0063277   -4.6353062   -2.1672048 
C    -0.9100032    5.0623047    1.8323804 
C    -3.1330882   -4.7665991   -1.3341957 
H    -3.4543826    0.3796687   -1.1311693 
H    -3.3828655    0.6478525    1.4712580 
H    -0.2512693    2.2203288   -3.6449191 
H    -1.1055286   -1.4069385   -4.3325787 
H     0.5116829   -0.9589038   -3.7015569 
H    -0.2618572    0.0346983   -4.9593014 
H    -3.2108608   -0.1700689   -3.5309357 
H    -2.4772173    1.1456892   -4.4841973 
H    -3.0180852    1.4730000   -2.8219483 
H    -3.2924788    0.4245003    3.5712330 
H    -2.5157338   -0.2125447    5.0387892 
H     0.7405817    1.3468104   -2.4385526 
H    -0.7377168    2.2200678   -1.9236507 
H    -0.1616909   -1.1167664    5.0059266 
H     0.7948117   -1.1256343    3.4988960 
H     0.4584488    0.4176719    4.3400329 
H    -1.9581047   -2.4362586    3.7857588 
H    -1.0618447   -2.3677871    2.2401926 
H    -2.7479129   -1.7796436    2.3216245 
H    -1.9768824    1.3501574    4.3565390 
H     0.8038898    2.5519404    3.4145982 
H    -0.4662297   -3.3006340   -2.9122985 
H    -2.4890533    4.7879870    0.3419554 
H    -4.5011701   -3.7649722    0.0463342 
H     0.6598445    5.0365006    3.3333392 
H    -1.6396763   -5.4989910   -2.7299904 
H    -3.6382614   -5.7344854   -1.2537709 
H    -0.9595622    6.1554073    1.7956451 
