83
Energy =
C     0.7087032    0.5816435   -2.8085535 
C     1.9009735    0.9451930   -2.1082797 
C     2.6871141   -0.0329400   -1.4643117 
H     2.1284370    2.0079327   -1.9589969 
Pd    0.5183902   -0.0109992   -0.6736746 
P     0.5986207   -0.3594177    1.6403668 
P    -1.7572193   -0.4600280   -0.5226408 
H     0.6996607   -0.4081131   -3.2873326 
H     2.5303844   -1.0787763   -1.7732261 
C    -1.9241625    3.4906559   -4.5883190 
C    -1.2027150    3.8180199   -3.4280283 
C    -0.3558569    2.8751047   -2.8360189 
C    -0.2008153    1.5862333   -3.3995506 
C    -0.9343740    1.2700077   -4.5653466 
C    -1.7890295    2.2122509   -5.1524773 
H    -2.5897296    4.2277926   -5.0487741 
H    -1.3125679    4.8085894   -2.9752333 
H     0.1701556    3.1319560   -1.9097418 
H    -0.8230131    0.2804608   -5.0214491 
H    -2.3452119    1.9503856   -6.0584028 
C     6.3410667    0.5377898    0.7213592 
C     5.8654154   -0.7524376    0.4392816 
C     4.6755737   -0.9174339   -0.2779146 
C     3.9331664    0.2023408   -0.7224689 
C     4.4314112    1.4964254   -0.4402959 
C     5.6223558    1.6593963    0.2740972 
H     7.2723195    0.6703338    1.2811562 
H     6.4262163   -1.6303544    0.7755482 
H     4.3073781   -1.9257329   -0.5001571 
H     3.8886373    2.3838360   -0.7807020 
H     5.9957924    2.6671409    0.4823522 
O    -1.2078380   -1.2164045    3.4493392 
O    -3.4880051   -0.1609592    1.5388817 
C    -1.1789772   -0.3327008    2.3105644 
C    -2.2248177   -0.8016487    1.2814698 
C     1.5484398    0.9008540    2.7118858 
C    -2.3471569   -2.0160982   -1.4449450 
C     0.8166745   -1.9694751    2.4446878 
C    -3.0807349    0.7647174   -0.6244389 
C    -0.2344187   -2.1796381    3.3658469 
C    -3.8526743    0.7240293    0.5594393 
C     3.0161450    0.4311206    2.7668273 
C    -1.3830335   -3.1583005   -1.0619285 
C    -2.2624768   -1.7195531   -2.9549409 
C    -3.8006878   -2.3463340   -1.0523691 
C     1.4248611    2.2615545    1.9958651 
C     0.9799813    0.9726922    4.1424538 
C     1.8477134   -2.9172142    2.3244310 
C    -3.4394595    1.6369865   -1.6683296 
C    -0.2674230   -3.3198641    4.1791895 
C    -4.9770909    1.5447368    0.7188334 
C    -4.5608591    2.4608680   -1.5146464 
C     1.8198791   -4.0632008    3.1301192 
C    -5.3181469    2.4109888   -0.3287065 
C     0.7706471   -4.2533919    4.0499747 
H    -1.4541509    0.6741911    2.6618524 
H    -2.3689242   -1.8862110    1.4217425 
H     3.6198072    1.1992158    3.2826251 
H     0.3711917    2.5811355    1.8989802 
H     1.8709362    2.2235574    0.9862554 
H     1.9587414    3.0343114    2.5778373 
H    -0.0500165    1.3645013    4.1747221 
H     0.9983675   -0.0114983    4.6398964 
H     1.6128834    1.6594495    4.7339941 
H    -4.4867262   -1.5233404   -1.3152395 
H    -4.1225281   -3.2476459   -1.6052213 
H     3.4439859    0.2875113    1.7634826 
H     3.1133219   -0.5118437    3.3308597 
H    -1.6695740   -4.0771107   -1.6043608 
H    -0.3396987   -2.9117788   -1.3318496 
H    -1.4111306   -3.3877050    0.0182865 
H    -2.6253334   -2.5979267   -3.5185572 
H    -1.2246474   -1.5223369   -3.2684232 
H    -2.8861595   -0.8545159   -3.2390390 
H    -3.9126761   -2.5611887    0.0238791 
H    -2.8524916    1.6686476   -2.5889879 
H     2.6640103   -2.7531311    1.6134755 
H    -5.5607659    1.4941868    1.6418787 
H    -1.0889745   -3.4622819    4.8863901 
H    -4.8457023    3.1436539   -2.3205347 
H     2.6140821   -4.8109451    3.0460188 
H     0.7573827   -5.1520192    4.6752966 
H    -6.1928289    3.0600973   -0.2170291 
