83
Energy =
C     0.7268508    0.3683315   -2.7489033 
C     1.9019408    0.7413595   -2.0234204 
C     2.6507902   -0.2186955   -1.3105288 
H     2.1436351    1.8058610   -1.9125917 
Pd    0.4543575   -0.1223173   -0.5925226 
P     0.5143797   -0.4533349    1.7153924 
P    -1.8398667   -0.4679885   -0.4790762 
H     0.7154283   -0.6411510   -3.1842151 
H     2.4742211   -1.2760836   -1.5646597 
C    -1.7770786    3.2436910   -4.7555860 
C    -1.0927817    3.6090088   -3.5849769 
C    -0.2930305    2.6763933   -2.9161252 
C    -0.1435849    1.3602409   -3.4137393 
C    -0.8427553    1.0048992   -4.5897998 
C    -1.6531770    1.9361312   -5.2521022 
H    -2.4054356    3.9730372   -5.2768451 
H    -1.1970069    4.6213660   -3.1818570 
H     0.2016905    2.9651238   -1.9820405 
H    -0.7348152   -0.0066327   -4.9959100 
H    -2.1805258    1.6437506   -6.1660170 
C     6.2458415    0.3718983    0.9682182 
C     5.6162918    1.4787838    0.3736522 
C     4.4483305    1.3085540   -0.3753434 
C     3.8804132    0.0235925   -0.5433636 
C     4.5410025   -1.0843478    0.0373449 
C     5.7079334   -0.9123731    0.7905371 
H     7.1606612    0.5095393    1.5534529 
H     6.0432047    2.4798475    0.4921605 
H     3.9774420    2.1840154   -0.8337339 
H     4.1265827   -2.0885796   -0.1055086 
H     6.2049312   -1.7823080    1.2324168 
O    -1.1664477   -2.4242462    2.4325475 
O    -2.9117037    0.6249697    1.7388507 
C    -1.2167353   -0.9909126    2.2989332 
C    -2.3552077   -0.6424465    1.3467712 
C     1.0062754    1.0115921    2.8099891 
C    -2.5965019   -1.9598892   -1.3714525 
C     1.1794345   -2.0045264    2.3786698 
C    -2.9187139    0.9769375   -0.6210055 
C     0.1101163   -2.8896770    2.6377126 
C    -3.3255314    1.3819496    0.6699385 
C     2.4161365    1.4468025    2.3630616 
C    -1.8678843   -3.2085333   -0.8293285 
C    -2.3230147   -1.7917679   -2.8792864 
C    -4.1136320   -2.0307187   -1.1121422 
C    -0.0097504    2.1379402    2.5189060 
C     0.9997626    0.6137935    4.2968193 
C     2.5034628   -2.4417927    2.5603215 
C    -3.2897675    1.7407261   -1.7416734 
C     0.3346887   -4.2013993    3.0703041 
C    -4.1065447    2.5265417    0.8631457 
C    -4.0801773    2.8830371   -1.5588279 
C     2.7394274   -3.7504050    3.0036742 
C    -4.4783047    3.2703299   -0.2664477 
C     1.6609630   -4.6208161    3.2473687 
H    -1.4366082   -0.5464894    3.2884622 
H    -3.1367801   -1.4193183    1.4431005 
H     2.7421697    2.3086187    2.9729699 
H    -1.0308786    1.8712685    2.8389075 
H    -0.0410333    2.3812495    1.4406192 
H     0.2943798    3.0487087    3.0654890 
H     0.0007809    0.2962382    4.6418761 
H     1.7136440   -0.2011428    4.5036120 
H     1.2938759    1.4907723    4.9018237 
H    -4.6287191   -1.1190954   -1.4593748 
H    -4.5282806   -2.8925661   -1.6658991 
H     2.4166137    1.7565576    1.3051937 
H     3.1661174    0.6462891    2.4845425 
H    -2.2380033   -4.1042339   -1.3597380 
H    -0.7770674   -3.1391503   -0.9955974 
H    -2.0407439   -3.3533414    0.2506993 
H    -2.7424716   -2.6591851   -3.4200008 
H    -1.2416083   -1.7526848   -3.0880801 
H    -2.7923808   -0.8808318   -3.2873103 
H    -4.3521876   -2.1819588   -0.0457067 
H    -2.9645826    1.4518998   -2.7448816 
H     3.3399696   -1.7661126    2.3631607 
H    -4.4168536    2.8122940    1.8717652 
H    -0.5123363   -4.8628738    3.2710762 
H    -4.3802506    3.4764591   -2.4274133 
H     3.7658866   -4.0945364    3.1624500 
H     1.8551755   -5.6418306    3.5912622 
H    -5.0940478    4.1658947   -0.1341660 
