105
Energy =
C    -2.0166529    1.4724516   -0.5097614 
C    -2.5265560    0.4394686    0.3376773 
C    -1.9627945    0.1586780    1.5971843 
H    -3.2983071   -0.2312121   -0.0605318 
Pd   -0.4023983    0.0071065   -0.1295761 
P     0.8748457   -1.8702910    0.5187563 
P     1.1192503    0.9669457   -1.6489324 
H    -1.6060009    2.3737555   -0.0343450 
H    -1.2582471    0.8899626    2.0233414 
C    -3.5273429    2.0014512   -4.5109864 
C    -3.1644809    3.1115766   -3.7351474 
C    -2.6722550    2.9345983   -2.4361383 
C    -2.5319515    1.6433742   -1.8858502 
C    -2.9086097    0.5313415   -2.6772326 
C    -3.4003098    0.7086271   -3.9750094 
H    -3.9088361    2.1398516   -5.5278232 
H    -3.2594536    4.1229104   -4.1430129 
H    -2.3884383    3.8061156   -1.8391612 
H    -2.7899411   -0.4831695   -2.2775630 
H    -3.6818980   -0.1638795   -4.5742590 
C    -3.4540558   -2.6410240    4.4903231 
C    -2.2291027   -1.9868063    4.6925166 
C    -1.7489900   -1.0892690    3.7346045 
C    -2.4748745   -0.8356318    2.5466255 
C    -3.7055291   -1.5088410    2.3551818 
C    -4.1911054   -2.3952519    3.3203290 
H    -3.8367359   -3.3362993    5.2444015 
H    -1.6489726   -2.1755657    5.6011129 
H    -0.8022533   -0.5654395    3.9018419 
H    -4.3046013   -1.3164045    1.4596816 
H    -5.1530810   -2.8941007    3.1639787 
O     0.8052148    1.9491879    3.0092773 
O     1.8843299    3.1857050    1.3973752 
N     2.1658938    0.9117172    1.5529559 
C     3.1665983    0.8141064    0.4672704 
C     2.4737287   -1.3953987    1.3506534 
C     3.4661810   -0.7079338    0.3871428 
C     2.1533871   -0.2986639    2.3794990 
C     2.7429864    1.4657556   -0.8586476 
C     1.6407127    2.1196544    1.9545482 
C     1.3403542   -2.9859634   -0.8635843 
C     0.1020729   -3.0591721    1.6942635 
C     1.4762652   -0.1149896   -3.0863454 
C     0.6588048    2.5928422   -2.4011198 
C     0.2218331    3.1270787    3.7195207 
C     0.4620267   -3.0948889   -1.9587921 
C     0.7121245   -3.5034194    2.8840071 
C     2.4938992   -3.7958193   -0.8166878 
C    -1.1567573   -3.5830299    1.3320844 
C     2.7436008   -0.6481923   -3.3843930 
C     0.4900161    3.6846997   -1.5198269 
C     0.3820833   -0.4340599   -3.9221109 
C     0.5148850    2.7989091   -3.7855640 
C    -0.7071895    3.9011205    2.7743629 
C    -0.5714950    2.4676713    4.8519591 
C     1.3582578    3.9970299    4.2704728 
C     0.7273124   -4.0066127   -2.9886113 
C     0.0860571   -4.4748037    3.6786472 
C     2.7664748   -4.6906659   -1.8595869 
C    -1.7745073   -4.5563668    2.1236038 
C     1.8815788   -4.8011531   -2.9430867 
C    -1.1525290   -5.0073699    3.2981029 
C     2.9155304   -1.4798619   -4.5012761 
C     0.1950051    4.9584820   -2.0211578 
C     0.5646761   -1.2391859   -5.0517834 
C     0.2049471    4.0755708   -4.2789178 
C     1.8322255   -1.7677429   -5.3423148 
C     0.0461188    5.1573978   -3.4028943 
H     4.0807896    1.3562309    0.7796647 
H     2.9192856   -2.2871962    1.8182220 
H     3.3786171   -1.0920223   -0.6424844 
H     4.4976137   -0.9116021    0.7185342 
H     2.9314516   -0.2545109    3.1688323 
H     1.1764165   -0.4202452    2.8697068 
H     3.5459102    1.3282498   -1.6039951 
H     2.6469282    2.5482664   -0.6914967 
H    -0.4265720   -2.4549875   -2.0045189 
H     1.6801330   -3.1083275    3.2056802 
H     3.1807332   -3.7416373    0.0343261 
H    -1.6511238   -3.2278668    0.4199404 
H     3.6109571   -0.4196540   -2.7575921 
H     0.6251391    3.5525556   -0.4402443 
H    -0.6133523   -0.0391875   -3.6903109 
H     0.6527781    1.9743655   -4.4895946 
H    -0.1412988    4.3642972    1.9531075 
H    -1.4799164    3.2328161    2.3563435 
H    -1.2207258    4.6948524    3.3430760 
H     0.0907398    1.8434065    5.4747079 
H    -1.3807289    1.8343450    4.4515709 
H    -1.0243805    3.2437368    5.4908662 
H     2.0310383    3.3904541    4.9004977 
H     1.9389401    4.4536070    3.4552533 
H     0.9322216    4.8003545    4.8951329 
H     0.0378920   -4.0851031   -3.8347406 
H     0.5729241   -4.8159027    4.5981955 
H     3.6671448   -5.3121040   -1.8197764 
H    -2.7499915   -4.9558292    1.8297555 
H     2.0934479   -5.5071426   -3.7526672 
H    -1.6381513   -5.7668982    3.9190457 
H     3.9048695   -1.8957861   -4.7167641 
H     0.0832049    5.7979186   -1.3267673 
H    -0.2885870   -1.4619717   -5.7011028 
H     0.0955050    4.2207336   -5.3586235 
H     1.9739342   -2.4080165   -6.2189557 
H    -0.1868114    6.1531372   -3.7940966 
