105
Energy =
C    -2.2432846   -2.7002564   -1.2081235 
C    -2.7516444   -1.4576221   -1.6714108 
C    -2.1390741   -0.7888714   -2.7630014 
H    -3.5469458   -0.9502528   -1.1112945 
Pd   -0.6748489   -1.0661580   -1.0448366 
P     0.3710021   -2.0129316    0.8173526 
P     0.6969781    0.7771368   -1.5733006 
H    -1.6620893   -3.2875235   -1.9343541 
H    -1.5667347   -1.4087803   -3.4701726 
C    -3.8874381   -5.1201914    1.9402031 
C    -2.9413313   -5.6477613    1.0497332 
C    -2.3984560   -4.8389207    0.0444637 
C    -2.7923060   -3.4876820   -0.0928067 
C    -3.7274647   -2.9631887    0.8299278 
C    -4.2727436   -3.7735933    1.8289750 
H    -4.3204088   -5.7521316    2.7224056 
H    -2.6315596   -6.6947089    1.1313000 
H    -1.6676985   -5.2588941   -0.6549500 
H    -4.0335280   -1.9143741    0.7681415 
H    -4.9993080   -3.3521520    2.5305586 
C    -3.5042491    2.9257168   -4.4454406 
C    -3.6443545    2.6972827   -3.0659316 
C    -3.2019952    1.4964438   -2.5037207 
C    -2.5972813    0.5024590   -3.3067073 
C    -2.4529752    0.7502810   -4.6890874 
C    -2.9112300    1.9460067   -5.2544000 
H    -3.8546507    3.8653603   -4.8847910 
H    -4.0994103    3.4604860   -2.4261633 
H    -3.3136682    1.3355426   -1.4272762 
H    -1.9728632   -0.0025336   -5.3229571 
H    -2.7930414    2.1168434   -6.3291379 
O     2.2762116    2.8612902    2.5842425 
O     3.6995006    3.0547687    0.7757997 
N     2.4841871    1.1540111    1.1511119 
C     3.1220498    0.4199962    0.0580667 
C     1.8450714   -1.1098269    1.5360269 
C     3.0049533   -1.0522188    0.5046817 
C     1.5497643    0.3574609    1.9429253 
C     2.5499687    0.7478862   -1.3357036 
C     2.8915506    2.4342267    1.4582976 
C     1.1040149   -3.6674007    0.4943903 
C    -0.7806814   -2.1685987    2.2431096 
C     0.6693936    1.1544389   -3.3769076 
C     0.1356300    2.2954713   -0.7116489 
C     2.7677816    4.0571804    3.3198064 
C     1.8037052   -4.3828298    1.4915024 
C    -1.5255289   -1.0219772    2.6014774 
C     1.0467759   -4.1966686   -0.8105673 
C    -0.9566566   -3.3547663    2.9815000 
C     1.0430607    0.1116680   -4.2527607 
C     0.8182212    3.5245703   -0.8328601 
C     0.3222811    2.4096375   -3.9067145 
C    -1.0320435    2.2309927    0.0742249 
C     2.5487840    5.3222808    2.4822614 
C     1.8764989    4.0575616    4.5656911 
C     4.2433680    3.8502691    3.6859848 
C     2.3966547   -5.6164522    1.1919579 
C    -2.3825925   -1.0462616    3.7083609 
C     1.6446163   -5.4290961   -1.1097206 
C    -1.8247798   -3.3766096    4.0822797 
C     2.3131859   -6.1444422   -0.1060894 
C    -2.5274461   -2.2234014    4.4577487 
C     1.1019999    0.3334489   -5.6340249 
C     0.3187853    4.6671628   -0.1964855 
C     0.3835158    2.6266009   -5.2919244 
C    -1.5202693    3.3730732    0.7228867 
C     0.7794651    1.5971141   -6.1557625 
C    -0.8491301    4.5954440    0.5791647 
H     4.1804838    0.7297558    0.0188686 
H     2.1419902   -1.6915743    2.4238639 
H     2.8500493   -1.7338585   -0.3499583 
H     3.9411994   -1.3653009    0.9939307 
H     1.7127093    0.5337808    3.0176007 
H     0.5073620    0.6571056    1.7216252 
H     2.9469355    0.0368855   -2.0818286 
H     2.8998177    1.7517611   -1.6338310 
H     1.8915052   -3.9816855    2.5068291 
H    -1.4396526   -0.1063360    2.0068777 
H     0.5397335   -3.6275793   -1.5978332 
H    -0.4404752   -4.2724792    2.6891663 
H     1.2901571   -0.8798007   -3.8511783 
H     1.7441145    3.5982436   -1.4107592 
H    -0.0146877    3.2151474   -3.2484359 
H    -1.5570012    1.2719823    0.1662014 
H     1.4786097    5.4425167    2.2496443 
H     2.8799233    6.2022864    3.0599695 
H     3.1216826    5.2719412    1.5445422 
H     0.8142763    4.1240861    4.2751554 
H     2.1224882    4.9213101    5.2057355 
H     2.0243971    3.1333394    5.1495449 
H     4.3711465    2.9015785    4.2354591 
H     4.8739279    3.8339709    2.7838720 
H     4.5792080    4.6746172    4.3378024 
H     2.9307572   -6.1650980    1.9745477 
H    -2.9439905   -0.1463236    3.9801706 
H     1.5920850   -5.8273478   -2.1282367 
H    -1.9579523   -4.3080655    4.6417244 
H     2.7796368   -7.1077897   -0.3363037 
H    -3.2000886   -2.2461747    5.3212760 
H     1.4009069   -0.4793059   -6.3042308 
H     0.8531571    5.6163750   -0.2996686 
H     0.1073183    3.6064244   -5.6944196 
H    -2.4265580    3.3091194    1.3340915 
H     0.8279219    1.7729068   -7.2353077 
H    -1.2303583    5.4925494    1.0779656 
