105
Energy =
C    -2.6713495   -1.3197266    0.4977251 
C    -2.8087552    0.0333560    0.0788411 
C    -2.5772794    0.4221184   -1.2587508 
H    -2.9883365    0.8007492    0.8420815 
Pd   -0.7088438   -0.5433192   -0.2945729 
P     0.6016537   -2.2696825    0.6286516 
P     1.0315524    0.6237019   -1.3756275 
H    -2.8389484   -2.1040289   -0.2553854 
H    -2.5647225   -0.3770542   -2.0160607 
C    -3.4596865   -2.5031618    4.5562276 
C    -2.8198225   -1.2792906    4.2997351 
C    -2.5428855   -0.8885182    2.9848113 
C    -2.8941295   -1.7255015    1.8991141 
C    -3.5227695   -2.9598589    2.1707614 
C    -3.8112302   -3.3401367    3.4866837 
H    -3.6799971   -2.8042886    5.5857250 
H    -2.5335544   -0.6203804    5.1262215 
H    -2.0337127    0.0666756    2.8129617 
H    -3.7950851   -3.6203184    1.3410437 
H    -4.3060857   -4.2978076    3.6771968 
C    -3.3570731    4.2864521   -2.9601173 
C    -2.8882415    3.2326472   -3.7593961 
C    -2.6121943    1.9887672   -3.1844282 
C    -2.7926946    1.7702175   -1.7984102 
C    -3.2469744    2.8495318   -1.0026013 
C    -3.5325122    4.0897833   -1.5803296 
H    -3.5834226    5.2586099   -3.4097026 
H    -2.7394634    3.3812381   -4.8333297 
H    -2.2570499    1.1653600   -3.8141422 
H    -3.4001323    2.7156726    0.0726737 
H    -3.8993581    4.9079963   -0.9519242 
O     1.0141155    2.9235097    1.8507264 
O    -0.3917608    1.6956635    3.1921207 
N     1.2633920    0.6814409    1.9801348 
C     2.5073648    0.6942440    1.1821971 
C     1.8277634   -1.5964983    1.8644039 
C     2.9764949   -0.7861940    1.2199669 
C     1.1168721   -0.5588554    2.7473828 
C     2.3520139    1.2927489   -0.2253911 
C     0.5472908    1.7826522    2.4082020 
C     1.5808147   -3.2414515   -0.5832401 
C    -0.2313222   -3.6332034    1.5551983 
C     1.8462319   -0.3851753   -2.6753446 
C     0.6496280    2.1963439   -2.2631152 
C     0.5388279    4.2572625    2.3299442 
C     1.0419175   -3.4536577   -1.8670566 
C    -0.8572099   -4.6559940    0.8105781 
C     2.7910770   -3.8727045   -0.2283040 
C    -0.2477163   -3.7064386    2.9624080 
C     1.0328711   -0.7814277   -3.7613178 
C     0.0217453    3.2084375   -1.5079599 
C     3.1995358   -0.7667913   -2.6616643 
C     1.0336107    2.4653865   -3.5908208 
C     0.8510019    4.3891271    3.8260511 
C     1.3905250    5.2221301    1.4994898 
C    -0.9576500    4.4269349    2.0330911 
C     1.6953065   -4.2926592   -2.7792259 
C    -1.4556669   -5.7432844    1.4589105 
C     3.4541580   -4.6910241   -1.1521715 
C    -0.8501727   -4.7968730    3.6060117 
C     2.9045477   -4.9074421   -2.4250598 
C    -1.4467752   -5.8211624    2.8594803 
C     1.5738603   -1.5087529   -4.8271928 
C    -0.1875335    4.4768144   -2.0582492 
C     3.7328563   -1.5208004   -3.7181543 
C     0.8052216    3.7350270   -4.1435718 
C     2.9272491   -1.8819118   -4.8063067 
C     0.2027271    4.7433838   -3.3797390 
H     3.2559041    1.3333959    1.6901846 
H     2.2088028   -2.4437255    2.4573645 
H     3.2467529   -1.1589655    0.2185119 
H     3.8762492   -0.8808900    1.8500879 
H     1.6157616   -0.4771594    3.7349994 
H     0.0508554   -0.7644490    2.9272238 
H     3.3221079    1.2571105   -0.7520544 
H     2.0941017    2.3564253   -0.1182630 
H     0.1074192   -2.9559887   -2.1498536 
H    -0.8542435   -4.6199711   -0.2840008 
H     3.2170995   -3.7417305    0.7715478 
H     0.2022516   -2.9242253    3.5783385 
H    -0.0279420   -0.5030537   -3.7741519 
H    -0.2832017    3.0016062   -0.4770630 
H     3.8546359   -0.4775418   -1.8342726 
H     1.5302766    1.6993885   -4.1928747 
H     1.9220451    4.1974999    4.0098833 
H     0.6233903    5.4169627    4.1559199 
H     0.2490838    3.6855183    4.4204773 
H     2.4627260    5.0630976    1.7028341 
H     1.1357259    6.2631813    1.7586844 
H     1.2119722    5.0746211    0.4216680 
H    -1.1644953    4.3039756    0.9567517 
H    -1.5543565    3.6978588    2.6005006 
H    -1.2676061    5.4452061    2.3238382 
H     1.2648274   -4.4545637   -3.7720123 
H    -1.9227493   -6.5362070    0.8655390 
H     4.3963108   -5.1729718   -0.8711355 
H    -0.8547054   -4.8373361    4.6997915 
H     3.4200727   -5.5560813   -3.1407279 
H    -1.9096655   -6.6737086    3.3667512 
H     0.9368982   -1.7928313   -5.6712922 
H    -0.6714283    5.2544866   -1.4594228 
H     4.7857993   -1.8186352   -3.6908796 
H     1.1153670    3.9367690   -5.1741998 
H     3.3504877   -2.4601297   -5.6339097 
H     0.0333594    5.7344535   -3.8128725 
