105
Energy =
C    -2.7604320    0.4058601   -1.2837313 
C    -2.9438021   -0.9877518   -1.0911267 
C    -2.8438649   -1.5629558    0.2028263 
H    -3.0478437   -1.6466797   -1.9619134 
Pd   -0.8957665   -0.5655420   -0.3852120 
P     0.4691518   -1.9313361    0.9181128 
P     0.6273015    0.9615940   -1.3290480 
H    -2.9280920    1.0475163   -0.4067781 
H    -3.0329624   -0.8968154    1.0585161 
C    -3.2561558    2.5088349   -4.9968995 
C    -3.1969642    3.2054055   -3.7811476 
C    -3.0017674    2.5085975   -2.5827631 
C    -2.8647315    1.1009762   -2.5758115 
C    -2.8920578    0.4165092   -3.8136289 
C    -3.0945046    1.1129813   -5.0075835 
H    -3.4196717    3.0498287   -5.9346323 
H    -3.3120253    4.2940944   -3.7635658 
H    -2.9648105    3.0559919   -1.6349576 
H    -2.7552429   -0.6687219   -3.8468459 
H    -3.1201682    0.5659453   -5.9551692 
C    -3.3911895   -5.7290087    1.1305399 
C    -2.8862005   -5.3598495   -0.1276672 
C    -2.7042782   -4.0105911   -0.4448285 
C    -3.0123581   -2.9991538    0.4936076 
C    -3.5178345   -3.3856926    1.7543302 
C    -3.7114349   -4.7360642    2.0673703 
H    -3.5342195   -6.7862961    1.3763571 
H    -2.6320924   -6.1289159   -0.8644747 
H    -2.3078350   -3.7416159   -1.4283843 
H    -3.7573898   -2.6163869    2.4956319 
H    -4.1058475   -5.0124903    3.0503143 
O     2.1039409    2.7258510    2.7627799 
O     3.2040946    3.1607035    0.7794022 
N     2.3585834    1.0861043    1.2591639 
C     3.0975083    0.4726965    0.1413866 
C     2.0816409   -1.2485670    1.6058377 
C     3.1607515   -1.0228428    0.5228222 
C     1.9340111    0.1273073    2.2867621 
C     2.4856571    0.7934834   -1.2353482 
C     2.6074709    2.4169700    1.5481741 
C     1.0441402   -3.4002849   -0.0218368 
C    -0.3454303   -2.5416182    2.4511796 
C     0.4461028    0.9070086   -3.1641997 
C     0.2767107    2.6822413   -0.7978894 
C     2.4423680    4.0134107    3.4309513 
C     1.9896785   -4.3104379    0.5003355 
C    -0.9826409   -1.5856344    3.2728785 
C     0.5690360   -3.5859882   -1.3352038 
C    -0.3517792   -3.8942872    2.8405088 
C     0.1388093    2.0167547   -3.9708972 
C    -0.7146628    2.9040371    0.1786815 
C     0.6481330   -0.3524567   -3.7730132 
C     0.9484545    3.7902303   -1.3552321 
C     1.7528311    3.8625755    4.7903328 
C     3.9654774    4.1136532    3.5849053 
C     1.8558917    5.1833944    2.6351354 
C     2.4275713   -5.3934132   -0.2734694 
C    -1.5698043   -1.9692337    4.4851970 
C     1.0098893   -4.6686903   -2.1085863 
C    -0.9508403   -4.2750566    4.0503760 
C     1.9367813   -5.5762890   -1.5762305 
C    -1.5483600   -3.3162295    4.8799727 
C     0.0678011    1.8733932   -5.3647376 
C    -1.0808430    4.2066382    0.5407274 
C     0.5743709   -0.4900349   -5.1642000 
C     0.5791933    5.0923669   -0.9944375 
C     0.2908998    0.6274679   -5.9651675 
C    -0.4471460    5.3034116   -0.0620163 
H     4.1182011    0.8954300    0.1217763 
H     2.4059220   -2.0008634    2.3439871 
H     3.0440763   -1.6866837   -0.3498269 
H     4.1482557   -1.2454292    0.9610480 
H     2.5850808    0.1920030    3.1793422 
H     0.9091423    0.3543964    2.6218882 
H     2.7817785    0.0335031   -1.9783469 
H     2.8742584    1.7638555   -1.5885996 
H     2.3920811   -4.1784259    1.5103658 
H    -1.0329045   -0.5372172    2.9555915 
H    -0.1482100   -2.8655841   -1.7464060 
H     0.0830529   -4.6598153    2.1921803 
H    -0.0632414    2.9914536   -3.5203170 
H    -1.1976795    2.0436782    0.6562024 
H     0.8737260   -1.2293898   -3.1538179 
H     1.7589288    3.6454083   -2.0762449 
H     0.6664275    3.7245018    4.6570506 
H     2.1545089    2.9913796    5.3348621 
H     1.9203549    4.7662527    5.3997663 
H     4.4559810    4.1985649    2.6033231 
H     4.3567603    3.2256666    4.1110241 
H     4.2145584    5.0063812    4.1833845 
H     2.3085469    5.2423286    1.6345528 
H     0.7665423    5.0602192    2.5257887 
H     2.0488636    6.1257287    3.1760765 
H     3.1582951   -6.0954726    0.1411154 
H    -2.0526834   -1.2170386    5.1176278 
H     0.6313021   -4.8010083   -3.1274865 
H    -0.9586111   -5.3315844    4.3370946 
H     2.2840945   -6.4226995   -2.1775987 
H    -2.0111041   -3.6184042    5.8250588 
H    -0.1750683    2.7450765   -5.9806225 
H    -1.8572461    4.3649393    1.2964816 
H     0.7416879   -1.4699008   -5.6237827 
H     1.1013169    5.9451335   -1.4398141 
H     0.2360317    0.5236386   -7.0537213 
H    -0.7342291    6.3230751    0.2145138 
