105
Energy =
C    -2.4088922   -1.0531760    0.7627863 
C    -2.5900662    0.3044283    0.3663628 
C    -2.5819668    0.6904333   -0.9904948 
H    -2.6223283    1.0755491    1.1460987 
Pd   -0.5958974   -0.3409203   -0.3278108 
P     0.7584180   -2.1419765    0.3343286 
P     0.9660369    0.7377668   -1.7377383 
H    -2.7414374   -1.8350267    0.0639550 
H    -2.7012866   -0.1081608   -1.7390049 
C    -2.4716526   -2.1548836    4.9219030 
C    -1.7853000   -0.9988054    4.5159100 
C    -1.7450771   -0.6418191    3.1632436 
C    -2.3874352   -1.4400578    2.1887035 
C    -3.0556654   -2.6098132    2.6069774 
C    -3.1040456   -2.9587174    3.9622683 
H    -2.5060593   -2.4311488    5.9807880 
H    -1.2768189   -0.3734244    5.2567358 
H    -1.1926831    0.2532494    2.8546244 
H    -3.5488057   -3.2440939    1.8632472 
H    -3.6328268   -3.8669584    4.2684503 
C    -3.4682658    4.5939269   -2.5460694 
C    -3.1224701    3.5413657   -3.4071690 
C    -2.8190941    2.2816027   -2.8838225 
C    -2.8440327    2.0453691   -1.4891908 
C    -3.1863000    3.1206650   -0.6345187 
C    -3.5004956    4.3772628   -1.1588346 
H    -3.7136641    5.5796523   -2.9540500 
H    -3.0892333    3.7037993   -4.4887721 
H    -2.5596024    1.4614433   -3.5619058 
H    -3.2333537    2.9703588    0.4482333 
H    -3.7771813    5.1928544   -0.4828506 
O     0.8004314    1.9086440    2.9083961 
O     1.9222241    3.0258119    1.2406646 
N     2.0209865    0.7419491    1.4171201 
C     3.0363168    0.6023462    0.3540504 
C     2.2885207   -1.5854007    1.2526152 
C     3.3389573   -0.9174863    0.3345472 
C     1.9150154   -0.4629090    2.2419915 
C     2.6122378    1.2201564   -0.9872338 
C     1.6054072    1.9928466    1.8209773 
C     1.3395521   -3.1644104   -1.0759944 
C     0.0579196   -3.4502149    1.4330132 
C     1.3102601   -0.2738522   -3.2324382 
C     0.4950295    2.3810526   -2.4223399 
C     0.2922614    3.1535546    3.5563881 
C     2.5214560   -3.9308728   -1.0059208 
C    -0.7440947   -4.4555601    0.8510098 
C     0.5129786   -3.2705741   -2.2118960 
C     0.3068252   -3.4934922    2.8196023 
C     0.2201916   -0.5249701   -4.0959400 
C     0.0709441    3.3569961   -1.4959594 
C     2.5696957   -0.8127390   -3.5517157 
C     0.6525097    2.7304719   -3.7775875 
C    -0.5298701    2.6124466    4.7300440 
C     1.4778749    3.9880067    4.0579708 
C    -0.5980245    3.9211770    2.5689108 
C     2.8750196   -4.7745491   -2.0670585 
C    -1.2577411   -5.4969378    1.6339332 
C     0.8567841   -4.1354762   -3.2591724 
C    -0.2110694   -4.5381467    3.5982634 
C     2.0412455   -4.8824966   -3.1909233 
C    -0.9859891   -5.5458672    3.0090656 
C     0.3966284   -1.2666706   -5.2692732 
C    -0.1645554    4.6698910   -1.9163013 
C     2.7399123   -1.5745158   -4.7176421 
C     0.3989813    4.0458282   -4.1942399 
C     1.6598601   -1.7937163   -5.5829806 
C    -0.0029749    5.0168677   -3.2665588 
H     3.9458038    1.1591388    0.6537871 
H     2.7012918   -2.4645123    1.7739760 
H     3.3274472   -1.3260515   -0.6891792 
H     4.3445050   -1.1090954    0.7441495 
H     2.6327129   -0.4388833    3.0877266 
H     0.9010167   -0.5494581    2.6606038 
H     3.4029630    1.0582763   -1.7402463 
H     2.5267820    2.3071438   -0.8397443 
H     3.1656034   -3.8837866   -0.1216837 
H    -0.9469078   -4.4429476   -0.2250707 
H    -0.4013170   -2.6693939   -2.2728417 
H     0.9024692   -2.7218206    3.3136388 
H    -0.7691206   -0.1223038   -3.8497840 
H    -0.0503598    3.0937206   -0.4407000 
H     3.4322773   -0.6442438   -2.9000479 
H     0.9888803    1.9878023   -4.5072246 
H     0.0910731    1.9577057    5.3640306 
H    -0.8952053    3.4510644    5.3454618 
H    -1.4023493    2.0403620    4.3743371 
H     2.1115083    3.3831995    4.7289960 
H     1.0981568    4.8523473    4.6289979 
H     2.0866484    4.3572190    3.2197779 
H    -0.0024663    4.3590711    1.7547096 
H    -1.3561313    3.2442537    2.1380910 
H    -1.1238658    4.7305120    3.1035664 
H     3.7977462   -5.3611440   -2.0090236 
H    -1.8648856   -6.2775349    1.1638395 
H     0.2048628   -4.2136515   -4.1342829 
H    -0.0078281   -4.5569031    4.6735979 
H     2.3160017   -5.5508763   -4.0134186 
H    -1.3820347   -6.3632472    3.6201933 
H    -0.4532837   -1.4379245   -5.9381097 
H    -0.4860803    5.4205004   -1.1878089 
H     3.7244527   -1.9926257   -4.9498793 
H     0.5291361    4.3122126   -5.2484034 
H     1.7989604   -2.3800288   -6.4969662 
H    -0.1926883    6.0439703   -3.5948379 
