105
Energy =
C    -2.5324952    1.1601969    0.3042931 
C    -2.9444539   -0.1166070   -0.1325368 
C    -2.7223460   -1.2836203    0.6599573 
H    -3.3396839   -0.2225904   -1.1502344 
Pd   -0.7708352   -0.3259921    0.1559551 
P     0.6139794   -2.0105369    1.0495189 
P     0.8631148    0.7748176   -1.1351486 
H    -2.3248719    1.2863258    1.3787245 
H    -2.7378462   -1.1707030    1.7514579 
C    -3.3793585    4.8373444   -1.7307696 
C    -3.2774323    3.6470607   -2.4722853 
C    -2.9646243    2.4456517   -1.8339512 
C    -2.7549483    2.4073912   -0.4345264 
C    -2.8283638    3.6176996    0.2932989 
C    -3.1469543    4.8204769   -0.3477445 
H    -3.6280277    5.7766208   -2.2352108 
H    -3.4314444    3.6623122   -3.5555601 
H    -2.8674756    1.5309737   -2.4276524 
H    -2.6572501    3.6024940    1.3751210 
H    -3.2169616    5.7452702    0.2341760 
C    -3.4336692   -5.2871100   -0.7726516 
C    -3.3436488   -5.0243420    0.6019124 
C    -3.1296634   -3.7185654    1.0600176 
C    -2.9880929   -2.6447605    0.1523711 
C    -3.0865857   -2.9257820   -1.2333103 
C    -3.3118821   -4.2283722   -1.6887152 
H    -3.6032337   -6.3079144   -1.1300552 
H    -3.4425602   -5.8396878    1.3258537 
H    -3.0668853   -3.5248046    2.1352912 
H    -2.9662854   -2.1213051   -1.9666611 
H    -3.3870634   -4.4217471   -2.7641280 
O     1.7950641    3.2178402    1.7513605 
O     0.5378104    2.2139932    3.3986699 
N     1.8541871    0.9724690    1.9985381 
C     2.8908773    0.8047209    0.9628019 
C     2.1347145   -1.3578614    1.9345416 
C     3.1876303   -0.7222666    0.9948648 
C     1.7651316   -0.1997873    2.8698565 
C     2.4865320    1.3507177   -0.4167073 
C     1.3274951    2.1618374    2.4644509 
C     1.2465580   -3.2933707   -0.0942710 
C    -0.1907747   -2.9744247    2.4012418 
C     1.2043346   -0.4987631   -2.4189950 
C     0.4055783    2.2754582   -2.0977675 
C     1.6084867    4.6148608    2.2454238 
C     2.5229816   -3.8831305    0.0282077 
C    -0.9121935   -2.2864151    3.4016953 
C     0.3656611   -3.7559883   -1.0914417 
C    -0.1033402   -4.3792673    2.4624700 
C     2.4773781   -1.0195780   -2.7132913 
C     0.1829402    3.4595425   -1.3623176 
C     0.0826807   -1.0014013   -3.1190332 
C     0.3180769    2.3083781   -3.5029936 
C     2.3873156    5.4329466    1.2104797 
C     0.1200430    4.9863498    2.2488740 
C     2.2390608    4.7357479    3.6385368 
C     2.9086016   -4.9106340   -0.8441684 
C    -1.5147069   -2.9882145    4.4538206 
C     0.7487352   -4.7952524   -1.9474628 
C    -0.7200108   -5.0791964    3.5103776 
C     2.0223515   -5.3706853   -1.8299913 
C    -1.4222528   -4.3883815    4.5082297 
C     2.6264463   -2.0230753   -3.6830028 
C    -0.0819567    4.6632135   -2.0226677 
C     0.2372998   -1.9817814   -4.1046072 
C     0.0345424    3.5164519   -4.1586667 
C     1.5114617   -2.5001592   -4.3844538 
C    -0.1575244    4.6947168   -3.4241515 
H     3.7998105    1.3665088    1.2552579 
H     2.5439757   -2.2089301    2.5035100 
H     3.1737905   -1.1634258   -0.0148498 
H     4.1939337   -0.9024634    1.4085124 
H     2.4978286   -0.1317795    3.7006349 
H     0.7670566   -0.2562701    3.3234429 
H     3.2908312    1.1574658   -1.1483959 
H     2.3846235    2.4433154   -0.3430307 
H     3.2211632   -3.5588252    0.8056203 
H    -1.0214741   -1.1970258    3.3526586 
H    -0.6278627   -3.3087920   -1.1874203 
H     0.4338297   -4.9309290    1.6851398 
H     3.3673313   -0.6481686   -2.1958928 
H     0.2367132    3.4369428   -0.2695098 
H    -0.9169123   -0.6133974   -2.8886188 
H     0.4939261    1.4032275   -4.0918827 
H     1.9646866    5.2944273    0.2012250 
H     2.3376402    6.5043785    1.4665199 
H     3.4463344    5.1257549    1.1926449 
H    -0.3165981    4.8729006    1.2427249 
H     0.0134908    6.0430503    2.5484431 
H    -0.4373752    4.3556647    2.9567473 
H     1.6891614    4.1304217    4.3750077 
H     3.2920277    4.4068290    3.6103524 
H     2.2157215    5.7908526    3.9598871 
H     3.9021831   -5.3600079   -0.7450362 
H    -2.0661937   -2.4412482    5.2253951 
H     0.0490662   -5.1490816   -2.7113338 
H    -0.6521578   -6.1715975    3.5421870 
H     2.3253907   -6.1787131   -2.5039360 
H    -1.9020685   -4.9383500    5.3242509 
H     3.6217950   -2.4273988   -3.8925410 
H    -0.2455108    5.5754537   -1.4404149 
H    -0.6396405   -2.3527126   -4.6453114 
H    -0.0197022    3.5356625   -5.2522310 
H     1.6333684   -3.2794808   -5.1434163 
H    -0.3695507    5.6359365   -3.9415984 
