105
Energy =
C    -2.7520412    0.3234265   -1.3654595 
C    -2.8982163   -1.0813901   -1.2565494 
C    -2.8215641   -1.7383026    0.0009587 
H    -2.9486376   -1.6840878   -2.1711237 
Pd   -0.8861601   -0.6426598   -0.4456155 
P     0.4101843   -1.9048706    1.0228878 
P     0.6341776    0.9097084   -1.3385324 
H    -2.9429118    0.9119512   -0.4561556 
H    -3.0564879   -1.1402161    0.8938140 
C    -3.1809203    2.6388734   -4.9597129 
C    -3.0569941    1.2418560   -5.0459139 
C    -2.8804432    0.4758271   -3.8911835 
C    -2.8410070    1.0902215   -2.6174421 
C    -2.9475723    2.4989351   -2.5478195 
C    -3.1150021    3.2655339   -3.7068606 
H    -3.3231195    3.2346373   -5.8672521 
H    -3.0924276    0.7479593   -6.0219016 
H    -2.7753716   -0.6092652   -3.9847685 
H    -2.9064732    2.9929431   -1.5717027 
H    -3.2037996    4.3540618   -3.6293956 
C    -3.2009312   -5.9785971    0.6441791 
C    -3.3725513   -5.0726842    1.7001942 
C    -3.2440866   -3.6969515    1.4750713 
C    -2.9404915   -3.1962029    0.1889249 
C    -2.7817625   -4.1230728   -0.8685613 
C    -2.9090444   -5.4960779   -0.6429510 
H    -3.2991419   -7.0550283    0.8182531 
H    -3.6065594   -5.4359596    2.7061032 
H    -3.3787278   -2.9955177    2.3054860 
H    -2.5509296   -3.7707409   -1.8793678 
H    -2.7787994   -6.1967571   -1.4741714 
O     2.2067824    2.7843388    2.6848072 
O     3.3195058    3.1117673    0.6876070 
N     2.3958468    1.0882530    1.2366447 
C     3.0981232    0.4108175    0.1329416 
C     2.0356036   -1.2212098    1.6670003 
C     3.0976569   -1.0768111    0.5527341 
C     1.9294428    0.1831506    2.2934291 
C     2.4903222    0.7263379   -1.2461726 
C     2.6962671    2.4166187    1.4808992 
C     0.9420100   -3.5054237    0.2996390 
C    -0.4975145   -2.2477466    2.5867760 
C     0.4502569    0.8582918   -3.1733828 
C     0.2871334    2.6245494   -0.7897751 
C     2.6006332    4.0748184    3.3150555 
C     1.8261817   -4.3882609    0.9590189 
C    -1.2258224   -1.1799363    3.1573590 
C     0.4966725   -3.8256289   -0.9979340 
C    -0.5086765   -3.5028312    3.2248901 
C     0.2067032    1.9773161   -3.9885087 
C     0.9601199    3.7408254   -1.3291411 
C     0.5886946   -0.4147931   -3.7721814 
C    -0.7084583    2.8318271    0.1861801 
C     4.1259519    4.1078658    3.4753697 
C     2.0739425    5.2466685    2.4809887 
C     1.8970061    3.9982598    4.6734356 
C     2.2289964   -5.5770573    0.3368315 
C    -1.9276823   -1.3572986    4.3566543 
C     0.9029126   -5.0142570   -1.6192228 
C    -1.2159378   -3.6775429    4.4238506 
C     1.7652216   -5.8938280   -0.9501059 
C    -1.9214941   -2.6084709    4.9941500 
C     0.1374479    1.8287472   -5.3819152 
C     0.5843454    5.0373794   -0.9548811 
C     0.5179807   -0.5571380   -5.1631802 
C    -1.0773213    4.1286821    0.5655385 
C     0.3002127    0.5688917   -5.9728036 
C    -0.4459102    5.2342860   -0.0235644 
H     4.1366386    0.7868324    0.0949857 
H     2.3539709   -1.9481192    2.4328496 
H     2.9197429   -1.7550102   -0.2990338 
H     4.0852933   -1.3407305    0.9663048 
H     2.5744999    0.2602790    3.1891507 
H     0.9097313    0.4548371    2.6124163 
H     2.7770567   -0.0433760   -1.9830314 
H     2.8907868    1.6897372   -1.6059873 
H     2.2117532   -4.1524224    1.9565708 
H    -1.2596210   -0.2087806    2.6479453 
H    -0.1710772   -3.1282391   -1.5168570 
H     0.0043921   -4.3572300    2.7755759 
H     0.0501879    2.9636030   -3.5449910 
H     1.7774768    3.6071068   -2.0442051 
H     0.7583758   -1.2984545   -3.1433670 
H    -1.1952711    1.9637044    0.6458192 
H     4.4719420    3.2210184    4.0341154 
H     4.6241383    4.1351523    2.4942323 
H     4.4152090    5.0080811    4.0438190 
H     0.9814869    5.1670009    2.3628324 
H     2.5392055    5.2584601    1.4845531 
H     2.3020927    6.1941001    2.9988280 
H     0.8060729    3.9083122    4.5361144 
H     2.2530034    3.1255569    5.2465096 
H     2.1042158    4.9107783    5.2569307 
H     2.9119699   -6.2566187    0.8568700 
H    -2.4867226   -0.5212297    4.7893297 
H     0.5451310   -5.2523622   -2.6262022 
H    -1.2247993   -4.6607391    4.9055260 
H     2.0843451   -6.8233568   -1.4326252 
H    -2.4749537   -2.7508410    5.9279289 
H    -0.0565257    2.7074896   -6.0051556 
H     1.1059192    5.8970898   -1.3873005 
H     0.6351862   -1.5473441   -5.6159756 
H    -1.8560933    4.2758899    1.3210815 
H     0.2474131    0.4609301   -7.0610649 
H    -0.7375165    6.2498842    0.2630441 
