105
Energy =
C    -2.6455682   -0.5818149    0.9055633 
C    -2.4548927    0.7774185    0.5424291 
C    -2.5064263    1.2080083   -0.8077953 
H    -2.1235942    1.4907476    1.3076596 
Pd   -0.8753128   -0.3478560   -0.4856893 
P     0.4756681   -2.0868184    0.3054115 
P     0.6246926    0.4928894   -2.0978967 
H    -3.2236190   -1.2131284    0.2135507 
H    -3.1066106    0.6125856   -1.5123221 
C    -2.6146707   -2.0045657    4.9648924 
C    -3.2700815   -2.7261768    3.9574022 
C    -3.2497664   -2.2659968    2.6356765 
C    -2.5848745   -1.0675522    2.2949525 
C    -1.9147352   -0.3566243    3.3191563 
C    -1.9313846   -0.8218554    4.6378159 
H    -2.6292300   -2.3644446    5.9987298 
H    -3.7962427   -3.6546938    4.1999175 
H    -3.7672220   -2.8333727    1.8547928 
H    -1.3687714    0.5628752    3.0857195 
H    -1.4069745   -0.2584718    5.4162796 
C    -1.7962667    5.2902518   -1.9632521 
C    -2.7153893    4.5004695   -2.6705645 
C    -2.9325650    3.1674226   -2.3013754 
C    -2.2434286    2.6036486   -1.2062331 
C    -1.3175157    3.4092339   -0.5070768 
C    -1.0919200    4.7366347   -0.8815558 
H    -1.6219511    6.3295425   -2.2604107 
H    -3.2606987    4.9216499   -3.5211314 
H    -3.6465653    2.5560584   -2.8627794 
H    -0.7466690    2.9892138    0.3235875 
H    -0.3545388    5.3307666   -0.3322448 
O     0.5912323    2.1081481    3.0028794 
O     1.5140377    3.3097905    1.2695903 
N     1.5208520    1.0146752    1.2688060 
C     2.4458319    0.9568035    0.1170165 
C     1.9843721   -1.2992159    1.0821880 
C     2.8927722   -0.5322802    0.0869073 
C     1.5450492   -0.2081572    2.0801345 
C     1.8358333    1.5483346   -1.1783193 
C     1.2310003    2.2497342    1.8181846 
C     1.0656108   -3.2733035   -0.9667437 
C    -0.1192539   -3.2637981    1.6063253 
C     1.6445334   -0.5966737   -3.1939758 
C    -0.1082024    1.5895162   -3.3853438 
C     0.3151752    3.2984910    3.8660038 
C     0.1072047   -3.7868588   -1.8660270 
C     0.3059802   -3.2081960    2.9491849 
C     2.3850194   -3.7638444   -1.0152414 
C    -1.0103238   -4.2904474    1.2234121 
C     0.9846595   -1.5948066   -3.9369347 
C    -1.1614386    1.0641544   -4.1631842 
C     3.0276936   -0.4068061   -3.3923067 
C     0.3902660    2.8718861   -3.6781248 
C    -0.6627374    4.2405874    3.1541819 
C    -0.3286418    2.6692681    5.1051295 
C     1.6427425    3.9801059    4.2201409 
C     0.4498910   -4.8005894   -2.7686491 
C    -0.1258767   -4.1721302    3.8719500 
C     2.7344894   -4.7498278   -1.9490746 
C    -1.4279779   -5.2578031    2.1442721 
C     1.7670690   -5.2798508   -2.8151888 
C    -0.9823604   -5.2055202    3.4728043 
C     1.6873875   -2.3854062   -4.8536353 
C    -1.6816497    1.7928568   -5.2387595 
C     3.7328241   -1.2086954   -4.3010600 
C    -0.1473617    3.6059947   -4.7458931 
C     3.0651502   -2.1984148   -5.0352171 
C    -1.1713762    3.0659970   -5.5351663 
H     3.3146683    1.6034017    0.3417882 
H     2.5427594   -2.1010384    1.5932988 
H     2.8667861   -0.9618002   -0.9258274 
H     3.9358996   -0.6098264    0.4355424 
H     2.2797356   -0.1230787    2.9061324 
H     0.5561255   -0.3847107    2.5289371 
H     2.6493645    1.8442722   -1.8628038 
H     1.3081208    2.4767546   -0.9047760 
H    -0.9117425   -3.3811535   -1.8614818 
H     0.9853945   -2.4282313    3.2997947 
H     3.1474434   -3.3917607   -0.3239290 
H    -1.3675611   -4.3545755    0.1917527 
H    -0.0878171   -1.7592712   -3.7961659 
H    -1.5810022    0.0805438   -3.9224731 
H     3.5732781    0.3690763   -2.8473055 
H     1.1922286    3.3147993   -3.0814074 
H    -1.5652508    3.6916138    2.8345059 
H    -0.9767461    5.0334050    3.8542902 
H    -0.1949134    4.7081232    2.2762855 
H    -1.2933920    2.1994390    4.8527926 
H    -0.5131325    3.4483115    5.8630613 
H     0.3377820    1.9061427    5.5410948 
H     2.3317294    3.2555180    4.6873583 
H     2.1189869    4.4098632    3.3265022 
H     1.4530880    4.7908349    4.9438662 
H    -0.3068072   -5.2009217   -3.4512944 
H     0.2171629   -4.1107215    4.9097034 
H     3.7656857   -5.1154252   -1.9881778 
H    -2.1048247   -6.0549732    1.8199161 
H     2.0423661   -6.0609919   -3.5310797 
H    -1.3066952   -5.9620898    4.1944288 
H     1.1573312   -3.1581330   -5.4190797 
H    -2.4934069    1.3705000   -5.8401540 
H     4.8073258   -1.0500238   -4.4396751 
H     0.2412688    4.6070796   -4.9586829 
H     3.6161908   -2.8210977   -5.7472969 
H    -1.5797823    3.6403826   -6.3729164 
