105
Energy =
C    -2.4699792   -0.9797067    0.6644764 
C    -2.5955351    0.3762148    0.2420506 
C    -2.5156424    0.7417036   -1.1181954 
H    -2.6422862    1.1593804    1.0089923 
Pd   -0.5900591   -0.3310766   -0.3513723 
P     0.6865222   -2.1549715    0.3987275 
P     1.0624422    0.6869658   -1.7025317 
H    -2.7907065   -1.7626477   -0.0386770 
H    -2.6235695   -0.0645352   -1.8602071 
C    -2.7524989   -2.0201587    4.8301732 
C    -2.0201808   -0.8865038    4.4415702 
C    -1.9085136   -0.5498519    3.0877258 
C    -2.5239184   -1.3466661    2.0947180 
C    -3.2388592   -2.4943598    2.4966306 
C    -3.3588027   -2.8225466    3.8526492 
H    -2.8428634   -2.2803225    5.8898407 
H    -1.5317086   -0.2627781    5.1971149 
H    -1.3208553    0.3273781    2.7934791 
H    -3.7121365   -3.1273684    1.7390278 
H    -3.9232081   -3.7135287    4.1456610 
C    -3.2221409    4.6434809   -2.7667375 
C    -2.8690273    3.5685010   -3.5965956 
C    -2.6243464    2.3091835   -3.0423824 
C    -2.7169824    2.0955266   -1.6469690 
C    -3.0655668    3.1930078   -0.8236696 
C    -3.3208618    4.4494763   -1.3792642 
H    -3.4213826    5.6291601   -3.1992458 
H    -2.7840734    3.7131597   -4.6779061 
H    -2.3586266    1.4716491   -3.6964134 
H    -3.1638238    3.0608418    0.2580007 
H    -3.6033980    5.2828829   -0.7278929 
O     0.7119056    1.9325463    2.9177012 
O     1.9336607    2.9970796    1.2860636 
N     1.9676611    0.7143794    1.4986990 
C     3.0278269    0.5342302    0.4866356 
C     2.1853531   -1.6210423    1.3798610 
C     3.2932796   -0.9925353    0.5023925 
C     1.7937563   -0.4749562    2.3346574 
C     2.6824494    1.1418200   -0.8815335 
C     1.5658709    1.9809407    1.8660721 
C     1.3076847   -3.2128995   -0.9676038 
C    -0.0966112   -3.4284626    1.4822327 
C     1.4507469   -0.3575676   -3.1632150 
C     0.6666608    2.3295419   -2.4348889 
C     0.2060186    3.1985451    3.5249878 
C     2.4669718   -4.0046617   -0.8319436 
C    -0.8955140   -4.4230933    0.8780181 
C     0.5314903   -3.3184990   -2.1386026 
C     0.0866850   -3.4562051    2.8793979 
C     0.3947472   -0.5990537   -4.0706873 
C     0.2313562    3.3334374   -1.5441600 
C     2.7107982   -0.9285950   -3.4174465 
C     0.8904795    2.6498741   -3.7879820 
C    -0.6795283    2.6947093    4.6687844 
C     1.3881428    4.0127017    4.0667029 
C    -0.6214197    3.9715885    2.4883365 
C     2.8488413   -4.8729198   -1.8630349 
C    -1.4705532   -5.4394872    1.6509997 
C     0.9025052   -4.2074633   -3.1560444 
C    -0.4925421   -4.4757905    3.6480143 
C     2.0649232   -4.9798585   -3.0223401 
C    -1.2641456   -5.4735514    3.0378895 
C     0.6065245   -1.3631654   -5.2235752 
C     0.0510206    4.6444634   -1.9963415 
C     2.9154833   -1.7127789   -4.5628090 
C     0.6922699    3.9640046   -4.2372156 
C     1.8703593   -1.9224587   -5.4722706 
C     0.2794629    4.9624664   -3.3440911 
H     3.9357947    1.0733398    0.8212649 
H     2.5520472   -2.5015209    1.9325633 
H     3.3186133   -1.4159173   -0.5150214 
H     4.2738490   -1.2020417    0.9607987 
H     2.4713749   -0.4551102    3.2129417 
H     0.7593963   -0.5310189    2.7060025 
H     3.5035579    0.9500684   -1.5939742 
H     2.6167900    2.2326047   -0.7532756 
H     3.0711330   -3.9579635    0.0801147 
H    -1.0478394   -4.4224552   -0.2064501 
H    -0.3650257   -2.6981594   -2.2501412 
H     0.6780154   -2.6916807    3.3894935 
H    -0.5953331   -0.1713160   -3.8749058 
H     0.0588724    3.0930290   -0.4904817 
H     3.5471807   -0.7679828   -2.7305537 
H     1.2360822    1.8852634   -4.4901146 
H    -0.1030682    2.0345879    5.3382734 
H    -1.0504501    3.5508539    5.2560752 
H    -1.5496291    2.1387053    4.2830206 
H     1.9768945    3.4036439    4.7737821 
H     1.0044606    4.8943378    4.6078711 
H     2.0419025    4.3546744    3.2511400 
H     0.0194375    4.3825618    1.6947961 
H    -1.3760143    3.3059839    2.0343897 
H    -1.1504996    4.8012168    2.9875277 
H     3.7539906   -5.4792828   -1.7538589 
H    -2.0744188   -6.2124436    1.1643344 
H     0.2895405   -4.2848590   -4.0589310 
H    -0.3398820   -4.4827211    4.7318357 
H     2.3613463   -5.6671792   -3.8213736 
H    -1.7083811   -6.2714663    3.6415724 
H    -0.2164801   -1.5269511   -5.9270482 
H    -0.2796059    5.4166578   -1.2950028 
H     3.8997400   -2.1558811   -4.7443475 
H     0.8742892    4.2075791   -5.2892159 
H     2.0368700   -2.5263291   -6.3701045 
H     0.1334163    5.9883982   -3.6974358 
