105
Energy =
C    -2.4884389   -0.9661293    0.6101400 
C    -2.5973008    0.3941518    0.1969200 
C    -2.4874812    0.7718924   -1.1577975 
H    -2.6545915    1.1706867    0.9699235 
Pd   -0.5847853   -0.3228332   -0.3631572 
P     0.6602643   -2.1650940    0.3916093 
P     1.1008622    0.6910665   -1.6750501 
H    -2.8006672   -1.7413418   -0.1053281 
H    -2.5851208   -0.0264253   -1.9096799 
C    -2.8592898   -2.0335092    4.7621252 
C    -2.1093499   -0.9040489    4.3955362 
C    -1.9687667   -0.5592480    3.0464552 
C    -2.5726506   -1.3433152    2.0363543 
C    -3.3053245   -2.4872078    2.4164226 
C    -3.4539151   -2.8236498    3.7675990 
H    -2.9724417   -2.2999646    5.8180301 
H    -1.6297617   -0.2899585    5.1645449 
H    -1.3674812    0.3144174    2.7695173 
H    -3.7696074   -3.1107583    1.6455260 
H    -4.0315187   -3.7116223    4.0435329 
C    -3.1355297    4.6947364   -2.7805313 
C    -2.7725577    3.6258540   -3.6139885 
C    -2.5476668    2.3593392   -3.0678495 
C    -2.6698842    2.1321771   -1.6768664 
C    -3.0279462    3.2236497   -0.8496469 
C    -3.2638448    4.4873187   -1.3974277 
H    -3.3195000    5.6860613   -3.2068529 
H    -2.6646445    3.7808272   -4.6918103 
H    -2.2743601    1.5267042   -3.7249792 
H    -3.1489647    3.0813442    0.2284489 
H    -3.5544540    5.3158861   -0.7434463 
O     0.6837692    1.9006664    2.9431193 
O     1.9514587    2.9655220    1.3469479 
N     1.9541516    0.6807843    1.5388587 
C     3.0293376    0.4972286    0.5436143 
C     2.1475256   -1.6560347    1.4031649 
C     3.2781722   -1.0323717    0.5516876 
C     1.7510803   -0.5137702    2.3606353 
C     2.7132429    1.1195534   -0.8250283 
C     1.5598402    1.9486849    1.9097778 
C     1.2917521   -3.2157220   -0.9754943 
C    -0.1531650   -3.4406595    1.4501298 
C     1.5016019   -0.3411971   -3.1411924 
C     0.7321426    2.3457008   -2.3936853 
C     0.1796501    3.1668226    3.5515378 
C     2.4392883   -4.0225286   -0.8294070 
C    -0.9463042   -4.4261148    0.8237966 
C     0.5333669   -3.3001518   -2.1598655 
C     0.0014412   -3.4780527    2.8506125 
C     0.4601667   -0.5566455   -4.0716994 
C     0.2833652    3.3402863   -1.4993960 
C     2.7574728   -0.9292265   -3.3769512 
C     0.9891696    2.6827698   -3.7367739 
C    -0.6173058    3.9584880    2.5050798 
C    -0.7350119    2.6626897    4.6720683 
C     1.3592796    3.9626423    4.1250378 
C     2.8275931   -4.8846800   -1.8632507 
C    -1.5437577   -5.4431756    1.5787770 
C     0.9102922   -4.1830676   -3.1803777 
C    -0.5999262   -4.4983040    3.6010339 
C     2.0613314   -4.9704653   -3.0360467 
C    -1.3655814   -5.4871710    2.9692643 
C     0.6827633   -1.3120937   -5.2282774 
C     0.1215914    4.6585001   -1.9374843 
C     2.9726064   -1.7044598   -4.5264467 
C     0.8093046    4.0040819   -4.1724070 
C     1.9424202   -1.8885309   -5.4582331 
C     0.3824280    4.9930522   -3.2752772 
H     3.9372445    1.0238469    0.8976580 
H     2.4943282   -2.5452364    1.9547449 
H     3.3183582   -1.4478981   -0.4684696 
H     4.2475894   -1.2560287    1.0268226 
H     2.4122567   -0.5095353    3.2515755 
H     0.7093268   -0.5609084    2.7120431 
H     3.5431252    0.9236117   -1.5260319 
H     2.6582178    2.2100210   -0.6890418 
H     3.0289309   -3.9924723    0.0928018 
H    -1.0765720   -4.4180746   -0.2635037 
H    -0.3538063   -2.6679356   -2.2794719 
H     0.5871747   -2.7205580    3.3773292 
H    -0.5267987   -0.1154098   -3.8910279 
H     0.0848076    3.0864501   -0.4535034 
H     3.5825380   -0.7890234   -2.6721597 
H     1.3458641    1.9253057   -4.4411492 
H    -1.3700354    3.3058097    2.0297617 
H    -1.1468915    4.7899970    3.0005996 
H     0.0447306    4.3686392    1.7287015 
H    -1.6026224    2.1194834    4.2631776 
H    -1.1091421    3.5176281    5.2590818 
H    -0.1798166    1.9905675    5.3475988 
H     1.9264016    3.3406878    4.8385342 
H     2.0335809    4.3045063    3.3263399 
H     0.9742869    4.8436897    4.6662572 
H     3.7236175   -5.5029375   -1.7458405 
H    -2.1428531   -6.2089912    1.0752214 
H     0.3110569   -4.2440155   -4.0936720 
H    -0.4693270   -4.5127579    4.6876535 
H     2.3626690   -5.6529905   -3.8373454 
H    -1.8270000   -6.2858833    3.5588321 
H    -0.1285910   -1.4552950   -5.9495498 
H    -0.2201647    5.4232639   -1.2333494 
H     3.9532802   -2.1610118   -4.6934099 
H     1.0166177    4.2606911   -5.2165941 
H     2.1171036   -2.4858445   -6.3588920 
H     0.2506793    6.0245515   -3.6178457 
