105
Energy =
C    -1.9228443    1.5981889   -0.4886209 
C    -2.5102517    0.5517221    0.2888700 
C    -2.0002827    0.1801869    1.5479868 
H    -3.3021867   -0.0569935   -0.1653388 
Pd   -0.3981112    0.0319649   -0.1390794 
P     0.7677629   -1.9328471    0.4597344 
P     1.2111025    0.9787508   -1.5743781 
H    -1.4798675    2.4502772    0.0450417 
H    -1.2752017    0.8537871    2.0309317 
C    -3.2838818    2.4156973   -4.4945075 
C    -3.2303473    1.0907735   -4.0293582 
C    -2.7879098    0.8197634   -2.7300475 
C    -2.3875906    1.8679942   -1.8668260 
C    -2.4546639    3.1928045   -2.3463137 
C    -2.8979888    3.4636656   -3.6466939 
H    -3.6266212    2.6273432   -5.5125446 
H    -3.5310268    0.2665749   -4.6850872 
H    -2.7267549   -0.2194274   -2.3844526 
H    -2.1525368    4.0160007   -1.6925001 
H    -2.9363955    4.4993195   -3.9990056 
C    -3.7148336   -2.6775152    4.2543989 
C    -4.3988944   -2.3449179    3.0737969 
C    -3.8411491   -1.4387133    2.1679428 
C    -2.5894828   -0.8320331    2.4313317 
C    -1.9175512   -1.1726696    3.6291226 
C    -2.4699789   -2.0901050    4.5272500 
H    -4.1539048   -3.3883650    4.9617606 
H    -5.3759504   -2.7915022    2.8625118 
H    -4.3988763   -1.1790224    1.2628277 
H    -0.9550791   -0.7006562    3.8519888 
H    -1.9306894   -2.3466623    5.4443786 
O     0.8003452    1.7765800    3.1157813 
O     1.9752859    3.0277616    1.5842506 
N     2.1526993    0.7388109    1.6521617 
C     3.1811694    0.6396795    0.5927383 
C     2.3599105   -1.5697732    1.3585389 
C     3.4126095   -0.8901064    0.4552786 
C     2.0593056   -0.5034053    2.4246125 
C     2.8303759    1.3657993   -0.7155127 
C     1.6703857    1.9519173    2.0902134 
C     1.2251977   -3.0096706   -0.9557569 
C    -0.0944907   -3.1346917    1.5574451 
C     1.5630126   -0.0607856   -3.0442131 
C     0.8529755    2.6540287   -2.2722492 
C     0.2489262    2.9493426    3.8592624 
C     2.3394729   -3.8729387   -0.9113503 
C     0.4576899   -3.6588821    2.7429241 
C     0.3754910   -3.0332053   -2.0784073 
C    -1.3630219   -3.5844201    1.1344915 
C     2.8136215   -0.6400947   -3.3265450 
C     0.7170654    3.7187113   -1.3528675 
C     0.4825970   -0.2944649   -3.9249131 
C     0.7556615    2.9201956   -3.6505116 
C    -0.6008176    2.2798165    4.9438375 
C     1.4062005    3.7467004    4.4732308 
C    -0.6214021    3.8000689    2.9241546 
C     2.6021127   -4.7361355   -1.9831168 
C    -0.2347587   -4.6360540    3.4728564 
C     0.6297035   -3.9134223   -3.1380223 
C    -2.0472578   -4.5636689    1.8614818 
C     1.7452385   -4.7615962   -3.0941617 
C    -1.4827268   -5.0948185    3.0315467 
C     2.9829119   -1.4332492   -4.4715049 
C     0.5015402    5.0244797   -1.8104959 
C     0.6642017   -1.0607167   -5.0814735 
C     0.5247642    4.2292394   -4.1003102 
C     1.9149285   -1.6358396   -5.3558757 
C     0.3995270    5.2837493   -3.1863581 
H     4.1091482    1.1240642    0.9552551 
H     2.7489280   -2.5008448    1.7992685 
H     3.3395641   -1.2258080   -0.5921652 
H     4.4226443   -1.1562577    0.8075768 
H     2.8142660   -0.5296445    3.2368640 
H     1.0633880   -0.5988812    2.8812631 
H     3.6493316    1.2217021   -1.4419239 
H     2.7791923    2.4436122   -0.5044555 
H     3.0027709   -3.8853175   -0.0403027 
H     1.4315433   -3.3227719    3.1107260 
H    -0.4818852   -2.3517523   -2.1215894 
H    -1.8122392   -3.1667827    0.2255795 
H     3.6703607   -0.4775492   -2.6654536 
H     0.8159661    3.5385944   -0.2762124 
H    -0.5006171    0.1369820   -3.7065459 
H     0.8700768    2.1174471   -4.3833457 
H    -1.4245150    1.6975819    4.4979006 
H     0.0184214    1.6039443    5.5569175 
H    -1.0381062    3.0483806    5.6023659 
H     2.0263133    4.2108701    3.6920178 
H     2.0366050    3.0867608    5.0933124 
H     0.9980043    4.5413129    5.1204908 
H    -0.0155269    4.2678320    2.1346488 
H    -1.4127230    3.1840338    2.4630850 
H    -1.1127770    4.5942335    3.5115098 
H     3.4724908   -5.3994374   -1.9448206 
H     0.2075979   -5.0398284    4.3894823 
H    -0.0374165   -3.9254770   -4.0053003 
H    -3.0294967   -4.9051583    1.5208204 
H     1.9488504   -5.4430834   -3.9265328 
H    -2.0202472   -5.8591012    3.6018341 
H     3.9586181   -1.8860310   -4.6744851 
H     0.4149659    5.8414028   -1.0862680 
H    -0.1772042   -1.2169249   -5.7647746 
H     0.4511967    4.4210331   -5.1757512 
H     2.0551383   -2.2461123   -6.2538908 
H     0.2289084    6.3046496   -3.5433819 
