105
Energy =
C    -2.5054684    1.2368219    0.2101788 
C    -2.9411843   -0.0365947   -0.2132065 
C    -2.7742091   -1.1930152    0.6079282 
H    -3.3114359   -0.1521319   -1.2392595 
Pd   -0.7836154   -0.3010316    0.1400393 
P     0.5263543   -2.0073872    1.1023410 
P     0.9166881    0.7292487   -1.1239038 
H    -2.3246887    1.3788538    1.2874415 
H    -2.8163388   -1.0573331    1.6961481 
C    -3.1916173    4.8931125   -1.9207425 
C    -3.0020895    4.8980739   -0.5310953 
C    -2.7351127    3.7006125    0.1426353 
C    -2.6718563    2.4743917   -0.5590192 
C    -2.8376352    2.4899074   -1.9647338 
C    -3.0986894    3.6859185   -2.6356104 
H    -3.3996650    5.8281929   -2.4507392 
H    -3.0652013    5.8359164    0.0303506 
H    -2.5975686    3.7028388    1.2293771 
H    -2.7468362    1.5611871   -2.5372913 
H    -3.2189687    3.6833943   -3.7232551 
C    -3.5708258   -5.2015453   -0.7643935 
C    -3.3873786   -4.1668812   -1.6975284 
C    -3.1331644   -2.8628633   -1.2618941 
C    -3.0665455   -2.5559858    0.1201763 
C    -3.2689049   -3.6054455    1.0446136 
C    -3.5122155   -4.9130148    0.6066825 
H    -3.7634365   -6.2236252   -1.1061295 
H    -3.4371927   -4.3804377   -2.7705886 
H    -2.9649398   -2.0781899   -2.0072258 
H    -3.2308942   -3.3912435    2.1171746 
H    -3.6587914   -5.7094039    1.3435425 
O     1.8396060    3.1972799    1.7449214 
O     0.5122033    2.2606268    3.3767569 
N     1.8263240    0.9560031    2.0332358 
C     2.8857761    0.7391579    1.0301274 
C     2.0402185   -1.3822270    2.0186509 
C     3.1373826   -0.7946831    1.0986253 
C     1.6784638   -0.1968970    2.9222732 
C     2.5358884    1.2705559   -0.3698418 
C     1.3233395    2.1685862    2.4642833 
C     1.1536479   -3.3274373   -0.0013208 
C    -0.3423493   -2.9243075    2.4470858 
C     1.2553182   -0.5759112   -2.3763094 
C     0.5307434    2.2252730   -2.1243496 
C     1.6782696    4.6081364    2.2072666 
C     2.4066942   -3.9538079    0.1707533 
C    -1.0694315   -2.1989446    3.4165714 
C     0.2902972   -3.7793286   -1.0185212 
C    -0.2976651   -4.3298292    2.5334906 
C     2.5191546   -1.1419144   -2.6229682 
C     0.4882174    2.2372311   -3.5319785 
C     0.1395628   -1.0544415   -3.1021895 
C     0.3188228    3.4271212   -1.4151182 
C     2.5065286    5.3846010    1.1786085 
C     0.2009524    5.0195013    2.1631820 
C     2.2745218    4.7396554    3.6144465 
C     2.7872272   -5.0069824   -0.6727773 
C    -1.7190419   -2.8650891    4.4638439 
C     0.6674319   -4.8438169   -1.8457002 
C    -0.9615524   -4.9938056    3.5759211 
C     1.9182576   -5.4559278   -1.6789018 
C    -1.6688064   -4.2661922    4.5436049 
C     2.6649391   -2.1657940   -3.5716402 
C     0.2593869    3.4415977   -4.2152637 
C     0.2921713   -2.0555176   -4.0670840 
C     0.1086416    4.6265365   -2.1023563 
C     1.5568306   -2.6186964   -4.2995223 
C     0.0777359    4.6367971   -3.5058586 
H     3.8021664    1.2803600    1.3377399 
H     2.4081963   -2.2339973    2.6141395 
H     3.1401030   -1.2546288    0.0972655 
H     4.1257207   -0.9951300    1.5449611 
H     2.3889126   -0.1346156    3.7726110 
H     0.6666805   -0.2161938    3.3477425 
H     3.3540552    1.0405712   -1.0750781 
H     2.4640585    2.3668217   -0.3185088 
H     3.0899993   -3.6381517    0.9648063 
H    -1.1458585   -1.1079146    3.3468380 
H    -0.6853631   -3.3035392   -1.1527924 
H     0.2433024   -4.9098924    1.7798520 
H     3.4045143   -0.7903510   -2.0843090 
H     0.6568115    1.3179092   -4.1006707 
H    -0.8535087   -0.6310913   -2.9086349 
H     0.3380965    3.4211723   -0.3209201 
H     2.1074052    5.2377484    0.1610030 
H     2.4794162    6.4617810    1.4129542 
H     3.5568234    5.0487344    1.1953363 
H    -0.2118799    4.8978347    1.1479628 
H     0.1155584    6.0844568    2.4393480 
H    -0.3921398    4.4183192    2.8676784 
H     1.6889707    4.1639033    4.3471254 
H     3.3185269    4.3822868    3.6211107 
H     2.2713261    5.8011730    3.9148154 
H     3.7627279   -5.4849141   -0.5351662 
H    -2.2740959   -2.2894049    5.2116031 
H    -0.0186463   -5.1886938   -2.6258160 
H    -0.9265440   -6.0870142    3.6271671 
H     2.2169284   -6.2838648   -2.3302512 
H    -2.1853191   -4.7881188    5.3556297 
H     3.6525097   -2.6052195   -3.7439370 
H     0.2398860    3.4441232   -5.3101616 
H    -0.5795045   -2.4072049   -4.6287786 
H    -0.0471180    5.5524782   -1.5399668 
H     1.6763764   -3.4139727   -5.0421396 
H    -0.0913755    5.5747901   -4.0445194 
