105
Energy =
C    -2.4781629   -1.0299183    0.4221947 
C    -2.6270247    0.3262829    0.0507917 
C    -2.3765301    0.7806043   -1.2681544 
H    -2.8668932    1.0675272    0.8211196 
Pd   -0.4891841   -0.1388691   -0.3517570 
P     0.9707049   -1.7806600    0.5316376 
P     1.0251903    0.8517798   -1.8682071 
H    -2.4945874   -1.7692550   -0.3919924 
H    -2.4165326    0.0309959   -2.0723551 
C    -3.5696795   -2.6985105    4.2334106 
C    -3.2240464   -3.5302175    3.1578587 
C    -2.8514547   -2.9711568    1.9314778 
C    -2.8104599   -1.5692928    1.7497224 
C    -3.1475957   -0.7448987    2.8500941 
C    -3.5282784   -1.3036925    4.0734780 
H    -3.8680094   -3.1338299    5.1924864 
H    -3.2448769   -4.6181390    3.2748268 
H    -2.5902516   -3.6292932    1.0959025 
H    -3.1243432    0.3446869    2.7509557 
H    -3.7967301   -0.6476608    4.9081112 
C    -3.3288023    4.7495337   -2.6017948 
C    -3.0413498    4.5266688   -1.2449375 
C    -2.6833807    3.2507762   -0.8023553 
C    -2.6184390    2.1637542   -1.7059439 
C    -2.8811659    2.4101563   -3.0725104 
C    -3.2374762    3.6886322   -3.5146877 
H    -3.6114363    5.7493531   -2.9468658 
H    -3.0928898    5.3540939   -0.5296357 
H    -2.4453805    3.0986812    0.2538093 
H    -2.8195695    1.5839500   -3.7889481 
H    -3.4424147    3.8577344   -4.5763618 
O     1.0215151    1.6981271    2.8397680 
O     1.4491837    3.0417276    1.0242969 
N     2.4373119    0.9713853    1.2672600 
C     3.2350487    0.9235350    0.0260591 
C     2.7408881   -1.3122213    0.9742636 
C     3.5193018   -0.6026595   -0.1567066 
C     2.7183711   -0.2255980    2.0588644 
C     2.6001362    1.5884343   -1.1957830 
C     1.6224996    2.0056777    1.6603129 
C     1.1231406   -3.1837957   -0.6458504 
C     0.4725484   -2.5818007    2.1082322 
C     1.5094019   -0.4327435   -3.0996030 
C     0.4960037    2.2644077   -2.9186073 
C     0.1910640    2.6905059    3.5653622 
C    -0.0753098   -3.8033451   -1.0642918 
C    -0.0023621   -1.7572229    3.1499748 
C     2.3485971   -3.6700744   -1.1413559 
C     0.6496917   -3.9609229    2.3377686 
C     0.5699851   -1.4373175   -3.4104029 
C     0.3412587    2.1417654   -4.3132892 
C     2.7425404   -0.4177753   -3.7838456 
C     0.2960597    3.5180947   -2.2991603 
C     1.0584649    3.8970394    3.9442380 
C    -1.0201150    3.0806948    2.7090143 
C    -0.2492454    1.9057902    4.8067853 
C    -0.0500094   -4.8877049   -1.9476339 
C    -0.2521160   -2.2980589    4.4166282 
C     2.3700993   -4.7450415   -2.0434665 
C     0.3765733   -4.4996372    3.6033370 
C     1.1759570   -5.3577291   -2.4456491 
C    -0.0633195   -3.6694939    4.6449446 
C     0.8556256   -2.4083884   -4.3786653 
C     0.0332863    3.2716964   -5.0854586 
C     3.0337201   -1.3997077   -4.7406266 
C    -0.0064857    4.6395810   -3.0795615 
C     2.0915343   -2.3953844   -5.0404250 
C    -0.1300586    4.5214757   -4.4729418 
H     4.1913805    1.4543944    0.2053963 
H     3.2295313   -2.2385193    1.3212743 
H     3.2355349   -0.9478008   -1.1636493 
H     4.5962781   -0.8088805   -0.0369469 
H     3.7174013   -0.1550797    2.5368973 
H     1.9752211   -0.3625843    2.8517167 
H     3.3370275    1.6029537   -2.0171042 
H     2.3574051    2.6326060   -0.9560454 
H    -1.0338689   -3.4343363   -0.6858084 
H    -0.1715815   -0.6908157    2.9652438 
H     3.2975619   -3.2257653   -0.8309067 
H     1.0054450   -4.6129776    1.5332746 
H    -0.3878671   -1.4621668   -2.8777334 
H     0.4822468    1.1727203   -4.8021847 
H     3.4835601    0.3622934   -3.5820558 
H     0.3918819    3.6185371   -1.2117253 
H     1.4037634    4.4279277    3.0441735 
H     0.4694487    4.5949039    4.5634005 
H     1.9338028    3.5683126    4.5297610 
H    -0.7107067    3.6679792    1.8329812 
H    -1.7272733    3.6733135    3.3140624 
H    -1.5349031    2.1675384    2.3652684 
H    -0.8774199    1.0440040    4.5220746 
H     0.6292140    1.5341710    5.3599864 
H    -0.8361251    2.5582828    5.4744346 
H    -0.9878263   -5.3636696   -2.2524325 
H    -0.6134263   -1.6492794    5.2203241 
H     3.3295934   -5.1070656   -2.4265317 
H     0.5163032   -5.5718262    3.7766119 
H     1.1988482   -6.2000956   -3.1445345 
H    -0.2690952   -4.0934429    5.6331951 
H     0.1170211   -3.1835806   -4.6034211 
H    -0.0702711    3.1723561   -6.1710963 
H     3.9973925   -1.3802915   -5.2600862 
H    -0.1538204    5.6094124   -2.5943737 
H     2.3215278   -3.1598317   -5.7897419 
H    -0.3629422    5.4031699   -5.0788545 
