105
Energy =
C    -2.6022238   -0.5497508    1.0388386 
C    -2.4159716    0.8052532    0.6581085 
C    -2.5296791    1.2282275   -0.6907892 
H    -2.0399768    1.5196193    1.4014637 
Pd   -0.9007178   -0.3417869   -0.4398047 
P     0.4697787   -2.0899377    0.2949732 
P     0.5261614    0.4735654   -2.1296169 
H    -3.2202869   -1.1789381    0.3802839 
H    -3.1701326    0.6350745   -1.3609746 
C    -2.3834734   -1.9491282    5.1004792 
C    -1.7038915   -0.7765253    4.7319018 
C    -1.7485029   -0.3191005    3.4111741 
C    -2.4775402   -1.0279559    2.4265453 
C    -3.1383667   -2.2163261    2.8079520 
C    -3.0972950   -2.6686146    4.1319262 
H    -2.3499313   -2.3029280    6.1359687 
H    -1.1341194   -0.2151429    5.4793016 
H    -1.2043542    0.5925185    3.1447508 
H    -3.7011018   -2.7820503    2.0577822 
H    -3.6213862   -3.5893240    4.4065892 
C    -1.8421697    5.2981511   -1.9022193 
C    -1.0880077    4.7428345   -0.8555597 
C    -1.3058358    3.4191852   -0.4635601 
C    -2.2738148    2.6191432   -1.1101308 
C    -3.0130935    3.1842655   -2.1713301 
C    -2.8033424    4.5136681   -2.5575836 
H    -1.6741451    6.3344905   -2.2129819 
H    -0.3181389    5.3326742   -0.3477365 
H    -0.6966097    2.9974769    0.3385648 
H    -3.7605260    2.5770733   -2.6923010 
H    -3.3879566    4.9360861   -3.3810091 
O     0.7636707    2.1178998    2.9579455 
O     1.6098135    3.2999958    1.1729611 
N     1.5940561    1.0049206    1.1863183 
C     2.4593201    0.9309478   -0.0100627 
C     2.0237337   -1.3146237    0.9906695 
C     2.8891564   -0.5628875   -0.0533073 
C     1.6468328   -0.2135735    2.0028957 
C     1.7912258    1.5216344   -1.2769163 
C     1.3443109    2.2460815    1.7417679 
C     0.9830666   -3.2898090   -0.9977742 
C    -0.0724924   -3.2532271    1.6306114 
C     1.4800718   -0.6318368   -3.2684202 
C    -0.2592719    1.5709252   -3.3851304 
C     0.5386711    3.3165819    3.8244084 
C    -0.0244036   -3.7972910   -1.8453993 
C     0.4212457   -3.1969467    2.9497611 
C     2.2930331   -3.7951492   -1.1089839 
C    -0.9941033   -4.2705483    1.2985741 
C     2.8531696   -0.4549067   -3.5365530 
C     0.2333465    2.8487977   -3.7063448 
C     0.7758381   -1.6284983   -3.9715973 
C    -1.3529915    1.0508610   -4.1088260 
C    -0.4661596    4.2608036    3.1540431 
C    -0.0483357    2.7011761    5.0981557 
C     1.8867014    3.9908898    4.1082415 
C     0.2620291   -4.8191141   -2.7584221 
C     0.0257684   -4.1517510    3.8979755 
C     2.5849288   -4.7897271   -2.0534118 
C    -1.3755900   -5.2288984    2.2441733 
C     1.5699875   -5.3131825   -2.8675672 
C    -0.8620882   -5.1764226    3.5479586 
C     3.5054998   -1.2678394   -4.4744180 
C    -0.3509369    3.5836363   -4.7488509 
C     1.4255133   -2.4301488   -4.9174162 
C    -1.9202036    1.7800980   -5.1600073 
C     2.7939868   -2.2558997   -5.1685128 
C    -1.4162457    3.0487410   -5.4851777 
H     3.3447739    1.5697828    0.1668891 
H     2.5985414   -2.1197126    1.4779027 
H     2.8085967   -0.9978625   -1.0608122 
H     3.9474881   -0.6492642    0.2435610 
H     2.4232733   -0.1315902    2.7901375 
H     0.6802658   -0.3772530    2.5023773 
H     2.5724014    1.8065395   -2.0024264 
H     1.2862448    2.4562551   -0.9825344 
H    -1.0375119   -3.3804494   -1.7924019 
H     1.1266609   -2.4235901    3.2615994 
H     3.0928500   -3.4277961   -0.4586509 
H    -1.4044638   -4.3346316    0.2868227 
H     3.4315854    0.3193708   -3.0241260 
H     1.0666540    3.2878828   -3.1511362 
H    -0.2895475   -1.7832548   -3.7766555 
H    -1.7670852    0.0709080   -3.8448706 
H    -1.3871518    3.7163745    2.8830093 
H    -0.7398939    5.0609046    3.8626985 
H    -0.0386183    4.7187229    2.2508735 
H    -1.0276298    2.2368038    4.8968048 
H    -0.1900439    3.4870202    5.8582912 
H     0.6331282    1.9362656    5.5068709 
H     2.5925169    3.2646114    4.5467757 
H     2.3218089    4.4106093    3.1892321 
H     1.7382041    4.8081696    4.8342081 
H    -0.5318826   -5.2142906   -3.4006025 
H     0.4220552   -4.0901327    4.9165641 
H     3.6088219   -5.1670881   -2.1415356 
H    -2.0776033   -6.0191489    1.9586763 
H     1.8009113   -6.1008366   -3.5919751 
H    -1.1580721   -5.9260353    4.2887748 
H     4.5730207   -1.1190535   -4.6672826 
H     0.0336806    4.5813632   -4.9835807 
H     0.8615618   -3.2013901   -5.4511966 
H    -2.7633454    1.3617459   -5.7195604 
H     3.3036887   -2.8871380   -5.9034811 
H    -1.8613884    3.6236812   -6.3036078 
