105
Energy =
C    -2.8035158    0.2953554   -1.2131496 
C    -2.9232713   -1.1064562   -1.0335496 
C    -2.7662243   -1.6955009    0.2486592 
H    -3.0213725   -1.7572045   -1.9110169 
Pd   -0.8775471   -0.6063032   -0.3698503 
P     0.5672811   -1.9098117    0.9124686 
P     0.5558709    0.9857740   -1.3447273 
H    -2.9718494    0.9202982   -0.3243939 
H    -2.9604945   -1.0512834    1.1196455 
C    -3.4768811    2.4185588   -4.8870622 
C    -3.2720738    1.0286869   -4.9175441 
C    -3.0126838    0.3272136   -3.7376401 
C    -2.9699297    0.9997684   -2.4937453 
C    -3.1526260    2.4021768   -2.4813488 
C    -3.4045053    3.1043582   -3.6659236 
H    -3.6846683    2.9634249   -5.8137205 
H    -3.3086322    0.4904433   -5.8697891 
H    -2.8434266   -0.7527777   -3.7869338 
H    -3.1057902    2.9410973   -1.5292387 
H    -3.5535391    4.1885617   -3.6330122 
C    -3.1171525   -5.8952118    1.1212181 
C    -3.4174797   -4.9313618    2.0941573 
C    -3.2879248   -3.5695242    1.7980851 
C    -2.8672007   -3.1419335    0.5195097 
C    -2.5787200   -4.1252495   -0.4548674 
C    -2.6970523   -5.4854403   -0.1555727 
H    -3.2107883   -6.9611917    1.3528493 
H    -3.7467118   -5.2390350    3.0917302 
H    -3.5107949   -2.8229516    2.5674507 
H    -2.2493455   -3.8256836   -1.4543485 
H    -2.4597675   -6.2315939   -0.9209642 
O     2.0898034    2.7956395    2.7102929 
O     3.0970846    3.2767995    0.6888189 
N     2.3564246    1.1685000    1.1949705 
C     3.0829212    0.5857117    0.0525110 
C     2.1784917   -1.1741286    1.5447782 
C     3.2063657   -0.9098848    0.4213029 
C     2.0120935    0.1932196    2.2367953 
C     2.4213838    0.8939791   -1.3035585 
C     2.5604369    2.5084799    1.4773271 
C     1.1598811   -3.3761266   -0.0202794 
C    -0.1923454   -2.5118150    2.4765287 
C     0.3245551    0.9231252   -3.1740506 
C     0.1504759    2.6895048   -0.7987577 
C     2.3948510    4.0976051    3.3664097 
C     0.6556375   -3.5926071   -1.3179475 
C    -0.8565942   -1.5606800    3.2825211 
C     2.1446283   -4.2521571    0.4875847 
C    -0.1339252   -3.8517101    2.9036514 
C    -0.0390940    2.0206848   -3.9738071 
C     0.7581959    3.8256484   -1.3725807 
C     0.5485926   -0.3312079   -3.7859106 
C    -0.8182407    2.8677606    0.2089966 
C     3.9165446    4.2679244    3.4618331 
C     1.7250072    5.2385715    2.5947322 
C     1.7659051    3.9163386    4.7512048 
C     1.1056507   -4.6731519   -2.0888594 
C    -1.4089092   -1.9344709    4.5141894 
C     2.5919493   -5.3329476   -0.2838844 
C    -0.6976708   -4.2233941    4.1331775 
C     2.0714674   -5.5473815   -1.5701787 
C    -1.3243667   -3.2679814    4.9450776 
C    -0.1443712    1.8714734   -5.3648937 
C     0.3464302    5.1105212   -0.9962072 
C     0.4405262   -0.4747029   -5.1742738 
C    -1.2263862    4.1532336    0.5870498 
C     0.1003688    0.6314128   -5.9690166 
C    -0.6579959    5.2767018   -0.0314045 
H     4.0885095    1.0416505    0.0060110 
H     2.5551171   -1.9176030    2.2668792 
H     3.0731247   -1.5719316   -0.4504937 
H     4.2172300   -1.1059067    0.8166965 
H     2.7000580    0.2783553    3.0996950 
H     0.9963309    0.3829296    2.6189775 
H     2.7279928    0.1533762   -2.0617083 
H     2.7603306    1.8829098   -1.6564962 
H    -0.0917752   -2.8975112   -1.7186921 
H    -0.9558084   -0.5245000    2.9372421 
H     2.5710166   -4.0951280    1.4840859 
H     0.3232114   -4.6161705    2.2695698 
H    -0.2591160    2.9897510   -3.5194932 
H     1.5519555    3.7162146   -2.1179876 
H     0.8177536   -1.1991305   -3.1711875 
H    -1.2502337    1.9869563    0.6979710 
H     4.3681983    3.3987837    3.9707083 
H     4.3645666    4.3756026    2.4623653 
H     4.1469185    5.1709816    4.0522732 
H     0.6389804    5.0655983    2.5277354 
H     2.1352646    5.3168547    1.5772927 
H     1.8955448    6.1895144    3.1280625 
H     0.6827090    3.7280212    4.6597949 
H     2.2281461    3.0651435    5.2790333 
H     1.9148200    4.8273513    5.3545310 
H     0.7035758   -4.8299757   -3.0952012 
H    -1.9135600   -1.1858789    5.1337351 
H     3.3535131   -6.0083063    0.1193944 
H    -0.6553672   -5.2706774    4.4493443 
H     2.4260753   -6.3920877   -2.1696873 
H    -1.7599911   -3.5628982    5.9052238 
H    -0.4312218    2.7335313   -5.9754026 
H     0.8183802    5.9852447   -1.4548097 
H     0.6251799   -1.4501284   -5.6366529 
H    -1.9844422    4.2774919    1.3673855 
H     0.0182283    0.5229473   -7.0553986 
H    -0.9781716    6.2829329    0.2576851 
