105
Energy =
C    -2.5364188    1.1145806    0.4192303 
C    -2.9445513   -0.1658490   -0.0106912 
C    -2.6708442   -1.3345962    0.7627249 
H    -3.3794788   -0.2708711   -1.0120788 
Pd   -0.7578730   -0.3398044    0.1856755 
P     0.6919398   -2.0077468    1.0048472 
P     0.8012988    0.7989789   -1.1640898 
H    -2.2869098    1.2361361    1.4852524 
H    -2.6421880   -1.2294063    1.8547318 
C    -3.5314162    4.7913256   -1.5483867 
C    -3.4383306    3.6089232   -2.3035459 
C    -3.0781920    2.4085238   -1.6886704 
C    -2.8107574    2.3632628   -0.2993522 
C    -2.8761360    3.5663473    0.4411102 
C    -3.2424773    4.7679794   -0.1761695 
H    -3.8173979    5.7297776   -2.0342593 
H    -3.6365870    3.6297320   -3.3794963 
H    -2.9890800    1.5003944   -2.2936161 
H    -2.6606674    3.5459233    1.5148635 
H    -3.3055208    5.6867446    0.4160146 
C    -3.3754321   -5.3397087   -0.6687864 
C    -3.3149504   -4.2722043   -1.5807423 
C    -3.0921022   -2.9691072   -1.1255427 
C    -2.9350439   -2.6965144    0.2564253 
C    -3.0158209   -3.7793776    1.1607684 
C    -3.2270414   -5.0854351    0.7023103 
H    -3.5428256   -6.3608024   -1.0263957 
H    -3.4364496   -4.4589582   -2.6530868 
H    -3.0206790   -2.1572670   -1.8571038 
H    -2.9077494   -3.5923704    2.2336149 
H    -3.2777489   -5.9077147    1.4233717 
O     1.8127832    3.2335014    1.7036248 
O     0.6438342    2.1932918    3.3928604 
N     1.9216349    0.9875118    1.9271139 
C     2.9155271    0.8470342    0.8463408 
C     2.2387352   -1.3368931    1.8288861 
C     3.2388512   -0.6749103    0.8505152 
C     1.8905837   -0.1937053    2.7903591 
C     2.4431665    1.3981088   -0.5092609 
C     1.3942215    2.1632116    2.4258451 
C     1.2947364   -3.2708986   -0.1763972 
C    -0.0371148   -2.9954168    2.3820443 
C     1.1107665   -0.4582303   -2.4719403 
C     0.2782565    2.2988201   -2.0939466 
C     1.6223018    4.6226987    2.2180231 
C     2.5855302   -3.8386043   -0.1168134 
C    -0.7274688   -2.3272599    3.4172663 
C     0.3775597   -3.7418732   -1.1362973 
C     0.0786743   -4.3987305    2.4294333 
C    -0.0302411   -0.9779839   -3.1266702 
C     0.0674213    3.4735255   -1.3401882 
C     2.3797698   -0.9507871   -2.8262567 
C     0.1308911    2.3405934   -3.4939162 
C     0.1289541    4.9672648    2.2866497 
C     2.3083163    4.7428847    3.5847731 
C     2.3427343    5.4635664    1.1593281 
C     2.9489355   -4.8525784   -1.0142328 
C    -1.2711521   -3.0467804    4.4892996 
C     0.7394271   -4.7676479   -2.0174444 
C    -0.4793773   -5.1165995    3.4978503 
C     2.0269773   -5.3210451   -1.9626288 
C    -1.1506213   -4.4452769    4.5297805 
C     0.1003454   -1.9476743   -4.1261722 
C    -0.2448943    4.6774125   -1.9790817 
C     2.5060185   -1.9437086   -3.8100031 
C    -0.1997469    3.5485894   -4.1273285 
C     1.3710037   -2.4381288   -4.4658282 
C    -0.3799387    4.7180084   -3.3758608 
H     3.8266061    1.4217074    1.1051008 
H     2.6868566   -2.1857009    2.3713142 
H     3.1880905   -1.1069715   -0.1619510 
H     4.2651856   -0.8417359    1.2179723 
H     2.6574880   -0.1201645    3.5891605 
H     0.9142927   -0.2715925    3.2862542 
H     3.2190251    1.2263583   -1.2761247 
H     2.3248727    2.4879306   -0.4206103 
H     3.3125862   -3.5077721    0.6308065 
H    -0.8586310   -1.2397677    3.3806492 
H    -0.6269903   -3.3117522   -1.1834541 
H     0.5920441   -4.9353430    1.6259145 
H    -1.0262683   -0.6117845   -2.8498506 
H     0.1676131    3.4437744   -0.2508444 
H     3.2841359   -0.5651220   -2.3455104 
H     0.2964127    1.4428083   -4.0969141 
H    -0.3875623    4.3200338    3.0105073 
H     0.0161690    6.0190201    2.6009947 
H    -0.3468219    4.8554022    1.2981796 
H     1.8004619    4.1214256    4.3378011 
H     2.2798409    5.7945788    3.9167002 
H     3.3648389    4.4332432    3.5097039 
H     3.4054034    5.1757950    1.0946917 
H     1.8809115    5.3260791    0.1672675 
H     2.2848038    6.5316926    1.4272152 
H     3.9536552   -5.2849906   -0.9638195 
H    -1.7988897   -2.5150540    5.2876698 
H     0.0120355   -5.1280876   -2.7517487 
H    -0.3902993   -6.2077354    3.5189499 
H     2.3131583   -6.1185130   -2.6562391 
H    -1.5846405   -5.0092742    5.3617161 
H    -0.7920047   -2.3323180   -4.6308640 
H    -0.3988348    5.5825040   -1.3831657 
H     3.4990972   -2.3259523   -4.0665679 
H    -0.3004296    3.5749483   -5.2174495 
H     1.4749011   -3.2091906   -5.2358237 
H    -0.6290840    5.6593343   -3.8762850 
