105
Energy =
C    -2.5976337   -0.5531048    1.0462327 
C    -2.4147419    0.8020239    0.6640320 
C    -2.5333957    1.2236227   -0.6847921 
H    -2.0376431    1.5175896    1.4056735 
Pd   -0.9008403   -0.3443510   -0.4366759 
P     0.4744685   -2.0891479    0.2963166 
P     0.5205223    0.4709052   -2.1311922 
H    -3.2165180   -1.1835579    0.3896507 
H    -3.1745592    0.6283640   -1.3524240 
C    -2.3693485   -1.9489095    5.1085544 
C    -1.6932480   -0.7748797    4.7381476 
C    -1.7406884   -0.3186916    3.4170798 
C    -2.4690771   -1.0302808    2.4339453 
C    -3.1259622   -2.2203035    2.8170700 
C    -3.0821739   -2.6712863    4.1413931 
H    -2.3338822   -2.3015830    6.1443660 
H    -1.1241353   -0.2112591    5.4843712 
H    -1.1994820    0.5942456    3.1492156 
H    -3.6879287   -2.7882654    2.0680153 
H    -3.6034418   -3.5931722    4.4174724 
C    -1.8556212    5.2930164   -1.9033377 
C    -1.0976287    4.7401860   -0.8581239 
C    -1.3123504    3.4167272   -0.4637773 
C    -2.2809837    2.6143906   -1.1065364 
C    -3.0241762    3.1770594   -2.1663014 
C    -2.8175028    4.5062516   -2.5549058 
H    -1.6901073    6.3292292   -2.2158655 
H    -0.3271750    5.3318283   -0.3532928 
H    -0.7002236    2.9970695    0.3372047 
H    -3.7721126    2.5680151   -2.6843741 
H    -3.4051238    4.9267216   -3.3771913 
O     0.7651766    2.1234612    2.9530780 
O     1.6079092    3.3046510    1.1658281 
N     1.5945030    1.0095963    1.1815328 
C     2.4572685    0.9355700   -0.0166213 
C     2.0280302   -1.3095263    0.9881444 
C     2.8900766   -0.5574689   -0.0583948 
C     1.6505788   -0.2078309    1.9994836 
C     1.7850798    1.5231455   -1.2828616 
C     1.3441991    2.2510494    1.7360212 
C     0.9873569   -3.2881748   -0.9972182 
C    -0.0621687   -3.2526258    1.6339339 
C     1.4747641   -0.6327911   -3.2715143 
C    -0.2717670    1.5644433   -3.3857591 
C     0.5413110    3.3225196    3.8192392 
C    -0.0206498   -3.7964184   -1.8437299 
C    -0.9802411   -4.2738933    1.3041642 
C     2.2977123   -3.7921704   -1.1100887 
C     0.4321263   -3.1922047    2.9527016 
C     0.7709268   -1.6291334   -3.9755912 
C    -1.3683472    1.0415557   -4.1030425 
C     2.8477265   -0.4549452   -3.5397657 
C     0.2182542    2.8419037   -3.7125075 
C     1.8897533    3.9969660    4.1007993 
C    -0.4644957    4.2664658    3.1499207 
C    -0.0438460    2.7077246    5.0941453 
C     0.2657024   -4.8177914   -2.7572993 
C    -1.3580623   -5.2316613    2.2518267 
C     2.5894745   -4.7861397   -2.0551801 
C     0.0403335   -4.1465000    3.9029308 
C     1.5740355   -5.3104525   -2.8681839 
C    -0.8442968   -5.1747862    3.5553298 
C     1.4208522   -2.4295607   -4.9222427 
C    -1.9409945    1.7675321   -5.1535542 
C     3.5003100   -1.2666296   -4.4785513 
C    -0.3715569    3.5735899   -4.7541389 
C     2.7892064   -2.2544001   -5.1734410 
C    -1.4397132    3.0358029   -5.4842419 
H     3.3417864    1.5764865    0.1574157 
H     2.6054367   -2.1126744    1.4755142 
H     2.8087819   -0.9941836   -1.0650723 
H     3.9490744   -0.6411566    0.2368673 
H     2.4279412   -0.1234777    2.7855623 
H     0.6850031   -0.3726476    2.5005150 
H     2.5640082    1.8089750   -2.0104202 
H     1.2786081    2.4569937   -0.9885607 
H    -1.0340718   -3.3805001   -1.7893558 
H    -1.3904944   -4.3415181    0.2925900 
H     3.0978700   -3.4241934   -0.4605162 
H     1.1350371   -2.4158309    3.2626845 
H    -0.2943864   -1.7845527   -3.7808104 
H    -1.7806704    0.0621515   -3.8342950 
H     3.4258420    0.3191781   -3.0267868 
H     1.0538488    3.2830838   -3.1623826 
H     2.3236228    4.4160207    3.1808886 
H     1.7423440    4.8147639    4.8263939 
H     2.5961359    3.2709292    4.5388321 
H    -0.0382988    4.7239475    2.2458990 
H    -0.7371710    5.0668611    3.8586551 
H    -1.3858781    3.7219071    2.8804768 
H    -1.0234835    2.2433256    4.8944780 
H     0.6381592    1.9429218    5.5021570 
H    -0.1843594    3.4939059    5.8541543 
H    -0.5285909   -5.2136603   -3.3985790 
H    -2.0572968   -6.0250153    1.9681178 
H     3.6136920   -5.1622630   -2.1448197 
H     0.4368586   -4.0815739    4.9212178 
H     1.8048638   -6.0977310   -3.5930310 
H    -1.1375626   -5.9238319    4.2978005 
H     0.8571833   -3.2005679   -5.4566748 
H    -2.7862646    1.3469237   -5.7081850 
H     4.5676866   -1.1169922   -4.6715618 
H     0.0109409    4.5711308   -4.9930923 
H     3.2991018   -2.8847022   -5.9090773 
H    -1.8891118    3.6082416   -6.3021008 
