105
Energy =
C    -2.4064156   -1.2214543    0.3055202 
C    -2.6427357    0.1122267   -0.1006583 
C    -2.3560324    0.5640095   -1.4129827 
H    -2.9842894    0.8433695    0.6402029 
Pd   -0.4550107   -0.1833395   -0.3746151 
P     1.0795455   -1.6873455    0.6194303 
P     1.0586711    0.9035049   -1.8245849 
H    -2.3175229   -1.9720180   -0.4935715 
H    -2.2892094   -0.1997554   -2.2020835 
C    -3.5764791   -2.9131258    4.0831628 
C    -3.1061258   -3.7310516    3.0449976 
C    -2.7101413   -3.1630038    1.8301068 
C    -2.7697087   -1.7653190    1.6230750 
C    -3.2325942   -0.9536418    2.6865825 
C    -3.6364739   -1.5221018    3.8979979 
H    -3.8930069   -3.3560025    5.0329012 
H    -3.0475725   -4.8152076    3.1822759 
H    -2.3510913   -3.8110784    1.0234371 
H    -3.2895889    0.1326480    2.5672627 
H    -4.0024964   -0.8767981    4.7033897 
C    -3.5526622    4.4167109   -2.8829052 
C    -3.3287850    4.2408539   -1.5072500 
C    -2.8929202    3.0070036   -1.0178346 
C    -2.6846280    1.9147860   -1.8930131 
C    -2.8852780    2.1160228   -3.2773957 
C    -3.3194623    3.3526558   -3.7664184 
H    -3.8966159    5.3833830   -3.2647614 
H    -3.4917372    5.0724226   -0.8137928 
H    -2.7066931    2.8924831    0.0534044 
H    -2.7128713    1.2863413   -3.9713602 
H    -3.4741707    3.4866937   -4.8415187 
O     0.7280921    1.8270628    2.8628184 
O     1.1445451    3.1672579    1.0422250 
N     2.2769988    1.1862998    1.3809971 
C     3.1451857    1.1838257    0.1870712 
C     2.7780789   -1.0697032    1.1509485 
C     3.5611235   -0.3168350    0.0516819 
C     2.6060172    0.0280359    2.2107883 
C     2.5292645    1.7753975   -1.0813235 
C     1.3642121    2.1597178    1.7089969 
C     1.4108752   -3.0909995   -0.5199890 
C     0.5583073   -2.5025674    2.1812407 
C     1.7121467   -0.3576926   -3.0007781 
C     0.4780059    2.2524460   -2.9299170 
C    -0.2250557    2.7583958    3.5149680 
C     0.2920736   -3.8126430   -0.9918390 
C    -0.0403239   -1.7036644    3.1782915 
C     2.6978788   -3.4837905   -0.9360113 
C     0.8326353   -3.8589107    2.4477554 
C     0.8724249   -1.4367062   -3.3459471 
C     0.4158941    2.0982179   -4.3286552 
C     2.9798279   -0.2589171   -3.6110987 
C     0.1393104    3.4934401   -2.3461408 
C     0.5115687    4.0440489    3.9102079 
C    -1.4134352    3.0227600    2.5818251 
C    -0.6674345    1.9643898    4.7497421 
C     0.4552101   -4.9058065   -1.8492247 
C    -0.3173300   -2.2433864    4.4397277 
C     2.8574951   -4.5680735   -1.8126501 
C     0.5320031   -4.3985683    3.7066886 
C     1.7415482   -5.2825972   -2.2678300 
C    -0.0318286   -3.5911096    4.7055270 
C     1.2890217   -2.3983516   -4.2753468 
C     0.0610507    3.1877555   -5.1379096 
C     3.4024044   -1.2311606   -4.5280567 
C    -0.2088979    4.5748865   -3.1631374 
C     2.5584611   -2.3011767   -4.8625338 
C    -0.2407655    4.4277225   -4.5588826 
H     4.0439590    1.7936022    0.4079327 
H     3.3186440   -1.9477588    1.5433868 
H     3.3650132   -0.6998072   -0.9625208 
H     4.6424010   -0.4330556    0.2364056 
H     3.5665582    0.1858700    2.7436313 
H     1.8310498   -0.1562469    2.9626479 
H     3.3079082    1.8373554   -1.8609515 
H     2.1901606    2.8000683   -0.8765921 
H    -0.7132000   -3.5168615   -0.6753793 
H    -0.2850252   -0.6577864    2.9628366 
H     3.5886490   -2.9587353   -0.5822250 
H     1.2850705   -4.4920989    1.6774915 
H    -0.1109355   -1.5271226   -2.8699461 
H     0.6649583    1.1377418   -4.7906030 
H     3.6463849    0.5787726   -3.3821829 
H     0.1630404    3.6165057   -1.2570528 
H     0.8615762    4.5839066    3.0173598 
H    -0.1705416    4.7003172    4.4771145 
H     1.3765288    3.8058746    4.5522679 
H    -1.1056544    3.6178706    1.7105135 
H    -2.2040326    3.5621662    3.1307869 
H    -1.8253012    2.0609838    2.2319525 
H    -1.2011179    1.0448300    4.4527920 
H     0.2061315    1.6832949    5.3610504 
H    -1.3464509    2.5767394    5.3660575 
H    -0.4221832   -5.4617247   -2.1957836 
H    -0.7751398   -1.6140090    5.2089142 
H     3.8634315   -4.8570747   -2.1335962 
H     0.7473572   -5.4530285    3.9087814 
H     1.8721581   -6.1318724   -2.9462446 
H    -0.2584704   -4.0151065    5.6891754 
H     0.6263004   -3.2315309   -4.5273575 
H     0.0295235    3.0653006   -6.2256649 
H     4.3918712   -1.1463779   -4.9891924 
H    -0.4641200    5.5355233   -2.7052115 
H     2.8910569   -3.0578563   -5.5805388 
H    -0.5100474    5.2784583   -5.1932859 
