105
Energy =
C    -2.2606883   -2.6911846   -1.1964387 
C    -2.7761239   -1.4444809   -1.6404147 
C    -2.1807645   -0.7650192   -2.7349922 
H    -3.5627450   -0.9426569   -1.0633004 
Pd   -0.6896631   -1.0579302   -1.0427579 
P     0.3835173   -2.0193557    0.7960873 
P     0.6748086    0.7886738   -1.5778968 
H    -1.6900834   -3.2713704   -1.9366276 
H    -1.6194595   -1.3778202   -3.4570460 
C    -3.8566796   -5.1392965    1.9550042 
C    -4.2449089   -3.7922555    1.8605662 
C    -3.7148038   -2.9729604    0.8606000 
C    -2.7926619   -3.4887402   -0.0800175 
C    -2.3957784   -4.8407371    0.0401140 
C    -2.9231166   -5.6584328    1.0464992 
H    -4.2775670   -5.7781812    2.7381666 
H    -4.9618411   -3.3774993    2.5759102 
H    -4.0225237   -1.9239333    0.8121765 
H    -1.6751690   -5.2542412   -0.6735205 
H    -2.6110788   -6.7056522    1.1149820 
C    -3.5731872    2.9653551   -4.3592919 
C    -3.6935223    2.7224346   -2.9803773 
C    -3.2421952    1.5162718   -2.4370484 
C    -2.6479170    0.5313340   -3.2587873 
C    -2.5234594    0.7936784   -4.6404249 
C    -2.9908537    1.9947001   -5.1867282 
H    -3.9306221    3.9091587   -4.7838148 
H    -4.1401150    3.4784912   -2.3263165 
H    -3.3387550    1.3439272   -1.3609209 
H    -2.0513653    0.0481411   -5.2887857 
H    -2.8882359    2.1767282   -6.2612362 
O     2.3116645    2.8432084    2.5699443 
O     3.7100643    3.0490292    0.7435410 
N     2.5000433    1.1456694    1.1224993 
C     3.1228282    0.4195631    0.0155404 
C     1.8674512   -1.1211851    1.5006179 
C     3.0126587   -1.0557674    0.4535129 
C     1.5776563    0.3430354    1.9223161 
C     2.5310603    0.7571331   -1.3676517 
C     2.9115459    2.4237990    1.4328410 
C     1.1122951   -3.6710311    0.4499149 
C    -0.7476453   -2.1867339    2.2368238 
C     0.6206197    1.1783908   -3.3782811 
C     0.1269732    2.3012094   -0.6974973 
C     2.8146110    4.0330818    3.3076795 
C     1.0351860   -4.1911324   -0.8576925 
C    -0.9119979   -3.3786959    2.9685324 
C     1.8273500   -4.3932289    1.4311271 
C    -1.4883122   -1.0436368    2.6145557 
C     0.2668696    2.4375451   -3.8941638 
C     0.8080158    3.5309967   -0.8206944 
C     0.9801734    0.1414166   -4.2668510 
C    -1.0287321    2.2316665    0.1054585 
C     1.9396203    4.0257423    4.5650152 
C     4.2945123    3.8212238    3.6530201 
C     2.5868291    5.3046062    2.4822579 
C     1.6286313   -5.4212532   -1.1745979 
C    -1.7644322   -3.4099003    4.0812776 
C     2.4157324   -5.6246181    1.1139577 
C    -2.3297543   -1.0773644    3.7331254 
C     2.3124654   -6.1435257   -0.1863260 
C    -2.4629099   -2.2603711    4.4753959 
C     0.3077516    2.6641249   -5.2785878 
C     0.3185877    4.6693570   -0.1691522 
C     1.0189020    0.3728032   -5.6472543 
C    -1.5068099    3.3694531    0.7690478 
C     0.6898861    1.6403672   -6.1553522 
C    -0.8375793    4.5926455    0.6234397 
H     4.1804936    0.7300874   -0.0363026 
H     2.1768696   -1.7092950    2.3799607 
H     2.8461594   -1.7315957   -0.4035438 
H     3.9558305   -1.3716611    0.9274147 
H     1.7564052    0.5117481    2.9957101 
H     0.5319688    0.6438160    1.7186159 
H     2.9168750    0.0511255   -2.1242962 
H     2.8769119    1.7629394   -1.6639083 
H     0.5162090   -3.6166374   -1.6331459 
H    -0.3988195   -4.2934993    2.6621197 
H     1.9305426   -3.9992429    2.4478155 
H    -1.4116445   -0.1233133    2.0259427 
H    -0.0594556    3.2387809   -3.2253864 
H     1.7250545    3.6084091   -1.4120794 
H     1.2323450   -0.8530121   -3.8758929 
H    -1.5522615    1.2720692    0.1992384 
H     2.0935816    3.0970560    5.1401431 
H     2.1953100    4.8844321    5.2080574 
H     0.8738057    4.0960305    4.2888379 
H     4.4279327    2.8683102    4.1937811 
H     4.6401204    4.6402340    4.3064646 
H     4.9132713    3.8106359    2.7426664 
H     3.1474835    5.2601845    1.5368946 
H     1.5139289    5.4281649    2.2643810 
H     2.9268351    6.1798861    3.0620019 
H     1.5606692   -5.8123189   -2.1949904 
H    -1.8886637   -4.3457242    4.6354731 
H     2.9617789   -6.1786078    1.8844474 
H    -2.8883060   -0.1802074    4.0195889 
H     2.7751883   -7.1052801   -0.4303333 
H    -3.1232881   -2.2904757    5.3481248 
H     0.0263169    3.6469076   -5.6700972 
H     0.8516518    5.6191378   -0.2739170 
H     1.3071952   -0.4354828   -6.3274487 
H    -2.4038415    3.3015751    1.3933546 
H     0.7223482    1.8235862   -7.2342645 
H    -1.2110555    5.4864676    1.1338705 
