105
Energy =
C    -2.6372190   -1.3239669    0.6412557 
C    -2.7853623    0.0651708    0.3687837 
C    -2.6834222    0.5778634   -0.9427985 
H    -2.8678461    0.7579538    1.2153903 
Pd   -0.7481592   -0.5006330   -0.2719829 
P     0.6061590   -2.3306485    0.3333867 
P     0.9011976    0.7471098   -1.4042922 
H    -2.9006629   -2.0296686   -0.1605709 
H    -2.7635226   -0.1452014   -1.7692883 
C    -3.0191311   -2.8818205    4.6314260 
C    -2.3796898   -1.6485220    4.4234802 
C    -2.2358054   -1.1365627    3.1290500 
C    -2.7212433   -1.8597309    2.0138105 
C    -3.3477435   -3.1053223    2.2344610 
C    -3.5033658   -3.6065934    3.5321741 
H    -3.1365301   -3.2772247    5.6457986 
H    -1.9893846   -1.0769371    5.2720746 
H    -1.7244475   -0.1768021    2.9940728 
H    -3.7231542   -3.6788014    1.3806291 
H    -3.9981703   -4.5711888    3.6839682 
C    -3.5457896    4.5960603   -2.1859769 
C    -3.1704688    3.6209184   -3.1226971 
C    -2.8653401    2.3246533   -2.6978324 
C    -2.9225525    1.9739491   -1.3284500 
C    -3.2826518    2.9748444   -0.3940033 
C    -3.5978463    4.2678668   -0.8211348 
H    -3.7961772    5.6089759   -2.5173000 
H    -3.1174875    3.8718904   -4.1865240 
H    -2.5829243    1.5633859   -3.4335814 
H    -3.3401757    2.7382495    0.6729267 
H    -3.8919397    5.0242521   -0.0860027 
O     1.2773600    2.7009642    2.0269462 
O    -0.0025437    1.3605009    3.3865598 
N     1.4817645    0.4540780    1.8993860 
C     2.6348353    0.5312247    0.9778700 
C     1.9718259   -1.8074201    1.4926844 
C     3.0663244   -0.9518922    0.8132475 
C     1.3851700   -0.8568558    2.5479345 
C     2.3482042    1.2759385   -0.3361870 
C     0.8460200    1.5151510    2.5148161 
C     1.4286915   -3.1878717   -1.0669590 
C    -0.1624043   -3.7685580    1.2009235 
C     1.5531634   -0.1325638   -2.8779530 
C     0.4673771    2.4082365   -2.0816028 
C     0.8842098    3.9847372    2.6841831 
C     2.6517497   -3.8718854   -0.9068308 
C    -0.8954504   -4.6946487    0.4279940 
C     0.7556695   -3.2566820   -2.3022676 
C    -0.0294221   -3.9902543    2.5861542 
C     0.6228881   -0.4025437   -3.9072776 
C    -0.0643309    3.3412693   -1.1675347 
C     2.8906644   -0.5332831   -3.0446359 
C     0.7274527    2.8117579   -3.4053899 
C    -0.6321267    4.1964640    2.5730965 
C     1.3614362    3.9643674    4.1418577 
C     1.6586000    5.0196492    1.8624903 
C     3.1944488   -4.6006687   -1.9732953 
C    -1.4534235   -5.8330803    1.0223774 
C     1.2893483   -4.0069570   -3.3583711 
C    -0.5922974   -5.1310869    3.1760949 
C     2.5115977   -4.6747206   -3.1970246 
C    -1.2966269   -6.0589239    2.3979755 
C     1.0329477   -1.0246986   -5.0915375 
C    -0.3014195    4.6622579   -1.5603362 
C     3.2933281   -1.1830031   -4.2214202 
C     0.4717074    4.1345910   -3.7984671 
C     2.3713325   -1.4184561   -5.2499500 
C    -0.0351142    5.0624926   -2.8789237 
H     3.4491038    1.1023172    1.4653586 
H     2.3915890   -2.7170210    1.9519165 
H     3.2179506   -1.2222712   -0.2446029 
H     4.0255383   -1.1253462    1.3283198 
H     1.9872620   -0.8853976    3.4794573 
H     0.3391553   -1.0643023    2.8196574 
H     3.2572751    1.2846071   -0.9632982 
H     2.1265713    2.3253191   -0.0930587 
H     3.1819852   -3.8522568    0.0508770 
H    -1.0094018   -4.5425207   -0.6506075 
H    -0.1888616   -2.7168478   -2.4336683 
H     0.5076653   -3.2862525    3.2261988 
H    -0.4260798   -0.1081156   -3.7812254 
H    -0.2712999    3.0304229   -0.1385345 
H     3.6344788   -0.3398726   -2.2655690 
H     1.1488040    2.1082906   -4.1289703 
H    -1.1779791    3.4270251    3.1383342 
H    -0.8866391    5.1887648    2.9830799 
H    -0.9591243    4.1711371    1.5199996 
H     0.8184407    3.2064269    4.7261209 
H     1.1861799    4.9542844    4.5961352 
H     2.4433394    3.7518165    4.1854699 
H     2.7428629    4.8280054    1.9246181 
H     1.3563120    4.9855403    0.8029757 
H     1.4591858    6.0315408    2.2526827 
H     4.1470726   -5.1244610   -1.8428102 
H    -2.0052556   -6.5497988    0.4052946 
H     0.7552905   -4.0578462   -4.3119608 
H    -0.4803415   -5.2873121    4.2536260 
H     2.9336624   -5.2534947   -4.0250280 
H    -1.7280655   -6.9514721    2.8623231 
H     0.3057608   -1.2111758   -5.8886731 
H    -0.7106297    5.3769726   -0.8397110 
H     4.3354460   -1.4981447   -4.3343002 
H     0.6850048    4.4406755   -4.8279632 
H     2.6922877   -1.9153871   -6.1710538 
H    -0.2266471    6.0950045   -3.1882907 
