105
Energy =
C    -1.9288820    1.5965030   -0.4498916 
C    -2.5113464    0.5274488    0.2994192 
C    -2.0006811    0.1264927    1.5494327 
H    -3.3000493   -0.0724971   -0.1717063 
Pd   -0.3959298    0.0280486   -0.1385835 
P     0.7885326   -1.9347339    0.4310043 
P     1.2011701    1.0111608   -1.5626018 
H    -1.4871504    2.4347441    0.1063345 
H    -1.2821063    0.7932405    2.0511690 
C    -3.3068103    2.5228869   -4.4256762 
C    -2.9355219    3.5484755   -3.5446155 
C    -2.4859374    3.2420863   -2.2543394 
C    -2.3982571    1.9035310   -1.8186837 
C    -2.7843995    0.8780683   -2.7147093 
C    -3.2327020    1.1845095   -4.0041123 
H    -3.6542022    2.7623947   -5.4359288 
H    -2.9902898    4.5943119   -3.8630285 
H    -2.1956599    4.0478663   -1.5740221 
H    -2.7081143   -0.1705456   -2.4020478 
H    -3.5223282    0.3777812   -4.6860368 
C    -3.7076882   -2.8002425    4.1859014 
C    -4.3818431   -2.4578225    3.0023936 
C    -3.8255625   -1.5298552    2.1179994 
C    -2.5858711   -0.9102141    2.4066211 
C    -1.9233000   -1.2621266    3.6063781 
C    -2.4739761   -2.2012814    4.4829073 
H    -4.1456693   -3.5280889    4.8764510 
H    -5.3501093   -2.9139934    2.7719873 
H    -4.3753651   -1.2644276    1.2097290 
H    -0.9697959   -0.7813599    3.8484658 
H    -1.9418621   -2.4660095    5.4019054 
O     0.7779179    1.7369309    3.1404410 
O     1.9316966    3.0239736    1.6226180 
N     2.1413518    0.7368853    1.6612969 
C     3.1720665    0.6643011    0.6017858 
C     2.3755756   -1.5648978    1.3362301 
C     3.4208932   -0.8607594    0.4431751 
C     2.0622998   -0.5167823    2.4166609 
C     2.8151755    1.4043791   -0.6969389 
C     1.6430516    1.9375581    2.1153924 
C     1.2600886   -2.9885681   -0.9970800 
C    -0.0587195   -3.1618080    1.5125514 
C     1.5658704   -0.0074366   -3.0442142 
C     0.8267924    2.6906280   -2.2425058 
C     0.2104253    2.8916440    3.8997408 
C     0.4122660   -3.0079348   -2.1211575 
C    -1.3161900   -3.6309343    1.0777788 
C     2.3834141   -3.8404851   -0.9610435 
C     0.4959414   -3.6867936    2.6965670 
C     0.4880155   -0.2463632   -3.9266819 
C     0.6926781    3.7468340   -1.3130960 
C     2.8243838   -0.5650728   -3.3348051 
C     0.7139297    2.9675990   -3.6175151 
C    -0.6781418    3.7379739    2.9780079 
C    -0.6231632    2.1953765    4.9800372 
C     1.3565856    3.7014951    4.5182256 
C     0.6773724   -3.8727966   -3.1907189 
C    -1.9860984   -4.6299097    1.7911424 
C     2.6562886   -4.6887078   -2.0421416 
C    -0.1824104   -4.6836749    3.4129800 
C     1.8014027   -4.7100159   -3.1548309 
C    -1.4186857   -5.1617370    2.9595073 
C     0.6795119   -0.9953365   -5.0929229 
C     0.4654670    5.0550560   -1.7579763 
C     3.0037535   -1.3423238   -4.4891028 
C     0.4705629    4.2787772   -4.0541615 
C     1.9380326   -1.5492634   -5.3751626 
C     0.3487852    5.3251408   -3.1304538 
H     4.0940816    1.1538181    0.9725347 
H     2.7750470   -2.4974199    1.7643472 
H     3.3521138   -1.1825980   -0.6089239 
H     4.4337409   -1.1203721    0.7922699 
H     2.8174225   -0.5453458    3.2286867 
H     1.0675353   -0.6297019    2.8718570 
H     3.6367112    1.2788202   -1.4238333 
H     2.7524234    2.4786207   -0.4715980 
H    -0.4523840   -2.3353787   -2.1573530 
H    -1.7678558   -3.2134705    0.1700735 
H     3.0456160   -3.8559383   -0.0892325 
H     1.4610704   -3.3361676    3.0736440 
H    -0.5009212    0.1684209   -3.7019855 
H     0.8011260    3.5584334   -0.2387353 
H     3.6795636   -0.3978141   -2.6728668 
H     0.8267238    2.1720104   -4.3583039 
H    -1.4642672    3.1150142    2.5175014 
H    -1.1760318    4.5205063    3.5754008 
H    -0.0843183    4.2205620    2.1882489 
H    -1.4376515    1.6030242    4.5304799 
H    -1.0722388    2.9488534    5.6480064 
H     0.0103464    1.5244979    5.5839528 
H     2.0016594    3.0448640    5.1266266 
H     1.9644868    4.1864777    3.7400986 
H     0.9377548    4.4803075    5.1777654 
H     0.0119046   -3.8814541   -4.0593053 
H    -2.9595041   -4.9867297    1.4409677 
H     3.5332304   -5.3436309   -2.0100208 
H     0.2617509   -5.0874876    4.3287147 
H     2.0131460   -5.3798140   -3.9946243 
H    -1.9449817   -5.9416700    3.5189609 
H    -0.1600111   -1.1550890   -5.7777080 
H     0.3811161    5.8654405   -1.0261661 
H     3.9855489   -1.7789090   -4.6981184 
H     0.3846366    4.4787562   -5.1271785 
H     2.0860631   -2.1466599   -6.2805402 
H     0.1688664    6.3479205   -3.4773884 
