105
Energy =
C    -2.2775627   -2.6641094   -1.1930251 
C    -2.7962151   -1.4056915   -1.5962632 
C    -2.2186727   -0.6950248   -2.6809263 
H    -3.5715489   -0.9196012   -0.9913731 
Pd   -0.6957925   -1.0410138   -1.0262170 
P     0.3847760   -2.0256834    0.7926863 
P     0.6978330    0.7767826   -1.5824081 
H    -1.7149345   -3.2248133   -1.9542007 
H    -1.6703719   -1.2853229   -3.4309111 
C    -3.8280379   -5.1878092    1.9219903 
C    -2.8973590   -5.6809391    0.9961711 
C    -2.3859096   -4.8394915    0.0012450 
C    -2.7953945   -3.4889608   -0.0897636 
C    -3.7158482   -3.0003469    0.8669249 
C    -4.2301421   -3.8431943    1.8554882 
H    -4.2365571   -5.8452712    2.6962790 
H    -2.5755394   -6.7264388    1.0418719 
H    -1.6674115   -5.2330898   -0.7255025 
H    -4.0355328   -1.9542160    0.8399801 
H    -4.9456249   -3.4487762    2.5836500 
C    -3.6210057    3.0909279   -4.1638583 
C    -3.7739987    2.7809509   -2.8015504 
C    -3.3201166    1.5565732   -2.3038248 
C    -2.6906726    0.6185111   -3.1545677 
C    -2.5351553    0.9480627   -4.5186980 
C    -3.0045415    2.1678339   -5.0201691 
H    -3.9805386    4.0492043   -4.5526452 
H    -4.2482609    3.4994079   -2.1250138 
H    -3.4452039    1.3325053   -1.2400225 
H    -2.0350460    0.2404174   -5.1885029 
H    -2.8770059    2.4012083   -6.0820271 
O     2.2829575    2.8468933    2.5533969 
O     3.7020826    3.0410027    0.7417863 
N     2.4915943    1.1381187    1.1221007 
C     3.1310033    0.4040711    0.0297573 
C     1.8626247   -1.1284953    1.5115775 
C     3.0232805   -1.0669409    0.4819407 
C     1.5675119    0.3378472    1.9228544 
C     2.5524648    0.7243001   -1.3632414 
C     2.8969067    2.4197548    1.4268288 
C     1.1150466   -3.6734640    0.4343512 
C    -0.7489881   -2.2036252    2.2301024 
C     0.6573689    1.1137209   -3.3940002 
C     0.1672673    2.3171164   -0.7422752 
C     2.7756901    4.0431763    3.2877991 
C     1.8392138   -4.3987277    1.4065495 
C    -1.5001712   -1.0665070    2.6051478 
C     1.0280445   -4.1876337   -0.8749867 
C    -0.9029805   -3.3959654    2.9632146 
C     0.9809856    0.0369126   -4.2487822 
C     0.8600054    3.5371358   -0.8954362 
C     0.3459021    2.3664219   -3.9508486 
C    -0.9893200    2.2778967    0.0612396 
C     1.8856350    4.0445966    4.5345460 
C     4.2515486    3.8356531    3.6525356 
C     2.5564976    5.3077394    2.4496350 
C     2.4280975   -5.6270768    1.0786966 
C    -2.3420998   -1.1060935    3.7232201 
C     1.6213976   -5.4150436   -1.2023613 
C    -1.7564145   -3.4333136    4.0750366 
C     2.3153315   -6.1400780   -0.2231489 
C    -2.4652486   -2.2893132    4.4669420 
C     1.0224509    0.2207144   -5.6362007 
C     0.3788116    4.6963717   -0.2753888 
C     0.3919367    2.5463894   -5.3421697 
C    -1.4591736    3.4367746    0.6931156 
C     0.7345655    1.4814691   -6.1854660 
C    -0.7804272    4.6502944    0.5152029 
H     4.1877084    0.7190956   -0.0129696 
H     2.1583325   -1.7133378    2.3978351 
H     2.8759427   -1.7539816   -0.3695285 
H     3.9608343   -1.3701609    0.9750646 
H     1.7411210    0.5136156    2.9960494 
H     0.5217251    0.6343822    1.7127943 
H     2.9334808    0.0012290   -2.1060032 
H     2.9107994    1.7211145   -1.6747190 
H     1.9493108   -4.0094639    2.4243243 
H    -1.4317182   -0.1469431    2.0138251 
H     0.5009898   -3.6107159   -1.6431778 
H    -0.3811434   -4.3064282    2.6582820 
H     1.2016061   -0.9516852   -3.8250992 
H     1.7798468    3.5906891   -1.4851395 
H     0.0468253    3.1992489   -3.3085053 
H    -1.5202654    1.3253331    0.1795117 
H     2.0332560    3.1203471    5.1184408 
H     2.1330763    4.9082308    5.1741875 
H     0.8231908    4.1121148    4.2450702 
H     4.3794565    2.8876171    4.2031293 
H     4.5887963    4.6606548    4.3028087 
H     4.8810070    3.8178453    2.7496654 
H     3.1308535    5.2578548    1.5128205 
H     1.4866917    5.4260398    2.2146362 
H     2.8853778    6.1882992    3.0278053 
H     2.9822513   -6.1831467    1.8418618 
H    -2.9088588   -0.2136320    4.0082122 
H     1.5452458   -5.8020455   -2.2237281 
H    -1.8732855   -4.3694669    4.6302978 
H     2.7786179   -7.0993902   -0.4755548 
H    -3.1259435   -2.3240082    5.3392667 
H     1.2811656   -0.6187991   -6.2898928 
H     0.9210318    5.6383387   -0.4018746 
H     0.1444382    3.5252205   -5.7653751 
H    -2.3577512    3.3929364    1.3173131 
H     0.7699554    1.6277176   -7.2699244 
H    -1.1479766    5.5605959    1.0002023 
