105
Energy =
C    -1.8632268    1.6014197   -0.6659442 
C    -2.5188254    0.5751243    0.0829255 
C    -2.1099746    0.2236130    1.3842557 
H    -3.2796476   -0.0351289   -0.4199135 
Pd   -0.3850119    0.0290554   -0.1698098 
P     0.7167710   -1.9258634    0.5670057 
P     1.3352419    0.9279078   -1.5034546 
H    -1.4524944    2.4587879   -0.1150622 
H    -1.4196628    0.9024279    1.9091445 
C    -2.9117090    2.3611791   -4.7756484 
C    -2.5909509    3.4212687   -3.9158317 
C    -2.2489356    3.1691190   -2.5815340 
C    -2.2202201    1.8513415   -2.0796257 
C    -2.5547170    0.7909282   -2.9555955 
C    -2.8957536    1.0431159   -4.2888098 
H    -3.1747563    2.5581700   -5.8200040 
H    -2.6011069    4.4516925   -4.2850522 
H    -1.9974325    4.0016062   -1.9181226 
H    -2.5220890   -0.2430449   -2.5907400 
H    -3.1464209    0.2096102   -4.9537313 
C    -4.0564430   -2.5604221    4.0090733 
C    -4.6381664   -2.2571165    2.7673236 
C    -4.0026254   -1.3763239    1.8880443 
C    -2.7745167   -0.7659401    2.2391781 
C    -2.2056803   -1.0779104    3.4966578 
C    -2.8354681   -1.9699480    4.3690744 
H    -4.5564136   -3.2511152    4.6956740 
H    -5.5962857   -2.7066076    2.4868277 
H    -4.4815247   -1.1396661    0.9328585 
H    -1.2624515   -0.6035211    3.7864712 
H    -2.3752745   -2.2043399    5.3339821 
O     0.5652898    1.8541722    3.1150562 
O     1.8673315    3.0600261    1.6512377 
N     2.0223356    0.7725539    1.7906023 
C     3.1295711    0.6404641    0.8177026 
C     2.2371487   -1.5440972    1.5755915 
C     3.3611264   -0.8934529    0.7394042 
C     1.8607704   -0.4479604    2.5860592 
C     2.8857983    1.3320635   -0.5328569 
C     1.5153859    1.9991067    2.1580293 
C     1.2751070   -3.0433147   -0.7790491 
C    -0.2322449   -3.0943697    1.6289664 
C     1.7930324   -0.1545212   -2.9119180 
C     1.0429148    2.5840222   -2.2741920 
C    -0.0345329    3.0476326    3.7839141 
C     2.3784942   -3.9080831   -0.6261483 
C     0.2232288   -3.5802810    2.8705955 
C     0.5127564   -3.0963820   -1.9617666 
C    -1.4633459   -3.5596151    1.1207250 
C     3.0593923   -0.7430447   -3.0828194 
C     0.8539267    3.6771330   -1.3985962 
C     0.7814276   -0.4115128   -3.8648680 
C     1.0424819    2.8087781   -3.6632242 
C    -0.9728066    2.4097614    4.8131550 
C     1.0763148    3.8532496    4.4687523 
C    -0.8213522    3.8800294    2.7624411 
C     2.7172258   -4.8021272   -1.6501596 
C    -0.5254527   -4.5357768    3.5731492 
C     0.8420661   -4.0071131   -2.9738907 
C    -2.2033210   -4.5177300    1.8207961 
C     1.9468296   -4.8567956   -2.8218335 
C    -1.7340525   -5.0112457    3.0480327 
C     3.3119141   -1.5681055   -4.1892177 
C     0.6830866    4.9699620   -1.9088379 
C     1.0471739   -1.2100352   -4.9826452 
C     0.8553762    4.1051659   -4.1667265 
C     2.3130868   -1.7941202   -5.1457348 
C     0.6783836    5.1880198   -3.2955083 
H     4.0295645    1.1305190    1.2383835 
H     2.5852532   -2.4643347    2.0701145 
H     3.3676090   -1.2569056   -0.3012265 
H     4.3389511   -1.1543316    1.1764406 
H     2.5495240   -0.4554694    3.4555925 
H     0.8314171   -0.5265806    2.9653855 
H     3.7576681    1.1647471   -1.1893194 
H     2.8256467    2.4154837   -0.3554242 
H     2.9738010   -3.8977694    0.2927543 
H     1.1646386   -3.2308825    3.3043924 
H    -0.3354977   -2.4141227   -2.0887382 
H    -1.8389845   -3.1714546    0.1666176 
H     3.8642955   -0.5629830   -2.3636642 
H     0.8754434    3.5290840   -0.3127089 
H    -0.2137958    0.0275595   -3.7334976 
H     1.1994154    1.9834213   -4.3622249 
H    -1.7623528    1.8207594    4.3171227 
H    -0.4094352    1.7462957    5.4903980 
H    -1.4558962    3.1968531    5.4153048 
H     1.6511676    3.2047549    5.1517384 
H     0.6239942    4.6649764    5.0632971 
H     1.7593523    4.2956296    3.7284248 
H    -0.1513817    4.3223754    2.0109735 
H    -1.5802406    3.2579998    2.2570360 
H    -1.3493258    4.6929261    3.2893159 
H     3.5789413   -5.4664691   -1.5273209 
H    -0.1579993   -4.9093119    4.5345785 
H     0.2423677   -4.0421030   -3.8884954 
H    -3.1550030   -4.8723321    1.4133229 
H     2.2094653   -5.5622743   -3.6168509 
H    -2.3152779   -5.7590398    3.5969031 
H     4.2986973   -2.0274315   -4.3053660 
H     0.5546454    5.8091173   -1.2169899 
H     0.2592799   -1.3845088   -5.7229920 
H     0.8569910    4.2645385   -5.2499558 
H     2.5185947   -2.4294015   -6.0133220 
H     0.5423700    6.1987897   -3.6938341 
