105
Energy =
C    -2.4251456   -1.0418844    0.7298874 
C    -2.5937524    0.3156427    0.3280810 
C    -2.5640272    0.6986461   -1.0293657 
H    -2.6336048    1.0886483    1.1056155 
Pd   -0.5926399   -0.3393692   -0.3359924 
P     0.7436121   -2.1457659    0.3492963 
P     0.9953305    0.7300663   -1.7240008 
H    -2.7507759   -1.8237105    0.0277874 
H    -2.6761453   -0.1009637   -1.7779144 
C    -2.5517825   -2.1348130    4.8897875 
C    -1.8548903   -0.9824094    4.4913403 
C    -1.7938895   -0.6283628    3.1386999 
C    -2.4255680   -1.4259743    2.1566658 
C    -3.1044746   -2.5921559    2.5676639 
C    -3.1736545   -2.9380621    3.9228226 
H    -2.6027305   -2.4085865    5.9486523 
H    -1.3547031   -0.3574478    5.2381394 
H    -1.2334849    0.2637735    2.8361372 
H    -3.5893995   -3.2260230    1.8182089 
H    -3.7103766   -3.8435668    4.2232326 
C    -3.4095142    4.6029892   -2.6055653 
C    -3.0521190    3.5481030   -3.4590648 
C    -2.7625849    2.2879869   -2.9288244 
C    -2.8130366    2.0536833   -1.5345603 
C    -3.1669778    3.1311758   -0.6874686 
C    -3.4674919    4.3881640   -1.2188898 
H    -3.6440955    5.5890427   -3.0190728 
H    -2.9989758    3.7090284   -4.5400962 
H    -2.4938112    1.4661190   -3.6011675 
H    -3.2340260    2.9823579    0.3944472 
H    -3.7538091    5.2054538   -0.5490016 
O     0.7668012    1.9097237    2.9156956 
O     1.9198949    3.0179692    1.2634242 
N     2.0037831    0.7339502    1.4450708 
C     3.0342266    0.5875899    0.3975534 
C     2.2628199   -1.5948908    1.2887473 
C     3.3296011   -0.9337141    0.3847672 
C     1.8801776   -0.4687983    2.2705899 
C     2.6330297    1.2052526   -0.9507971 
C     1.5887600    1.9877416    1.8405420 
C     1.3398979   -3.1726687   -1.0514032 
C     0.0212009   -3.4489006    1.4396913 
C     1.3562120   -0.2838398   -3.2131876 
C     0.5418770    2.3752270   -2.4157181 
C     0.2544367    3.1584230    3.5528110 
C     2.5163815   -3.9455993   -0.9633161 
C    -0.7775764   -4.4509585    0.8476527 
C     0.5298431   -3.2747991   -2.1995245 
C     0.2501821   -3.4914434    2.8297080 
C     0.2774537   -0.5296424   -4.0922829 
C     0.1056454    3.3520730   -1.4960088 
C     2.6172469   -0.8296280   -3.5138402 
C     0.7245575    2.7250270   -3.7676747 
C    -0.6166740    3.9279463    2.5497611 
C    -0.5885466    2.6240062    4.7146965 
C     1.4359023    3.9885553    4.0711408 
C     2.8812415   -4.7915293   -2.0188075 
C    -1.3077900   -5.4884620    1.6246319 
C     0.8845260   -4.1420434   -3.2412293 
C    -0.2843304   -4.5321659    3.6023938 
C     2.0637722   -4.8954188   -3.1549915 
C    -1.0561311   -5.5366193    3.0036186 
C     0.4668846   -1.2730188   -5.2624977 
C    -0.1170227    4.6663011   -1.9191046 
C     2.8002534   -1.5930378   -4.6767615 
C     0.4840009    4.0418421   -4.1874146 
C     1.7317099   -1.8070030   -5.5575516 
C     0.0699427    5.0137585   -3.2659672 
H     3.9418459    1.1404367    0.7099650 
H     2.6639615   -2.4749197    1.8176259 
H     3.3306595   -1.3438882   -0.6383790 
H     4.3282041   -1.1296186    0.8090452 
H     2.5855940   -0.4465109    3.1266513 
H     0.8597559   -0.5498387    2.6744744 
H     3.4337372    1.0376719   -1.6919253 
H     2.5514056    2.2929541   -0.8064559 
H     3.1473588   -3.9015689   -0.0694606 
H    -0.9648169   -4.4388715   -0.2312716 
H    -0.3800942   -2.6685775   -2.2742718 
H     0.8427969   -2.7221464    3.3310674 
H    -0.7130813   -0.1214797   -3.8605726 
H    -0.0354465    3.0881103   -0.4433893 
H     3.4711644   -0.6653797   -2.8497870 
H     1.0703281    1.9813971   -4.4919519 
H    -1.3705459    3.2533917    2.1079106 
H    -1.1476619    4.7404342    3.0744439 
H    -0.0063017    4.3617697    1.7444227 
H    -1.4582282    2.0554270    4.3467295 
H    -0.9592128    3.4657961    5.3225381 
H     0.0192009    1.9676259    5.3596939 
H     2.0559294    3.3823978    4.7535552 
H     2.0596428    4.3528345    3.2418509 
H     1.0512858    4.8560650    4.6340314 
H     3.7998534   -5.3830228   -1.9468668 
H    -1.9120666   -6.2667195    1.1470222 
H     0.2453743   -4.2170962   -4.1259752 
H    -0.0966534   -4.5503459    4.6805637 
H     2.3471260   -5.5656972   -3.9730120 
H    -1.4654017   -6.3508361    3.6102390 
H    -0.3741042   -1.4400775   -5.9435640 
H    -0.4484033    5.4175651   -1.1957263 
H     3.7858055   -2.0165194   -4.8945036 
H     0.6337668    4.3086778   -5.2388542 
H     1.8809798   -2.3944190   -6.4692214 
H    -0.1094050    6.0419877   -3.5965400 
