105
Energy =
C    -2.4749986    1.0307417   -0.2592175 
C    -2.6264741   -0.3546376   -0.0031090 
C    -2.1220716   -0.9638522    1.1733587 
H    -3.0556638   -0.9996851   -0.7800661 
Pd   -0.4492509   -0.0153159   -0.0399628 
P     1.1983322   -1.5586966    0.6918540 
P     0.7675996    1.3108482   -1.5841520 
H    -2.2853742    1.6880662    0.6015032 
H    -1.9949325   -0.3277702    2.0620658 
C    -4.1977528    3.0716952   -3.6296002 
C    -3.8015068    3.7787987   -2.4856826 
C    -3.2183147    3.1033767   -1.4081141 
C    -3.0270221    1.7041797   -1.4455544 
C    -3.4352517    1.0044922   -2.6065097 
C    -4.0103155    1.6807838   -3.6861264 
H    -4.6523724    3.5998114   -4.4739009 
H    -3.9420870    4.8626657   -2.4332833 
H    -2.9132245    3.6609862   -0.5169184 
H    -3.3197746   -0.0832666   -2.6630933 
H    -4.3221106    1.1207232   -4.5738443 
C    -2.6035540   -5.1571423    2.0098795 
C    -2.3578672   -4.7340394    0.6932809 
C    -2.1945540   -3.3743131    0.4117862 
C    -2.2651386   -2.4086498    1.4412345 
C    -2.5063509   -2.8487480    2.7603931 
C    -2.6797719   -4.2091796    3.0407658 
H    -2.7301663   -6.2220273    2.2305721 
H    -2.2878879   -5.4679479   -0.1163356 
H    -1.9877604   -3.0592451   -0.6155059 
H    -2.5611000   -2.1145940    3.5704831 
H    -2.8672661   -4.5300643    4.0703632 
O     1.2510399    1.9399784    3.0584388 
O     1.4752312    3.3371252    1.2511852 
N     2.5438191    1.2997767    1.3433770 
C     3.2104321    1.2951342    0.0233053 
C     2.9557504   -0.9580128    1.0212848 
C     3.5167200   -0.2212559   -0.2145026 
C     2.9897612    0.1294282    2.0966253 
C     2.4475304    1.9801897   -1.1141959 
C     1.7377025    2.2920574    1.8402250 
C     1.4963313   -2.8840935   -0.5455237 
C     0.8138262   -2.3903517    2.2889997 
C     0.9988186    0.2322047   -3.0608116 
C     0.0243977    2.8538584   -2.2814438 
C     0.3511647    2.8481352    3.8167631 
C     2.5633713   -3.8020570   -0.4226330 
C     0.4837242   -1.5650631    3.3873812 
C     0.6503155   -2.9690812   -1.6674694 
C     0.8664365   -3.7852319    2.4683504 
C     2.2409438   -0.0679781   -3.6497894 
C    -0.3762225    2.9690575   -3.6264533 
C    -0.1720573   -0.3285287   -3.6190561 
C    -0.0766635    3.9775736   -1.4305440 
C    -0.9626081    3.0208224    3.0421562 
C     0.1204432    2.0709498    5.1177601 
C     1.0596232    4.1806103    4.0927197 
C     2.7647645   -4.7859786   -1.3993011 
C     0.2799997   -2.1223815    4.6559876 
C     0.8536396   -3.9528736   -2.6439570 
C     0.6399103   -4.3387913    3.7373062 
C     1.9100789   -4.8642736   -2.5102603 
C     0.3662849   -3.5114475    4.8354090 
C     2.3114495   -0.9209883   -4.7624758 
C    -0.8470108    4.1960480   -4.1162806 
C    -0.1025127   -1.1574278   -4.7442567 
C    -0.5292911    5.2033958   -1.9347730 
C     1.1436028   -1.4636935   -5.3144524 
C    -0.9128390    5.3179148   -3.2791293 
H     4.1691992    1.8431073    0.1196918 
H     3.5517302   -1.8397009    1.3065748 
H     3.0689754   -0.5929459   -1.1518937 
H     4.6040158   -0.3856498   -0.2923619 
H     4.0312586    0.2710959    2.4539425 
H     2.3571315   -0.0485221    2.9723754 
H     3.0778440    1.9743377   -2.0204878 
H     2.2738547    3.0322949   -0.8502959 
H     3.2396372   -3.7611533    0.4375578 
H     0.3805414   -0.4824810    3.2481999 
H    -0.1602659   -2.2420756   -1.7807145 
H     1.0656369   -4.4450544    1.6193134 
H     3.1678672    0.3598425   -3.2560333 
H    -0.3070187    2.1150544   -4.3052710 
H    -1.1439355   -0.0971537   -3.1708293 
H     0.2281029    3.9012609   -0.3813633 
H    -1.6745913    3.6073881    3.6470610 
H    -0.7935414    3.5407364    2.0874754 
H    -1.4137807    2.0329041    2.8431073 
H    -0.3837802    1.1104350    4.9160328 
H    -0.5165320    2.6595959    5.7984739 
H     1.0801362    1.8673145    5.6210182 
H     2.0285454    3.9984572    4.5878630 
H     1.2309222    4.7403288    3.1620958 
H     0.4362040    4.7904895    4.7685458 
H     3.5934358   -5.4936249   -1.2924426 
H     0.0422383   -1.4699216    5.5028921 
H     0.1906667   -3.9975998   -3.5133166 
H     0.6734860   -5.4258247    3.8632587 
H     2.0729229   -5.6332896   -3.2725252 
H     0.2012171   -3.9491623    5.8252670 
H     3.2864861   -1.1521483   -5.2033562 
H    -1.1537406    4.2722207   -5.1645238 
H    -1.0219374   -1.5701742   -5.1729090 
H    -0.5833230    6.0715463   -1.2693872 
H     1.2031478   -2.1214295   -6.1875970 
H    -1.2666815    6.2767569   -3.6719674 
