105
Energy =
C    -2.5062207    1.2119016    0.3256094 
C    -2.9479827   -0.0619185   -0.0902791 
C    -2.7373793   -1.2234342    0.7133778 
H    -3.3586958   -0.1725064   -1.1013079 
Pd   -0.7749185   -0.3092578    0.1712150 
P     0.5895814   -2.0096977    1.0658561 
P     0.8613161    0.7441318   -1.1558699 
H    -2.2819297    1.3466802    1.3956152 
H    -2.7358066   -1.0971552    1.8035186 
C    -3.3116539    4.8803066   -1.7418314 
C    -3.0608432    4.8753014   -0.3619253 
C    -2.7559228    3.6743788    0.2891591 
C    -2.7150809    2.4544191   -0.4249938 
C    -2.9429561    2.4802111   -1.8218601 
C    -3.2418973    3.6797149   -2.4703454 
H    -3.5494945    5.8181245   -2.2541565 
H    -3.1056754    5.8080257    0.2097237 
H    -2.5704997    3.6686739    1.3687305 
H    -2.8710339    1.5569491   -2.4057981 
H    -3.4101050    3.6851817   -3.5516029 
C    -3.5443263   -5.2296048   -0.6598601 
C    -3.4150880   -4.1845881   -1.5905275 
C    -3.1587766   -2.8811180   -1.1544400 
C    -3.0358359   -2.5852506    0.2261776 
C    -3.1853588   -3.6450623    1.1488956 
C    -3.4304388   -4.9519540    0.7100094 
H    -3.7380094   -6.2512648   -1.0022561 
H    -3.5087981   -4.3895344   -2.6623343 
H    -3.0331825   -2.0880956   -1.8993132 
H    -3.1041115   -3.4395138    2.2207471 
H    -3.5345972   -5.7564437    1.4452754 
O     1.8843417    3.2021220    1.6870939 
O     0.6342336    2.2439773    3.3666700 
N     1.9023575    0.9591076    1.9611629 
C     2.9201124    0.7579617    0.9126408 
C     2.1353176   -1.3770380    1.9216254 
C     3.1874989   -0.7740130    0.9600576 
C     1.8017995   -0.2007457    2.8477451 
C     2.5065431    1.2948959   -0.4677519 
C     1.4073982    2.1645390    2.4206612 
C     1.1805529   -3.3173067   -0.0722167 
C    -0.2142767   -2.9422824    2.4398304 
C     1.1574859   -0.5499525   -2.4303936 
C     0.4199354    2.2432255   -2.1283904 
C     1.7322909    4.6085957    2.1660363 
C     2.4454311   -3.9332793    0.0409964 
C    -0.9077932   -2.2289098    3.4422581 
C     0.2779776   -3.7703455   -1.0542637 
C    -0.1533005   -4.3477591    2.5161986 
C     2.4145922   -1.1029617   -2.7344186 
C     0.2286040    3.4385603   -1.4024404 
C     0.0161004   -1.0339502   -3.1113891 
C     0.3161903    2.2638282   -3.5327462 
C     0.2513778    5.0085848    2.1884086 
C     2.3874653    4.7348200    3.5472790 
C     2.5097003    5.3984288    1.1083509 
C     2.7983979   -4.9771142   -0.8258160 
C    -1.5084796   -2.9066922    4.5110361 
C     0.6282877   -4.8257525   -1.9045352 
C    -0.7682822   -5.0234757    3.5808588 
C     1.8906384   -5.4273058   -1.7965468 
C    -1.4424195   -4.3076987    4.5805005 
C     2.5287475   -2.1195021   -3.6952518 
C    -0.0217956    4.6403762   -2.0717928 
C     0.1361216   -2.0277518   -4.0883107 
C     0.0472782    3.4704145   -4.1972602 
C     1.3946117   -2.5780112   -4.3781420 
C    -0.1138946    4.6593278   -3.4725183 
H     3.8440756    1.3053093    1.1846773 
H     2.5355124   -2.2292769    2.4952883 
H     3.1516010   -1.2273918   -0.0436584 
H     4.1955753   -0.9687231    1.3626717 
H     2.5466929   -0.1376002    3.6679824 
H     0.8089294   -0.2318437    3.3151106 
H     3.2960084    1.0763668   -1.2084686 
H     2.4278768    2.3901787   -0.4062537 
H     3.1596636   -3.6165490    0.8069216 
H    -0.9965747   -1.1382095    3.3819892 
H    -0.7066129   -3.3024127   -1.1429652 
H     0.3616664   -4.9186667    1.7377368 
H     3.3191183   -0.7468027   -2.2317605 
H     0.2953692    3.4258061   -0.3101749 
H    -0.9714021   -0.6203854   -2.8733829 
H     0.4682617    1.3497956   -4.1144834 
H    -0.2037530    4.8902150    1.1910402 
H    -0.3063519    4.3981284    2.9135598 
H     0.1698171    6.0710367    2.4752383 
H     1.8383631    4.1490492    4.2999964 
H     2.3888989    5.7940642    3.8555713 
H     3.4335572    4.3858749    3.5065282 
H     3.5621692    5.0704441    1.0774159 
H     2.0680417    5.2555701    0.1079037 
H     2.4848574    6.4737357    1.3514599 
H     3.7831805   -5.4469626   -0.7340242 
H    -2.0379543   -2.3402775    5.2840029 
H    -0.0879367   -5.1716259   -2.6565978 
H    -0.7214682   -6.1165814    3.6243287 
H     2.1681722   -6.2480531   -2.4660948 
H    -1.9210391   -4.8388332    5.4096008 
H     3.5119550   -2.5486930   -3.9125190 
H    -0.1613137    5.5613060   -1.4969979 
H    -0.7556447   -2.3839547   -4.6144833 
H    -0.0195131    3.4798067   -5.2902594 
H     1.4893091   -3.3675516   -5.1304009 
H    -0.3145343    5.5991897   -3.9969341 
