105
Energy =
C    -1.9658761    1.5519706   -0.4645862 
C    -2.5002486    0.5346789    0.3863621 
C    -1.9250156    0.2254394    1.6341681 
H    -3.3048295   -0.1027755   -0.0013211 
Pd   -0.4044036    0.0206570   -0.1211888 
P     0.8150374   -1.9022475    0.5056762 
P     1.1202224    0.9209566   -1.6737736 
H    -1.5095225    2.4324273    0.0083259 
H    -1.1867891    0.9281488    2.0512131 
C    -3.5332851    2.1724773   -4.4303329 
C    -3.4391101    0.8705683   -3.9098788 
C    -2.9292642    0.6634307   -2.6235304 
C    -2.5010737    1.7540254   -1.8288110 
C    -2.6093368    3.0549834   -2.3629778 
C    -3.1197609    3.2618701   -3.6504614 
H    -3.9288859    2.3341195   -5.4383105 
H    -3.7607839    0.0142997   -4.5123763 
H    -2.8368540   -0.3583722   -2.2357004 
H    -2.2863394    3.9102356   -1.7624366 
H    -3.1890011    4.2800292   -4.0463319 
C    -3.4739066   -2.5245791    4.5446102 
C    -4.2159946   -2.2545411    3.3831638 
C    -3.7125672   -1.3849123    2.4119512 
C    -2.4582136   -0.7527104    2.5887430 
C    -1.7269969   -1.0307831    3.7679471 
C    -2.2254190   -1.9117698    4.7318926 
H    -3.8706903   -3.2065992    5.3034832 
H    -5.1957775   -2.7211563    3.2382815 
H    -4.3151273   -1.1734549    1.5231316 
H    -0.7612903   -0.5389354    3.9237827 
H    -1.6410591   -2.1198984    5.6335225 
O     0.9324549    1.9221764    2.9910010 
O     2.0162969    3.1163117    1.3506755 
N     2.2239492    0.8344660    1.5087898 
C     3.1997374    0.6992137    0.4045261 
C     2.4452955   -1.4825961    1.3060606 
C     3.4435363   -0.8326652    0.3227935 
C     2.1836911   -0.3733725    2.3382203 
C     2.7749896    1.3630034   -0.9149529 
C     1.7491524    2.0608039    1.9171719 
C     1.2141421   -3.0367800   -0.8820491 
C     0.0249093   -3.0616640    1.6991993 
C     1.4122672   -0.1782403   -3.1130190 
C     0.7058803    2.5598971   -2.4249665 
C     0.4042624    3.1212437    3.7089781 
C     2.3385057   -3.8875907   -0.8544793 
C     0.6404374   -3.5196444    2.8809266 
C     0.3116685   -3.1167312   -1.9599999 
C    -1.2551357   -3.5482138    1.3599737 
C     0.2927033   -0.4614634   -3.9278599 
C     0.6008703    3.6622749   -1.5468570 
C     2.6545183   -0.7565130   -3.4320022 
C     0.5370526    2.7641329   -3.8068990 
C     1.5805229    3.9565684    4.2291070 
C    -0.5213086    3.9207021    2.7817962 
C    -0.3829459    2.4922742    4.8627900 
C     2.5585511   -4.7944688   -1.8994150 
C    -0.0016283   -4.4686473    3.6897305 
C     0.5241055   -4.0401405   -2.9917154 
C    -1.8890011   -4.4993995    2.1655643 
C     1.6495844   -4.8758180   -2.9654670 
C    -1.2617683   -4.9648917    3.3315751 
C     0.4265871   -1.2756993   -5.0578611 
C     0.3445873    4.9440254   -2.0492267 
C     2.7770298   -1.5972098   -4.5486780 
C     0.2661490    4.0493791   -4.3008414 
C     1.6693402   -1.8493180   -5.3691802 
C     0.1711760    5.1413857   -3.4282364 
H     4.1383517    1.2089877    0.6984218 
H     2.8673698   -2.3890207    1.7672595 
H     3.3235955   -1.2153831   -0.7040706 
H     4.4729340   -1.0722142    0.6359102 
H     2.9774000   -0.3558838    3.1128441 
H     1.2122923   -0.4589815    2.8469165 
H     3.5586816    1.1955934   -1.6745594 
H     2.7205578    2.4485122   -0.7489122 
H     3.0428435   -3.8562010   -0.0167530 
H     1.6250844   -3.1530187    3.1852854 
H    -0.5541020   -2.4453277   -1.9909364 
H    -1.7535609   -3.1818993    0.4545032 
H    -0.6838514   -0.0310195   -3.6797109 
H     0.7554168    3.5307535   -0.4697559 
H     3.5405980   -0.5565346   -2.8218758 
H     0.6261679    1.9313474   -4.5090403 
H     2.1558350    4.3917707    3.3985377 
H     1.1949562    4.7749770    4.8604090 
H     2.2486167    3.3311080    4.8454860 
H     0.0393327    4.3588323    1.9433367 
H    -0.9928188    4.7354017    3.3572105 
H    -1.3267938    3.2767744    2.3882065 
H    -1.2202279    1.8823992    4.4841757 
H     0.2737831    1.8507877    5.4737609 
H    -0.7969552    3.2850344    5.5075193 
H     3.4368120   -5.4479493   -1.8747546 
H     0.4896533   -4.8207661    4.6027549 
H    -0.1838378   -4.0959292   -3.8242331 
H    -2.8808330   -4.8700828    1.8892690 
H     1.8202932   -5.5911374   -3.7765830 
H    -1.7599000   -5.7071144    3.9634394 
H    -0.4454891   -1.4702942   -5.6910231 
H     0.2822852    5.7908555   -1.3576076 
H     3.7471099   -2.0483786   -4.7802338 
H     0.1370506    4.1929237   -5.3785874 
H     1.7726756   -2.4967865   -6.2458894 
H    -0.0313304    6.1434902   -3.8201301 
