105
Energy =
C    -1.8818725    1.6133453   -0.5784671 
C    -2.5191133    0.5601485    0.1488113 
C    -2.0850823    0.1690101    1.4303906 
H    -3.2865001   -0.0373582   -0.3592918 
Pd   -0.3878266    0.0336769   -0.1615982 
P     0.7339227   -1.9415237    0.4852547 
P     1.3050899    0.9868708   -1.4926562 
H    -1.4652283    2.4546793   -0.0077423 
H    -1.3869260    0.8329867    1.9637383 
C    -3.0113702    2.4999999   -4.6410644 
C    -2.6746756    3.5330129   -3.7548026 
C    -2.3059187    3.2395700   -2.4361741 
C    -2.2660226    1.9067147   -1.9765512 
C    -2.6162482    0.8737716   -2.8789083 
C    -2.9839689    1.1672755   -4.1964728 
H    -3.2956244    2.7293287   -5.6731876 
H    -2.6932549    4.5745559   -4.0910407 
H    -2.0419132    4.0511749   -1.7520727 
H    -2.5750455   -0.1711993   -2.5478771 
H    -3.2467364    0.3546702   -4.8822911 
C    -3.9687861   -2.7103899    3.9975114 
C    -4.5775861   -2.3657242    2.7797658 
C    -3.9630995   -1.4527012    1.9185860 
C    -2.7292721   -0.8510903    2.2647630 
C    -2.1332109   -1.2046500    3.4984417 
C    -2.7420067   -2.1287591    4.3521617 
H    -4.4521938   -3.4264568    4.6698311 
H    -5.5402320   -2.8084049    2.5039778 
H    -4.4628558   -1.1840983    0.9827291 
H    -1.1853793   -0.7373767    3.7847916 
H    -2.2609335   -2.3951098    5.2984175 
O     0.6193784    1.7463815    3.1666891 
O     1.8959557    3.0068612    1.7265819 
N     2.0556183    0.7162105    1.7797617 
C     3.1444576    0.6222062    0.7820715 
C     2.2718144   -1.5907152    1.4783658 
C     3.3780712   -0.9072036    0.6446618 
C     1.9118224   -0.5323670    2.5340196 
C     2.8729581    1.3609066   -0.5379623 
C     1.5535309    1.9276099    2.2001484 
C     1.2704682   -3.0084816   -0.9097293 
C    -0.1925777   -3.1501269    1.5218917 
C     1.7381474   -0.0422823   -2.9480383 
C     0.9928721    2.6689209   -2.1963657 
C     0.0283429    2.9140330    3.8870480 
C     0.4868859   -3.0221192   -2.0796350 
C    -1.4337919   -3.5971145    1.0219074 
C     2.3787883   -3.8744443   -0.8075011 
C     0.2886021   -3.6821431    2.7345833 
C     0.7087833   -0.2672159   -3.8900336 
C     0.8136473    3.7279494   -1.2778385 
C     3.0018417   -0.6217288   -3.1639158 
C     0.9683373    2.9449686   -3.5759153 
C     1.1485527    3.6969344    4.5828872 
C    -0.7756313    3.7806727    2.9082343 
C    -0.8928505    2.2380663    4.9073538 
C     0.8002554   -3.8952736   -3.1292258 
C    -2.1590245   -4.5816247    1.7004877 
C     2.7012518   -4.7305157   -1.8685476 
C    -0.4450767   -4.6644227    3.4157025 
C     1.9098402   -4.7461868   -3.0273180 
C    -1.6642800   -5.1207827    2.8981507 
C     0.9540620   -1.0250632   -5.0403345 
C     0.6281114    5.0378431   -1.7368737 
C     3.2341249   -1.4065824   -4.3035275 
C     0.7668086    4.2581076   -4.0278635 
C     2.2173687   -1.6005801   -5.2481498 
C     0.5990849    5.3070132   -3.1142725 
H     4.0511729    1.0998124    1.2026871 
H     2.6316917   -2.5266891    1.9332755 
H     3.3654954   -1.2332762   -0.4082499 
H     4.3647253   -1.1805973    1.0532505 
H     2.6168416   -0.5687492    3.3896440 
H     0.8900191   -0.6276173    2.9295470 
H     3.7323722    1.2200179   -1.2166739 
H     2.8133227    2.4370626   -0.3206182 
H    -0.3655207   -2.3387553   -2.1670212 
H    -1.8289942   -3.1735399    0.0910324 
H     2.9906967   -3.8945504    0.1002314 
H     1.2386484   -3.3483280    3.1618068 
H    -0.2842930    0.1649551   -3.7241297 
H     0.8544591    3.5400965   -0.1987084 
H     3.8201929   -0.4659280   -2.4542993 
H     1.1174656    2.1468491   -4.3075554 
H     1.8198723    4.1659614    3.8482657 
H     0.7043624    4.4867445    5.2120544 
H     1.7342987    3.0259609    5.2341629 
H    -0.1179795    4.2530244    2.1641738 
H    -1.2987330    4.5715730    3.4721250 
H    -1.5394832    3.1747092    2.3909913 
H    -1.6900804    1.6666238    4.4031339 
H    -0.3181746    1.5510517    5.5507553 
H    -1.3665321    3.0021601    5.5455580 
H     0.1842541   -3.8996920   -4.0335991 
H    -3.1191541   -4.9210921    1.2999987 
H     3.5668318   -5.3959395   -1.7849605 
H    -0.0574329   -5.0741188    4.3542023 
H     2.1598946   -5.4221997   -3.8514560 
H    -2.2339706   -5.8892029    3.4303736 
H     0.1523366   -1.1745529   -5.7712292 
H     0.5072788    5.8501648   -1.0123717 
H     4.2190240   -1.8597192   -4.4546670 
H     0.7497982    4.4574632   -5.1043010 
H     2.4069973   -2.2044387   -6.1414093 
H     0.4516153    6.3310959   -3.4724919 
