83
Energy =
C     1.0682999   -0.2352536   -2.6537869 
C     1.9654928    0.6611988   -1.9918612 
C     2.8024436    0.2124559   -0.9485214 
H     1.9020412    1.7348389   -2.2088160 
Pd    0.5664525   -0.1514427   -0.4844267 
P     0.3123156    0.2338015    1.8007938 
P    -1.5416495   -1.1262714   -0.4499905 
H     1.3924200   -1.2820404   -2.7427077 
H     2.9503666   -0.8759748   -0.8632036 
C    -1.7184989    1.0722942   -5.6687567 
C    -1.3590033    1.9404915   -4.6251121 
C    -0.4697655    1.5177477   -3.6314757 
C     0.0966554    0.2215117   -3.6691621 
C    -0.2787187   -0.6435193   -4.7223175 
C    -1.1790689   -0.2234852   -5.7100642 
H    -2.4170321    1.4026407   -6.4442705 
H    -1.7876195    2.9465739   -4.5763010 
H    -0.2315171    2.1924793   -2.8016980 
H     0.1535315   -1.6486331   -4.7741055 
H    -1.4514229   -0.9059510   -6.5217679 
C     5.6751643    2.4696096    1.3138676 
C     4.8951286    3.1217257    0.3435414 
C     3.9578056    2.4056924   -0.4067072 
C     3.7766039    1.0178245   -0.1991789 
C     4.5885106    0.3701402    0.7612835 
C     5.5240501    1.0886137    1.5144888 
H     6.4085738    3.0340135    1.8985898 
H     5.0236691    4.1948094    0.1690540 
H     3.3649876    2.9327980   -1.1610171 
H     4.4759039   -0.7087309    0.9160472 
H     6.1432385    0.5694556    2.2534890 
O    -3.2347333    0.1590707    1.2093545 
O    -0.8736960   -1.8665860    2.9819490 
C    -2.2950249   -0.9274743    1.2888065 
C    -1.2848324   -0.6199396    2.3884638 
C    -1.7174920   -2.9649778   -0.8774938 
C     0.1943062    2.0325596    2.3810539 
C    -2.9216268   -0.1767063   -1.1321690 
C     1.2417640   -0.7682141    2.9924523 
C    -3.6398915    0.4261859   -0.0755015 
C     0.4224199   -1.8286215    3.4378463 
C    -0.7798848   -3.7274022    0.0835894 
C     0.0420866    2.1085262    3.9107624 
C    -1.0238031    2.6488200    1.6584173 
C     1.4882488    2.7330669    1.9206762 
C    -3.1816897   -3.4181170   -0.7204805 
C    -1.2583120   -3.1525159   -2.3371187 
C    -3.2784421    0.0968335   -2.4644842 
C     2.5790010   -0.6955575    3.4208267 
C    -4.7160256    1.2856985   -0.3221677 
C     0.9103044   -2.8183287    4.2982716 
C     3.0748924   -1.6758989    4.2914171 
C    -4.3605485    0.9489374   -2.7209662 
C     2.2457098   -2.7300413    4.7171004 
C    -5.0664599    1.5384908   -1.6565393 
H    -2.8396961   -1.8485787    1.5685142 
H    -1.7817152   -0.0019405    3.1606736 
H    -0.8129024   -4.8055695   -0.1551759 
H    -3.8594236   -2.8358841   -1.3676220 
H    -3.5383143   -3.3387196    0.3205195 
H    -3.2568608   -4.4815177   -1.0117710 
H    -1.8852855   -2.5851329   -3.0452244 
H    -0.2095115   -2.8416586   -2.4705756 
H    -1.3318360   -4.2225126   -2.6025348 
H     1.5849738    2.7007154    0.8229505 
H     1.4594455    3.7929652    2.2315791 
H    -1.0753826   -3.6004070    1.1390709 
H     0.2659327   -3.3853225   -0.0227222 
H    -0.0250810    3.1703864    4.2101404 
H    -0.8747320    1.6076507    4.2664650 
H     0.9059011    1.6595938    4.4292055 
H    -1.0731625    3.7280088    1.8900919 
H    -1.9738250    2.1868393    1.9751154 
H    -0.9377871    2.5390364    0.5613477 
H     2.3948996    2.2792442    2.3564617 
H     3.2236947    0.1200039    3.0828453 
H    -2.7182384   -0.3453582   -3.2929076 
H     0.2512066   -3.6233549    4.6342310 
H    -5.2620463    1.7312926    0.5136211 
H     4.1096484   -1.6188050    4.6425370 
H    -4.6489446    1.1586198   -3.7551096 
H    -5.9090475    2.2049577   -1.8676426 
H     2.6424606   -3.4917750    5.3959429 
