83
Energy =
C     0.9014587   -0.3593970   -2.6915130 
C     1.7845033    0.6101434   -2.1287811 
C     2.6951943    0.2721056   -1.1029358 
H     1.6523228    1.6645280   -2.4010654 
Pd    0.5387821   -0.1836464   -0.4871897 
P     0.4718038    0.2180822    1.8166288 
P    -1.5902606   -1.0909696   -0.2982755 
H     1.2545566   -1.4005566   -2.7184423 
H     2.9497621   -0.7933520   -0.9886748 
C    -2.0341287    0.6469848   -5.6800866 
C    -1.4795708   -0.6421108   -5.6299123 
C    -0.5331501   -0.9636831   -4.6486871 
C    -0.1276940   -0.0061879   -3.6909240 
C    -0.7114551    1.2817533   -3.7420896 
C    -1.6438531    1.6071509   -4.7327614 
H    -2.7672766    0.9009103   -6.4524557 
H    -1.7746280   -1.3958679   -6.3672197 
H    -0.0866173   -1.9637838   -4.6330835 
H    -0.4516835    2.0297202   -2.9851009 
H    -2.0829925    2.6096019   -4.7542498 
C     5.4873741    2.8956996    0.8508754 
C     5.5637894    1.5049889    1.0238137 
C     4.6499302    0.6666245    0.3743645 
C     3.6341406    1.2005059   -0.4528020 
C     3.5759845    2.6039487   -0.6249961 
C     4.4944412    3.4395625    0.0184148 
H     6.2026565    3.5534137    1.3548104 
H     6.3434712    1.0725918    1.6593492 
H     4.7189794   -0.4195633    0.5020148 
H     2.8049495    3.0506414   -1.2607884 
H     4.4357326    4.5230189   -0.1271840 
O    -2.9524698    0.5140369    1.3533300 
O    -0.7926456   -1.8203407    3.0481826 
C    -2.2272828   -0.7261993    1.4557945 
C    -1.1397720   -0.5361377    2.5004981 
C    -1.8998306   -2.9295541   -0.6312738 
C     0.5668960    2.0161767    2.4371676 
C    -2.9392556   -0.0762031   -0.9568988 
C     1.4056709   -0.9120559    2.8861501 
C    -3.4698971    0.7080317    0.0919768 
C     0.5381890   -1.9143375    3.3733746 
C    -0.9871909   -3.7177281    0.3326250 
C    -0.2334967    2.2164330    3.7378020 
C    -0.0122585    2.8858923    1.3000712 
C     2.0537254    2.3449090    2.6848830 
C    -3.3851732   -3.2749177   -0.4112173 
C    -1.4954830   -3.2087504   -2.0928926 
C    -3.4099927    0.1038833   -2.2685021 
C     2.7863335   -1.0061369    3.1423491 
C    -4.4667005    1.6604525   -0.1390033 
C     1.0136477   -2.9888431    4.1340249 
C     3.2720519   -2.0740966    3.9084511 
C    -4.4192988    1.0469586   -2.5084226 
C     2.3889680   -3.0550815    4.3968919 
C    -4.9345349    1.8193816   -1.4526997 
H    -2.9171979   -1.5255502    1.7878680 
H    -1.5405218    0.0946274    3.3127980 
H    -1.0767100   -4.7968449    0.1131713 
H    -4.0432867   -2.6874465   -1.0733979 
H    -3.7035545   -3.1110857    0.6323876 
H    -3.5375426   -4.3461370   -0.6363957 
H    -2.1007652   -2.6311911   -2.8110284 
H    -0.4318428   -2.9749931   -2.2647054 
H    -1.6471647   -4.2817511   -2.3082617 
H     2.6864290    2.0977373    1.8180412 
H     2.1521836    3.4295528    2.8705961 
H    -1.2637104   -3.5556379    1.3873358 
H     0.0731740   -3.4309867    0.2076317 
H    -0.0364264    3.2360566    4.1160541 
H    -1.3212409    2.1317342    3.5741950 
H     0.0725466    1.5039326    4.5241218 
H    -0.0003550    3.9468657    1.6083403 
H    -1.0558656    2.6066889    1.0704874 
H     0.5873175    2.7886244    0.3775223 
H     2.4388842    1.8137112    3.5708435 
H     3.4723202   -0.2512145    2.7487294 
H    -2.9941912   -0.4778482   -3.0959570 
H     0.3164355   -3.7429318    4.5089705 
H    -4.8670057    2.2462938    0.6927396 
H     4.3418605   -2.1450154    4.1267840 
H    -4.7978940    1.1846211   -3.5254299 
H    -5.7204645    2.5550632   -1.6520539 
H     2.7778666   -3.8855062    4.9948967 
