83
Energy =
C     1.0000333   -0.0552771   -2.7732035 
C     1.9103826    0.8448760   -2.1374607 
C     2.8046257    0.3872439   -1.1472718 
H     1.8176081    1.9211202   -2.3284727 
Pd    0.6045981   -0.0311012   -0.5839009 
P     0.3768540    0.3264954    1.7179800 
P    -1.4645892   -1.0854933   -0.4815648 
H     1.3382703   -1.0944481   -2.8951505 
H     2.9899542   -0.6980331   -1.1092647 
C    -1.9462817    1.2429301   -5.6358707 
C    -1.5564061    2.1027296   -4.5953522 
C    -0.6107400    1.6846149   -3.6531650 
C    -0.0229648    0.4001077   -3.7383003 
C    -0.4269352   -0.4553924   -4.7882511 
C    -1.3803365   -0.0386650   -5.7265691 
H    -2.6890148    1.5697985   -6.3706401 
H    -2.0029350    3.0986088   -4.5107223 
H    -0.3454795    2.3519275   -2.8256009 
H     0.0208607   -1.4511628   -4.8756303 
H    -1.6763682   -0.7137265   -6.5360489 
C     5.7438603    2.6644577    1.0045199 
C     5.6991532    1.2654353    1.1097432 
C     4.7364734    0.5413522    0.3980936 
C     3.7956469    1.1997682   -0.4289323 
C     3.8605006    2.6095814   -0.5334208 
C     4.8245658    3.3314403    0.1769655 
H     6.4963673    3.2339035    1.5591916 
H     6.4189097    0.7389153    1.7446121 
H     4.7050471   -0.5513989    0.4792808 
H     3.1548942    3.1491992   -1.1728584 
H     4.8626701    4.4215949    0.0843638 
O    -3.5471532   -0.6997626    1.2084217 
O    -1.4206210   -0.4960548    3.5511267 
C    -2.1425273   -1.0054400    1.2866401 
C    -1.4337513    0.0114057    2.2014589 
C    -1.4525054   -2.9469836   -0.8740752 
C     0.7800758    2.0525045    2.4217269 
C    -3.0185672   -0.4068040   -1.1019697 
C     0.8653296   -0.8655293    2.9935143 
C    -3.9479486   -0.3089661   -0.0410226 
C    -0.2331024   -1.1163002    3.8465463 
C    -2.8188654   -3.5704398   -0.5278699 
C    -0.0119404    2.3389584    3.7124014 
C     0.4250348    3.0665665    1.3151005 
C     2.2901918    2.0715154    2.7326262 
C    -1.1687264   -3.1017157   -2.3810968 
C    -0.3149700   -3.5744733   -0.0413458 
C    -3.4000222   -0.0431421   -2.4065478 
C     2.1097044   -1.4655965    3.2522759 
C    -5.2533866    0.1498731   -0.2621593 
C    -0.1059421   -1.9509759    4.9645449 
C     2.2445132   -2.3064577    4.3649903 
C    -4.7023455    0.4173559   -2.6338942 
C     1.1430245   -2.5384876    5.2112704 
C    -5.6158218    0.5118226   -1.5665508 
H    -2.0456237   -1.9987350    1.7563911 
H    -2.0121637    0.9486827    2.2028005 
H    -2.7896587   -4.6484701   -0.7695710 
H    -0.1776666   -2.7001551   -2.6471807 
H    -1.9308194   -2.5935616   -2.9965878 
H    -1.1812551   -4.1747040   -2.6444557 
H     0.6611457   -3.1156228   -0.2836834 
H    -0.4812743   -3.4684767    1.0455700 
H    -0.2509173   -4.6546953   -0.2638777 
H     2.8976468    1.7950933    1.8581480 
H     2.5818951    3.0933121    3.0345118 
H    -3.6321526   -3.1116412   -1.1152662 
H    -3.0696344   -3.4790544    0.5425718 
H     0.3160204    3.3162836    4.1117698 
H    -1.0994953    2.4011230    3.5426457 
H     0.1806873    1.5789179    4.4880752 
H     0.6412369    4.0904563    1.6697519 
H    -0.6460194    3.0230622    1.0457638 
H     1.0206912    2.8866938    0.4026602 
H     2.5357364    1.3889443    3.5637223 
H     2.9615247   -1.2692516    2.5929659 
H    -2.6903889   -0.1232089   -3.2329802 
H    -0.9678807   -2.1304198    5.6128109 
H    -5.9558818    0.2139514    0.5730795 
H     3.2060843   -2.7829074    4.5778120 
H    -5.0066335    0.7032648   -3.6450626 
H    -6.6319301    0.8741806   -1.7537251 
H     1.2578245   -3.1973373    6.0781292 
