83
Energy =
C     0.9983298   -0.3541901   -2.6583636 
C     1.8532894    0.6221886   -2.0648476 
C     2.7302421    0.2906953   -1.0079304 
H     1.7218698    1.6756573   -2.3410426 
Pd    0.5574291   -0.1823570   -0.4676590 
P     0.4068425    0.2226382    1.8314194 
P    -1.5699099   -1.1056906   -0.3520115 
H     1.3606993   -1.3923901   -2.6731447 
H     2.9888893   -0.7728915   -0.8853303 
C    -1.8410906    0.6290305   -5.7458161 
C    -1.2774129   -0.6552429   -5.6771234 
C    -0.3625501   -0.9693132   -4.6640894 
C     0.0013447   -0.0090180   -3.6925419 
C    -0.5914361    1.2738670   -3.7632656 
C    -1.4919725    1.5918839   -4.7852774 
H    -2.5495422    0.8770928   -6.5427553 
H    -1.5403786   -1.4109724   -6.4244967 
H     0.0919390   -1.9654842   -4.6335237 
H    -0.3645055    2.0234046   -2.9973017 
H    -1.9389945    2.5904190   -4.8213052 
C     5.4299223    2.9337646    1.0469450 
C     5.5085519    1.5436903    1.2241368 
C     4.6253318    0.6989702    0.5414204 
C     3.6381969    1.2256717   -0.3241214 
C     3.5779237    2.6285304   -0.5001910 
C     4.4659679    3.4705580    0.1767249 
H     6.1213510    3.5964417    1.5770041 
H     6.2662523    1.1168517    1.8893418 
H     4.6962197   -0.3866328    0.6728830 
H     2.8293632    3.0696642   -1.1660012 
H     4.4061551    4.5534649    0.0275540 
O    -2.9987227    0.4917743    1.2496857 
O    -0.8801422   -1.8280167    3.0165982 
C    -2.2699026   -0.7438290    1.3786116 
C    -1.2202828   -0.5460007    2.4598424 
C    -1.8537296   -2.9464811   -0.6950564 
C     0.4630835    2.0242517    2.4472216 
C    -2.9025462   -0.1009850   -1.0579128 
C     1.3127935   -0.8962080    2.9365105 
C    -3.4738457    0.6810681   -0.0289501 
C     0.4387395   -1.9081739    3.3909734 
C    -1.3983443   -3.2219067   -2.1423552 
C    -0.0735982    2.8848777    1.2827586 
C     1.9356527    2.3652908    2.7559756 
C    -0.3935389    2.2244567    3.7115801 
C    -0.9675253   -3.7278597    0.2986244 
C    -3.3427692   -3.3038205   -0.5247918 
C    -3.3297296    0.0741718   -2.3849998 
C     2.6838802   -0.9756218    3.2439954 
C    -4.4682398    1.6267666   -0.2951003 
C     0.8970730   -2.9781646    4.1682326 
C     3.1521839   -2.0388218    4.0273992 
C    -4.3364619    1.0102815   -2.6605212 
C     2.2623154   -3.0298126    4.4820798 
C    -4.8921968    1.7808957   -1.6241966 
H    -2.9659672   -1.5472509    1.6873045 
H    -1.6534591    0.0797910    3.2592474 
H    -1.5337367   -4.2961046   -2.3625576 
H    -1.2795957   -3.5675006    1.3436365 
H     0.0941950   -3.4334344    0.2082511 
H    -1.0421269   -4.8076440    0.0768946 
H    -3.6967147   -3.1443337    0.5079679 
H    -3.9832511   -2.7203617   -1.2074669 
H    -3.4791185   -4.3758101   -0.7564384 
H    -0.1145878    1.5195743    4.5146795 
H    -0.2220824    3.2480719    4.0914756 
H    -0.3315492   -2.9792963   -2.2785275 
H    -1.9840445   -2.6493460   -2.8804398 
H    -0.0827590    3.9471008    1.5867594 
H     0.5656002    2.7886494    0.3871340 
H    -1.1043805    2.5967964    1.0102955 
H     2.0177335    3.4512191    2.9421508 
H     2.6060156    2.1207942    1.9170796 
H     2.2874842    1.8397576    3.6590199 
H    -1.4725313    2.1283662    3.5022846 
H     3.3759236   -0.2132306    2.8763890 
H    -2.8823046   -0.5059026   -3.1969723 
H     0.1945239   -3.7399843    4.5166370 
H    -4.9003501    2.2111023    0.5216580 
H     4.2137824   -2.0981512    4.2856378 
H    -4.6813023    1.1439681   -3.6899885 
H    -5.6755456    2.5112424   -1.8513377 
H     2.6376850   -3.8565173    5.0937313 
