89
Energy =
C    -2.7120658    1.0007379   -0.9370191 
C    -1.8764030    2.1446043   -0.8294529 
C    -0.7200350    2.2833146   -1.6522758 
H    -2.0057593    2.8324075    0.0157799 
Pd   -0.5915216    0.4044608   -0.4929250 
P     1.6913461    0.0313950   -0.4203623 
P    -0.7456280   -1.7378185    0.4270532 
H    -2.7117021    0.4643898   -1.8982270 
H    -0.7571849    1.8191745   -2.6501405 
C    -5.9402611   -0.1060719    1.6880712 
C    -5.5999244   -0.9051524    0.5860885 
C    -4.5682990   -0.5149738   -0.2751401 
C    -3.8406435    0.6756612   -0.0451013 
C    -4.2061799    1.4808186    1.0600229 
C    -5.2448056    1.0935193    1.9141805 
H    -6.7491274   -0.4085721    2.3609006 
H    -6.1392174   -1.8383442    0.3938329 
H    -4.3063101   -1.1489883   -1.1292143 
H    -3.6780900    2.4194193    1.2574637 
H    -5.5168098    1.7336029    2.7601542 
C     2.1916144    5.4336809   -1.2923196 
C     1.5464582    4.9476102   -0.1423098 
C     0.6058329    3.9178520   -0.2444733 
C     0.2855574    3.3547092   -1.5018385 
C     0.9618515    3.8332786   -2.6443276 
C     1.9001071    4.8680683   -2.5415110 
H     2.9258274    6.2418574   -1.2107715 
H     1.7825232    5.3714183    0.8394889 
H     0.1295578    3.5288920    0.6626769 
H     0.7430366    3.3924515   -3.6229487 
H     2.4093263    5.2288536   -3.4409297 
O     4.4347407   -0.5560390    0.5955860 
O    -0.9027456   -2.0204586   -2.4421904 
C     1.8603524   -1.8045309   -0.7125322 
C     0.9526359   -2.5439451    0.2845640 
C     2.3425521    0.2992647    1.2636591 
C    -1.9335370   -2.8006194   -0.4710735 
C     2.7987363    0.8853360   -1.5895042 
C    -1.2140488   -1.8934869    2.1867917 
C     3.6806123   -0.0428981    1.6035049 
C    -1.9112331   -2.7653447   -1.8895084 
C     1.4926131    0.8170729    2.2596361 
C    -2.9429133   -3.5318510    0.1791920 
C     2.7913338    0.5247231   -2.9528550 
C    -0.7822788   -2.9613073    3.0011953 
C     3.5917195    1.9679830   -1.1621344 
C    -2.0676502   -0.9090988    2.7238563 
C     4.1399636    0.1552998    2.9190524 
C    -2.8880483   -3.4476787   -2.6325407 
C     1.9451025    1.0030599    3.5720983 
C    -3.9133985   -4.2246835   -0.5598554 
C     3.5907872    1.2204557   -3.8696292 
C    -1.1953941   -3.0316441    4.3389387 
C     4.3862078    2.6609571   -2.0840432 
C    -2.4863283   -0.9907302    4.0581843 
C     3.2696055    0.6730835    3.8902457 
C    -3.8833486   -4.1758198   -1.9591303 
C     4.3927329    2.2871995   -3.4358668 
C    -2.0466559   -2.0486661    4.8681828 
C     5.8265556   -0.8088706    0.8119871 
C    -0.9083434   -1.7742973   -3.8511264 
H     2.9162545   -2.0983410   -0.5972975 
H     1.5370795   -2.0003067   -1.7479561 
H     1.3917655   -2.4973725    1.2966376 
H     0.8331818   -3.6051252    0.0095562 
H     0.4599334    1.0675347    1.9868038 
H    -2.9795793   -3.5410662    1.2728505 
H     2.1687929   -0.3061719   -3.3031720 
H    -0.1323400   -3.7450007    2.5978502 
H     3.5832019    2.2722862   -0.1107855 
H    -2.4134086   -0.0853832    2.0909566 
H     5.1667598   -0.0977209    3.1942557 
H    -2.8801256   -3.4255317   -3.7250702 
H     1.2705797    1.4004616    4.3358797 
H    -4.6926711   -4.7911728   -0.0414897 
H     3.5893425    0.9269166   -4.9246116 
H    -0.8553915   -3.8604195    4.9685599 
H     4.9966091    3.5032854   -1.7433839 
H    -3.1572518   -0.2253558    4.4615553 
H     3.6397200    0.8157229    4.9109753 
H    -4.6398425   -4.7084590   -2.5444716 
H     5.0163573    2.8306656   -4.1531137 
H    -2.3685064   -2.1105661    5.9129530 
H     6.2182108   -1.1531642   -0.1554327 
H     6.3520111    0.1142061    1.1175925 
H     5.9763319   -1.5948173    1.5750999 
H    -0.0776897   -1.0774983   -4.0351137 
H    -0.7445102   -2.7069162   -4.4209287 
H    -1.8582135   -1.3054115   -4.1678091 
