89
Energy =
C    -2.4405800    1.0449370   -0.9443351 
C    -1.5452776    2.1458657   -0.8388180 
C    -0.4318340    2.2625853   -1.7192835 
H    -1.5933181    2.8036448    0.0380748 
Pd   -0.3472263    0.3387623   -0.6126207 
P     1.9020531   -0.1563966   -0.6586881 
P    -0.5558534   -1.8187948    0.2543034 
H    -2.5311793    0.5633767   -1.9294156 
H    -0.5439067    1.8369572   -2.7281687 
C    -5.5801214   -0.0250595    1.8061377 
C    -5.3808732   -0.7491050    0.6199324 
C    -4.3729713   -0.3715239   -0.2751799 
C    -3.5284789    0.7303347    0.0001776 
C    -3.7488324    1.4565190    1.1948604 
C    -4.7638782    1.0845233    2.0836270 
H    -6.3713197   -0.3157738    2.5046921 
H    -6.0115966   -1.6134567    0.3887659 
H    -4.2203353   -0.9499922   -1.1928259 
H    -3.1268988    2.3253907    1.4328303 
H    -4.9209030    1.6648415    2.9989701 
C     2.7068730    5.1905058   -1.3948575 
C     2.0633924    4.7282856   -0.2341452 
C     1.0477480    3.7714161   -0.3238981 
C     0.6466605    3.2612520   -1.5808559 
C     1.3203394    3.7140846   -2.7356957 
C     2.3363111    4.6736814   -2.6442062 
H     3.5011633    5.9405917   -1.3220159 
H     2.3617353    5.1128103    0.7470396 
H     0.5821567    3.3874003    0.5893905 
H     1.0382593    3.3123916   -3.7149114 
H     2.8431223    5.0144652   -3.5527096 
O     0.8580091    1.0421052    1.9232282 
O    -1.0315667   -2.0433488   -2.5530446 
C     1.9396026   -1.9730239   -1.0992978 
C     1.0432751   -2.7463057   -0.1164045 
C     2.7111264   -0.1098445    0.9858306 
C    -1.8924718   -2.8153479   -0.4997586 
C     3.0319244    0.6874123   -1.8161054 
C    -0.8284556   -1.8735635    2.0657424 
C     2.0685869    0.4561511    2.1203830 
C    -2.0107274   -2.7540691   -1.9139799 
C     3.9790150   -0.7079642    1.1470256 
C    -2.8355652   -3.5586991    0.2307524 
C     2.9007790    0.4546944   -3.2026221 
C     0.1670177   -2.2384269    2.9941854 
C     3.9619629    1.6413498   -1.3579028 
C    -2.0723160   -1.3996749    2.5446101 
C     2.6951463    0.3878845    3.3820132 
C    -3.0772480   -3.3930715   -2.5673189 
C     4.6018717   -0.7694343    2.3981951 
C    -3.8953261   -4.2077446   -0.4195393 
C     3.7168727    1.1392881   -4.1115260 
C    -0.0870573   -2.1584653    4.3719680 
C     4.7679380    2.3301219   -2.2744744 
C    -2.3219109   -1.3284657    3.9200638 
C     3.9483940   -0.2217745    3.5127000 
C    -4.0160277   -4.1142568   -1.8118234 
C     4.6545593    2.0757743   -3.6483079 
C    -1.3316001   -1.7111677    4.8392748 
C     0.0840129    1.4716503    3.0483368 
C    -1.1492371   -1.7871821   -3.9548176 
H     2.9723530   -2.3623473   -1.0954034 
H     1.5407237   -2.0541946   -2.1240205 
H     1.5754979   -2.8973045    0.8367042 
H     0.7786092   -3.7409486   -0.5105475 
H     4.4874735   -1.1267092    0.2710385 
H    -2.7478816   -3.6219329    1.3193751 
H     2.1630556   -0.2648051   -3.5758221 
H     1.1521133   -2.5785971    2.6624900 
H     4.0537646    1.8484733   -0.2873011 
H    -2.8495175   -1.0898653    1.8403553 
H     2.2073816    0.8115548    4.2626274 
H    -3.1784883   -3.3452481   -3.6543606 
H     5.5853076   -1.2369642    2.5022542 
H    -4.6221910   -4.7818226    0.1626592 
H     3.6202367    0.9424269   -5.1843371 
H     0.6956866   -2.4499312    5.0797995 
H     5.4843508    3.0729087   -1.9097210 
H    -3.2948064   -0.9669873    4.2683533 
H     4.4203929   -0.2625188    4.4999526 
H    -4.8431401   -4.6133571   -2.3269882 
H     5.2900467    2.6123108   -4.3602654 
H    -1.5273643   -1.6570969    5.9151540 
H    -0.0734466    0.6407748    3.7579743 
H     0.5650170    2.3270762    3.5571482 
H    -0.8855174    1.7795027    2.6328343 
H    -0.3036821   -1.1312392   -4.2085680 
H    -1.0825035   -2.7227730   -4.5393156 
H    -2.0984862   -1.2695059   -4.1856265 
