89
Energy =
C    -2.5302232    1.2621702    0.2991360 
C    -1.5665564    2.2886929    0.4880566 
C    -0.6511479    2.6088633   -0.5551128 
H    -1.4062951    2.7049430    1.4897983 
Pd   -0.4625027    0.4589812   -0.0136103 
P     1.7731753    0.0212202   -0.4431015 
P    -0.6108929   -1.8153031    0.4022757 
H    -2.8146844    1.0323558   -0.7374423 
H    -1.0004169    2.4283603   -1.5837366 
C    -5.3618743   -0.2527714    3.1620426 
C    -5.2995222   -0.7764255    1.8614800 
C    -4.3650075   -0.2775826    0.9493006 
C    -3.4693896    0.7552449    1.3137892 
C    -3.5314182    1.2592734    2.6333383 
C    -4.4723581    0.7643117    3.5433539 
H    -6.0978705   -0.6364299    3.8758851 
H    -5.9799478   -1.5786072    1.5590080 
H    -4.3139128   -0.6924433   -0.0638635 
H    -2.8560895    2.0615227    2.9485079 
H    -4.5171077    1.1797328    4.5557064 
C     2.6175366    5.3986223   -0.3507711 
C     2.1139033    4.9724063   -1.5881623 
C     1.0573747    4.0552058   -1.6367595 
C     0.4784195    3.5486066   -0.4509722 
C     1.0172860    3.9654835    0.7882535 
C     2.0678351    4.8860668    0.8356041 
H     3.4409906    6.1187054   -0.3087490 
H     2.5406705    5.3601563   -2.5190220 
H     0.6623667    3.7316496   -2.6066121 
H     0.6156865    3.5605622    1.7231286 
H     2.4700706    5.1987134    1.8042826 
O     1.9938901    0.5313233    2.3700338 
O    -1.8268655   -1.0416125   -2.2313900 
C     2.1753356   -1.7026743    0.2178365 
C     1.0577247   -2.2469575    1.1206417 
C     2.9869818    1.1469881    0.3275894 
C    -0.7022931   -2.8199958   -1.1296790 
C     2.2313465   -0.0545438   -2.2146006 
C    -1.8258811   -2.5004650    1.5764084 
C     2.9513614    1.2794197    1.7400390 
C    -1.2891643   -2.2940135   -2.3122891 
C     3.8962237    1.9253457   -0.4092168 
C    -0.1588783   -4.1206194   -1.1656023 
C     3.4568384   -0.6096214   -2.6418015 
C    -1.9247902   -1.8809278    2.8413735 
C     1.3198933    0.4302948   -3.1722435 
C    -2.6691822   -3.5837613    1.2611090 
C     3.8527568    2.1318387    2.3970618 
C    -1.2975236   -3.0614738   -3.4929935 
C     4.7896493    2.7861801    0.2433196 
C    -0.1736265   -4.8872603   -2.3368923 
C     3.7579331   -0.6777549   -4.0084273 
C    -2.8249572   -2.3702135    3.7932076 
C     1.6261232    0.3637184   -4.5386939 
C    -3.5775058   -4.0612890    2.2169901 
C     4.7715561    2.8759610    1.6403988 
C    -0.7410823   -4.3470604   -3.4986907 
C     2.8440628   -0.1916414   -4.9574386 
C    -3.6510302   -3.4624038    3.4828544 
C     1.8281505    0.6583928    3.7840294 
C    -2.3884821   -0.4476125   -3.4040995 
H     3.1384864   -1.6660801    0.7531135 
H     2.2987757   -2.3460797   -0.6706604 
H     1.0840809   -1.7588492    2.1078998 
H     1.1551479   -3.3349052    1.2783107 
H     3.9034204    1.8581213   -1.5010055 
H     0.2810984   -4.5449201   -0.2570608 
H     4.1802963   -0.9830919   -1.9083777 
H    -1.3078906   -1.0039431    3.0701580 
H     0.3661390    0.8492139   -2.8356368 
H    -2.6126403   -4.0550986    0.2744802 
H     3.8440968    2.2263049    3.4855948 
H    -1.7392202   -2.6652636   -4.4098854 
H     5.4929135    3.3857364   -0.3416928 
H     0.2532599   -5.8943989   -2.3407101 
H     4.7097025   -1.1098620   -4.3343127 
H    -2.8996210   -1.8848409    4.7710938 
H     0.9133850    0.7452468   -5.2776610 
H    -4.2284178   -4.9065372    1.9704216 
H     5.4713495    3.5407978    2.1570989 
H    -0.7575227   -4.9303532   -4.4251189 
H     3.0835146   -0.2464553   -6.0244300 
H    -4.3614177   -3.8386207    4.2261089 
H     2.7342161    0.3292568    4.3251379 
H     1.5857672    1.7006766    4.0621269 
H     0.9853604    0.0023857    4.0470209 
H    -3.2607591   -1.0224540   -3.7650250 
H    -2.7148293    0.5583591   -3.1018250 
H    -1.6353544   -0.3641945   -4.2090306 
