89
Energy =
C    -2.5341897    1.0603798   -0.5858863 
C    -1.7104795    2.1327646   -0.1545645 
C    -0.5879065    2.5436065   -0.9309917 
H    -1.8246227    2.5233317    0.8640226 
Pd   -0.3948876    0.3952946   -0.3697198 
P     1.9114664    0.1192198   -0.4209439 
P    -0.5015703   -1.8924681    0.0496451 
H    -2.5403646    0.8304628   -1.6626190 
H    -0.6711513    2.4100402   -2.0202238 
C    -5.7420102   -0.7822434    1.6187737 
C    -5.3805579   -1.2493123    0.3457457 
C    -4.3542274   -0.6218971   -0.3693684 
C    -3.6530730    0.4780064    0.1783640 
C    -4.0393900    0.9486478    1.4561363 
C    -5.0728231    0.3258000    2.1652798 
H    -6.5472502   -1.2697245    2.1777417 
H    -5.8974114   -2.1080300   -0.0942799 
H    -4.0729574   -1.0014345   -1.3577612 
H    -3.5307968    1.8084702    1.9033694 
H    -5.3609724    0.7091422    3.1498299 
C     2.3783160    5.4344887    0.2383215 
C     2.1833381    5.1150238   -1.1130488 
C     1.2191560    4.1675954   -1.4785666 
C     0.4272200    3.5228755   -0.5016994 
C     0.6560221    3.8350441    0.8589888 
C     1.6132054    4.7864217    1.2217967 
H     3.1297405    6.1763476    0.5269520 
H     2.7794767    5.6097900   -1.8868838 
H     1.0657928    3.9291952   -2.5371051 
H     0.0894686    3.3180743    1.6409676 
H     1.7754393    5.0145427    2.2798523 
O     1.4674946    0.3381489    2.3968740 
O    -0.8167766   -1.7914170   -2.8061701 
C     2.2774756   -1.6417328    0.1083358 
C     1.1721771   -2.5769311   -0.4057335 
C     2.8709093    1.1839469    0.7061591 
C    -1.7309891   -2.8444067   -0.9054445 
C     2.6997654    0.2851369   -2.0680416 
C    -0.7888563   -2.3279521    1.8043343 
C     2.4983993    1.1753772    2.0778374 
C    -1.7794694   -2.6250969   -2.3087159 
C     3.8805992    2.0626087    0.2762110 
C    -2.6806267   -3.6945705   -0.3122665 
C     4.0298207   -0.1297198   -2.2965221 
C     0.0932388   -3.1240706    2.5618719 
C     1.9611537    0.8415511   -3.1303177 
C    -1.9419884   -1.7948093    2.4216170 
C     3.1728579    1.9932516    2.9991838 
C    -2.7736309   -3.2413758   -3.0869543 
C     4.5460310    2.8875772    1.1928890 
C    -3.6685761   -4.3169901   -1.0886680 
C     4.6032233    0.0099979   -3.5673688 
C    -0.1761833   -3.3809995    3.9149754 
C     2.5379908    0.9828047   -4.4006710 
C    -2.2131337   -2.0656689    3.7684706 
C     4.1968759    2.8402709    2.5484154 
C    -3.7129278   -4.0829956   -2.4688511 
C     3.8589577    0.5656782   -4.6203620 
C    -1.3282153   -2.8562009    4.5199257 
C     0.9638835    0.3188641    3.7364563 
C    -0.7628408   -1.5463184   -4.2152731 
H     2.3105046   -1.6251353    1.2103221 
H     3.2700926   -1.9462793   -0.2637823 
H     1.2878235   -3.6086906   -0.0305841 
H     1.1685638   -2.6200038   -1.5087002 
H     4.1422191    2.1071363   -0.7849607 
H    -2.6523159   -3.8617319    0.7686553 
H     4.6273215   -0.5506728   -1.4802659 
H     0.9931286   -3.5519708    2.1099826 
H     0.9286542    1.1578309   -2.9526103 
H    -2.6301616   -1.1701631    1.8450438 
H     2.9055131    1.9801604    4.0585094 
H    -2.8225829   -3.0770455   -4.1660216 
H     5.3294705    3.5670965    0.8454099 
H    -4.3998073   -4.9780412   -0.6141860 
H     5.6356270   -0.3133283   -3.7356801 
H     0.5157966   -3.9998841    4.4955322 
H     1.9557581    1.4196866   -5.2189321 
H    -3.1168907   -1.6525167    4.2280562 
H     4.7169137    3.4774060    3.2712656 
H    -4.4833979   -4.5606184   -3.0828770 
H     4.3110967    0.6745276   -5.6115616 
H    -1.5360446   -3.0641705    5.5746170 
H     1.7347198   -0.0364390    4.4442880 
H     0.6140614    1.3233119    4.0379507 
H     0.1194587   -0.3832360    3.7251439 
H     0.1125880   -0.9003843   -4.3693306 
H    -0.6301154   -2.4896273   -4.7756363 
H    -1.6766337   -1.0306310   -4.5639691 
