89
Energy =
C    -2.4662183    1.5994407   -0.0143892 
C    -1.4445129    2.5516901    0.2642310 
C    -0.4823999    2.8953040   -0.7255903 
H    -1.3024366    2.8872460    1.2995236 
Pd   -0.4283278    0.7038070   -0.2936029 
P     1.7999169    0.1962789   -0.7190456 
P    -0.6820542   -1.5726456    0.1156528 
H    -2.7957775    1.5122103   -1.0613388 
H    -0.8031465    2.8016988   -1.7746164 
C    -5.3613779    0.3116883    2.8955526 
C    -4.0392808    0.5704030    3.2948320 
C    -3.0853936    0.9669642    2.3541373 
C    -3.4325677    1.1200288    0.9914937 
C    -4.7567652    0.8236055    0.5992169 
C    -5.7146592    0.4340170    1.5441281 
H    -6.1078858    0.0032928    3.6345682 
H    -3.7508930    0.4484108    4.3437863 
H    -2.0505694    1.1413395    2.6694595 
H    -5.0403013    0.9249672   -0.4545963 
H    -6.7410197    0.2267825    1.2235825 
C     2.9540794    5.4325907   -0.1966291 
C     2.4927410    5.1080811   -1.4804649 
C     1.3751237    4.2794306   -1.6358445 
C     0.6948906    3.7563938   -0.5127139 
C     1.1861259    4.0755724    0.7744866 
C     2.2962520    4.9104623    0.9288424 
H     3.8251940    6.0836572   -0.0714309 
H     2.9998446    5.5076120   -2.3648569 
H     1.0143668    4.0391221   -2.6420285 
H     0.6982487    3.6644176    1.6642579 
H     2.6588761    5.1478253    1.9338267 
O     1.6237219    0.4877234    2.1478800 
O    -0.9723002   -4.5142214   -0.2267983 
C     2.0619883   -1.6312127   -0.3398627 
C     1.0044557   -2.1831227    0.6264505 
C     2.9726031    1.1368803    0.3257950 
C    -1.0719485   -2.4840179   -1.4185464 
C     2.4098681    0.3649314   -2.4358347 
C    -1.8635430   -2.1579791    1.3757806 
C     2.7253442    1.1822120    1.7229112 
C    -1.1848697   -3.9018065   -1.4209781 
C     4.0454663    1.8797177   -0.1976728 
C    -1.2510563   -1.7793891   -2.6237008 
C     3.6485556   -0.1850704   -2.8330339 
C    -3.2200516   -2.2867793    1.0118621 
C     1.6070843    1.0204452   -3.3890333 
C    -1.4739633   -2.4234027    2.7038789 
C     3.5723302    1.9097609    2.5736180 
C    -1.4926878   -4.5761497   -2.6173125 
C     4.8885229    2.6138215    0.6482158 
C    -1.5438057   -2.4505073   -3.8181810 
C     4.0742563   -0.0686931   -4.1626178 
C    -4.1656227   -2.6955860    1.9585099 
C     2.0372214    1.1362552   -4.7183375 
C    -2.4273210   -2.8292521    3.6484473 
C     4.6560923    2.6153778    2.0286004 
C    -1.6668891   -3.8467977   -3.8031242 
C     3.2709237    0.5932211   -5.1051719 
C    -3.7727707   -2.9676491    3.2780564 
C     1.1757301    0.6390846    3.4968711 
C    -1.2184344   -5.9175221   -0.0964257 
H     3.0821552   -1.7859052    0.0501680 
H     1.9900072   -2.1377767   -1.3190751 
H     1.1918833   -1.8105951    1.6452001 
H     0.9945200   -3.2854854    0.6373668 
H     4.2167464    1.8933473   -1.2777655 
H    -1.1590798   -0.6860062   -2.6083864 
H     4.2850858   -0.6994948   -2.1046066 
H    -3.5328538   -2.0753616   -0.0162390 
H     0.6399336    1.4332121   -3.0840300 
H    -0.4256270   -2.3370698    3.0062002 
H     3.3952508    1.9349829    3.6515844 
H    -1.5891443   -5.6645553   -2.6336603 
H     5.7184585    3.1866595    0.2246543 
H    -1.6787174   -1.8898345   -4.7476522 
H     5.0359016   -0.4963951   -4.4644076 
H    -5.2158699   -2.7919397    1.6667829 
H     1.4063135    1.6474104   -5.4528359 
H    -2.1147769   -3.0449182    4.6756290 
H     5.3136692    3.1811655    2.6965547 
H    -1.9011657   -4.3858048   -4.7271208 
H     3.6069806    0.6814802   -6.1434541 
H    -4.5154299   -3.2848434    4.0172620 
H     0.2307611    0.0801970    3.5602818 
H     1.9058206    0.2184203    4.2125480 
H     0.9931993    1.7033806    3.7346457 
H    -1.0548940   -6.1480462    0.9657645 
H    -2.2601400   -6.1618912   -0.3730096 
H    -0.5179607   -6.5062998   -0.7170751 
