89
Energy =
C    -2.4362849    1.0297759   -0.9600018 
C    -1.5375045    2.1297876   -0.8764171 
C    -0.4231586    2.2253978   -1.7586752 
H    -1.5826832    2.8051321   -0.0127198 
Pd   -0.3450803    0.3246082   -0.6148008 
P     1.9025480   -0.1749746   -0.6563349 
P    -0.5579680   -1.8157114    0.2940763 
H    -2.5286362    0.5290760   -1.9353332 
H    -0.5368664    1.7832665   -2.7602707 
C    -5.5794477    0.0252324    1.8107407 
C    -5.3833457   -0.7222598    0.6386185 
C    -4.3739007   -0.3661775   -0.2635434 
C    -3.5249791    0.7373602   -0.0093756 
C    -3.7418239    1.4869387    1.1713981 
C    -4.7583145    1.1362552    2.0671274 
H    -6.3719182   -0.2486095    2.5146462 
H    -6.0179145   -1.5880895    0.4240240 
H    -4.2235749   -0.9627983   -1.1699018 
H    -3.1159302    2.3573317    1.3928322 
H    -4.9125495    1.7344209    2.9713864 
C     2.7126438    5.1613964   -1.4788407 
C     2.0883369    4.6953940   -0.3092346 
C     1.0746449    3.7351794   -0.3852978 
C     0.6564523    3.2257289   -1.6369387 
C     1.3117584    3.6813002   -2.8010192 
C     2.3256380    4.6444715   -2.7231879 
H     3.5053750    5.9141166   -1.4169666 
H     2.4006128    5.0789565    0.6679940 
H     0.6248733    3.3459116    0.5337833 
H     1.0168696    3.2795170   -3.7764362 
H     2.8180256    4.9880250   -3.6385912 
O     0.8587189    1.0562887    1.9118753 
O    -1.0307547   -2.0866817   -2.5109755 
C     1.9379272   -2.0012086   -1.0551300 
C     1.0418605   -2.7507251   -0.0537897 
C     2.7202242   -0.0891334    0.9822694 
C    -1.8942618   -2.8235922   -0.4457227 
C     3.0243664    0.6434976   -1.8394461 
C    -0.8362483   -1.8384654    2.1054442 
C     2.0778392    0.4887257    2.1110537 
C    -2.0115267   -2.7850269   -1.8608352 
C     3.9970368   -0.6674788    1.1452163 
C    -2.8392787   -3.5533932    0.2959683 
C     2.8877539    0.3758441   -3.2191234 
C     0.1548111   -2.1907743    3.0434349 
C     3.9496385    1.6153013   -1.4099362 
C    -2.0802187   -1.3528876    2.5719499 
C     2.7135968    0.4508035    3.3693505 
C    -3.0789607   -3.4323285   -2.5044443 
C     4.6294667   -0.6975591    2.3927118 
C    -3.8997899   -4.2109510   -0.3444583 
C     3.6931416    1.0446820   -4.1490454 
C    -0.1037440   -2.0868166    4.4188010 
C     4.7452280    2.2876713   -2.3475568 
C    -2.3343038   -1.2575291    3.9451288 
C     3.9761158   -0.1391413    3.5018852 
C    -4.0195138   -4.1395989   -1.7381250 
C     4.6258916    1.9995156   -3.7141584 
C    -1.3484303   -1.6276502    4.8741419 
C     0.0902662    1.5051719    3.0333109 
C    -1.1485046   -1.8513494   -3.9163942 
H     2.9704983   -2.3908930   -1.0423774 
H     1.5382968   -2.1059610   -2.0774068 
H     1.5742086   -2.8766270    0.9029205 
H     0.7788084   -3.7554688   -0.4226244 
H     4.5049074   -1.0951296    0.2731450 
H    -2.7525560   -3.5990680    1.3855464 
H     2.1540181   -0.3584347   -3.5706208 
H     1.1398086   -2.5400792    2.7211168 
H     4.0453971    1.8496565   -0.3453640 
H    -2.8541566   -1.0529958    1.8598664 
H     2.2261347    0.8834789    4.2457547 
H    -3.1795372   -3.4016885   -3.5921621 
H     5.6200189   -1.1495077    2.4980401 
H    -4.6280089   -4.7743195    0.2464422 
H     3.5922349    0.8208897   -5.2161702 
H     0.6754731   -2.3690216    5.1342434 
H     5.4577650    3.0445443   -2.0049363 
H    -3.3072820   -0.8872434    4.2837845 
H     4.4553820   -0.1557116    4.4863266 
H    -4.8471784   -4.6454343   -2.2457693 
H     5.2529343    2.5236695   -4.4426165 
H    -1.5477312   -1.5547032    5.9482475 
H    -0.8848846    1.7958030    2.6186279 
H    -0.0549443    0.6894628    3.7628434 
H     0.5687492    2.3755080    3.5186532 
H    -1.0828168   -2.7956379   -4.4868367 
H    -2.0973101   -1.3362691   -4.1547261 
H    -0.3024747   -1.1999890   -4.1800889 
