89
Energy =
C    -2.4028214    1.1302260   -0.9370395 
C    -1.4579856    2.1920530   -0.8679204 
C    -0.3513316    2.2380907   -1.7636962 
H    -1.4645950    2.8711539   -0.0060344 
Pd   -0.3394417    0.3384449   -0.6141093 
P     1.8845810   -0.2562621   -0.6799329 
P    -0.6309744   -1.7862223    0.3081528 
H    -2.5271424    0.6307013   -1.9094168 
H    -0.4955051    1.7975553   -2.7620628 
C    -5.5534499    0.2649664    1.8717409 
C    -5.3996115   -0.4953793    0.7016259 
C    -4.3866633   -0.1838568   -0.2129192 
C    -3.4919282    0.8861520    0.0266380 
C    -3.6662483    1.6494573    1.2055972 
C    -4.6863564    1.3437985    2.1136010 
H    -6.3485285    0.0260914    2.5853815 
H    -6.0701248   -1.3365106    0.4982931 
H    -4.2697515   -0.7901982   -1.1177340 
H    -3.0039360    2.4952926    1.4160117 
H    -4.8072008    1.9520244    3.0162442 
C     2.9147703    5.0329669   -1.5338076 
C     2.4934620    4.5250305   -2.7706757 
C     1.4363872    3.6082644   -2.8321394 
C     0.7717968    3.1911667   -1.6588488 
C     1.2235632    3.6909003   -0.4150194 
C     2.2803380    4.6046648   -0.3552633 
H     3.7412694    5.7494300   -1.4846256 
H     2.9925376    4.8390995   -3.6930031 
H     1.1148755    3.2130190   -3.8017867 
H     0.7647788    3.3299211    0.5110631 
H     2.6181991    4.9811877    0.6161759 
O     0.9294133    1.0357505    1.8923933 
O    -1.1549050   -2.0547277   -2.4884746 
C     1.8368500   -2.0835640   -1.0721357 
C     0.9225603   -2.7904311   -0.0562650 
C     2.7239882   -0.2012384    0.9490449 
C    -2.0183204   -2.7422281   -0.4061274 
C     3.0266684    0.5094266   -1.8789143 
C    -0.8846762   -1.7866679    2.1232639 
C     2.1223170    0.4118948    2.0815479 
C    -2.1534443   -2.7089705   -1.8197534 
C     3.9732908   -0.8394847    1.1014274 
C    -2.9813586   -3.4283367    0.3538495 
C     4.0045315    1.4346711   -1.4634345 
C     0.1029751   -2.1764740    3.0499134 
C     2.8565621    0.2495068   -3.2563823 
C    -2.1001828   -1.2454615    2.6034112 
C     2.7691781    0.3496351    3.3331926 
C    -3.2544579   -3.3180783   -2.4438668 
C     4.6168883   -0.8942309    2.3423599 
C    -4.0758173   -4.0478206   -0.2670872 
C     4.8181379    2.0676920   -2.4129665 
C    -0.1323596   -2.0546275    4.4279868 
C     3.6800132    0.8783025   -4.1983221 
C    -2.3313776   -1.1322676    3.9792612 
C     4.0031820   -0.2997646    3.4554479 
C    -4.2116520   -3.9819294   -1.6595423 
C     4.6648412    1.7860469   -3.7775449 
C    -1.3499348   -1.5400495    4.8971685 
C     0.1946999    1.5238661    3.0200423 
C    -1.2811856   -1.8285167   -3.8946231 
H     2.8517646   -2.5172501   -1.0711562 
H     1.4198628   -2.1743656   -2.0887829 
H     1.4613403   -2.9359307    0.8940198 
H     0.6116860   -3.7840807   -0.4178538 
H     4.4506231   -1.2951938    0.2263544 
H    -2.8813740   -3.4697283    1.4424732 
H     4.1273015    1.6635705   -0.4004473 
H     1.0677004   -2.5691484    2.7163917 
H     2.0822402   -0.4475243   -3.5965878 
H    -2.8700142   -0.9162635    1.8998697 
H     2.3125287    0.8092948    4.2124320 
H    -3.3688199   -3.2912379   -3.5303206 
H     5.5855897   -1.3929527    2.4396072 
H    -4.8175426   -4.5776589    0.3378732 
H     5.5718005    2.7887520   -2.0812251 
H     0.6435716   -2.3664622    5.1346330 
H     3.5523574    0.6603687   -5.2637934 
H    -3.2828573   -0.7187192    4.3287969 
H     4.4916951   -0.3347779    4.4348553 
H    -5.0655370   -4.4582433   -2.1520911 
H     5.3060351    2.2790768   -4.5153501 
H    -1.5315342   -1.4534406    5.9734031 
H     0.0185235    0.7180554    3.7537500 
H     0.7188623    2.3719377    3.4975016 
H    -0.7697652    1.8593348    2.6143674 
H    -2.2116741   -1.2782907   -4.1264432 
H    -0.4133383   -1.2140652   -4.1755025 
H    -1.2604143   -2.7802089   -4.4561350 
