89
Energy =
C    -2.4016599    1.1718369   -0.6587446 
C    -1.5367611    2.2286063   -0.2699904 
C    -0.3615147    2.5230989   -1.0202171 
H    -1.6729113    2.7097158    0.7068304 
Pd   -0.3171980    0.4094540   -0.2997441 
P     1.9497084   -0.0914735   -0.2651618 
P    -0.6521260   -1.8323341    0.2319701 
H    -2.3764832    0.8647939   -1.7158518 
H    -0.3950671    2.3068369   -2.0993861 
C    -5.8234369   -0.3057796    1.4959970 
C    -5.0924051    0.7755958    2.0155737 
C    -3.9867951    1.2792798    1.3226712 
C    -3.5850663    0.7109512    0.0904782 
C    -4.3450728   -0.3610473   -0.4309482 
C    -5.4476343   -0.8672804    0.2668480 
H    -6.6872615   -0.6987801    2.0417820 
H    -5.3915097    1.2332258    2.9645236 
H    -3.4361502    2.1266857    1.7446089 
H    -4.0562801   -0.8090867   -1.3880532 
H    -6.0143023   -1.7044151   -0.1535962 
C     2.6389332    5.3913761    0.1273453 
C     2.3555751    5.1589693   -1.2262651 
C     1.3742656    4.2272828   -1.5885490 
C     0.6594683    3.5055877   -0.6055926 
C     0.9636191    3.7451326    0.7543143 
C     1.9355783    4.6827311    1.1148487 
H     3.4065661    6.1175534    0.4130877 
H     2.8944728    5.7109327   -2.0033901 
H     1.1411968    4.0683049   -2.6481485 
H     0.4521713    3.1667907    1.5317278 
H     2.1615933    4.8490343    2.1726618 
O     1.6196845    0.5701220    2.5028669 
O    -0.5344728   -1.8105573   -2.6149513 
C     2.1268587   -1.7871890    0.4940819 
C     0.9900423   -2.7017909    0.0159476 
C     3.0600598    0.9964008    0.6877291 
C    -1.8199254   -2.7085767   -0.8613319 
C     2.6497663   -0.2082332   -1.9559491 
C    -1.1947904   -2.1867724    1.9430259 
C     2.7347590    1.2199881    2.0529408 
C    -1.6387917   -2.5331514   -2.2601806 
C     4.1690522    1.6572040    0.1307132 
C    -2.9362896   -3.4247186   -0.3968982 
C     3.2231422   -1.3864583   -2.4741099 
C    -1.0329862   -3.4530767    2.5443152 
C     2.5360731    0.9252304   -2.7910229 
C    -1.8289340   -1.1547144    2.6623347 
C     3.5354825    2.0612823    2.8421429 
C    -2.5646098   -3.0744405   -3.1669403 
C     4.9565035    2.5134182    0.9123003 
C    -3.8567424   -3.9749350   -1.3013579 
C     3.6691759   -1.4292640   -3.8042130 
C    -1.4937776   -3.6743865    3.8493833 
C     2.9965258    0.8833136   -4.1126543 
C    -2.3004137   -1.3837176    3.9622120 
C     4.6403392    2.7042246    2.2634515 
C    -3.6676281   -3.7944210   -2.6777141 
C     3.5583212   -0.2977614   -4.6251699 
C    -2.1286911   -2.6419149    4.5585225 
C     1.2119634    0.7298451    3.8648609 
C    -0.2857424   -1.5195142   -3.9944714 
H     2.0665693   -1.6181352    1.5823558 
H     3.1246182   -2.2049328    0.2745220 
H     0.9890124   -3.6644557    0.5542182 
H     1.0683315   -2.9137471   -1.0637111 
H     4.4201901    1.4966601   -0.9221254 
H    -3.0943201   -3.5362898    0.6801694 
H     3.3287061   -2.2801413   -1.8521035 
H    -0.5585234   -4.2741692    1.9960124 
H     2.0981817    1.8459748   -2.3940066 
H    -1.9591454   -0.1748686    2.1927182 
H     3.3010270    2.2289615    3.8960723 
H    -2.4349297   -2.9455459   -4.2443420 
H     5.8162777    3.0220711    0.4667672 
H    -4.7204849   -4.5339908   -0.9294836 
H     4.1107107   -2.3513003   -4.1962327 
H    -1.3626566   -4.6580666    4.3119666 
H     2.9138562    1.7734514   -4.7450831 
H    -2.8054365   -0.5784852    4.5058033 
H     5.2556620    3.3651087    2.8826687 
H    -4.3842272   -4.2164470   -3.3898799 
H     3.9113696   -0.3343904   -5.6608592 
H    -2.4928652   -2.8219535    5.5753448 
H     0.9694851    1.7864810    4.0833160 
H     0.3116427    0.1095705    3.9775209 
H     1.9976501    0.3774976    4.5579581 
H    -0.1273202   -2.4486103   -4.5713837 
H    -1.1222608   -0.9449011   -4.4327984 
H     0.6314123   -0.9143611   -4.0068983 
