89
Energy =
C    -2.4516364    1.0942643    0.0200273 
C    -1.5846610    2.1132162    0.4954703 
C    -0.5747132    2.6571477   -0.3478717 
H    -1.5596829    2.3360238    1.5687287 
Pd   -0.3204200    0.4512814   -0.1773281 
P     1.9326090    0.0526200   -0.5290230 
P    -0.5289076   -1.8397444    0.0927873 
H    -2.6282736    1.0526799   -1.0635549 
H    -0.7571164    2.6189780   -1.4334396 
C    -5.4124220   -1.0612303    2.2799550 
C    -5.3427179   -1.1825271    0.8841737 
C    -4.3632191   -0.4844745    0.1675998 
C    -3.4339185    0.3512080    0.8292821 
C    -3.4967510    0.4369659    2.2392107 
C    -4.4801252   -0.2545943    2.9530070 
H    -6.1834868   -1.5975501    2.8425412 
H    -6.0588938   -1.8159621    0.3503106 
H    -4.3154249   -0.5754220   -0.9231296 
H    -2.7733538    1.0498056    2.7861523 
H    -4.5164341   -0.1696046    4.0437407 
C     2.4292954    5.5337718    0.7718264 
C     1.4291433    5.1823151    1.6916895 
C     0.4508490    4.2413527    1.3484152 
C     0.4472707    3.6347292    0.0716672 
C     1.4623079    4.0000696   -0.8424032 
C     2.4413424    4.9369960   -0.4979485 
H     3.1918458    6.2712411    1.0417532 
H     1.4029538    5.6546744    2.6796072 
H    -0.3345546    4.0012702    2.0724273 
H     1.4824893    3.5325752   -1.8337824 
H     3.2200671    5.1991915   -1.2207640 
O     2.0241599    1.1553675    2.1168089 
O    -1.8218317   -0.9761252   -2.4845039 
C     2.2857489   -1.5569262    0.3527294 
C     1.1999438   -2.5888526    0.0163761 
C     3.1906402    1.2238194    0.0695635 
C    -1.4697141   -2.8675627   -1.0899482 
C     2.3208819   -0.2746231   -2.2909920 
C    -1.1595042   -2.2258257    1.7690101 
C     3.0624459    1.6898574    1.4052371 
C    -2.0015423   -2.3140803   -2.2852646 
C     4.2247575    1.7294564   -0.7391934 
C    -1.5983849   -4.2541937   -0.8640244 
C     3.4160760   -1.0680770   -2.6934039 
C    -0.4268193   -1.7092824    2.8622209 
C     1.4750559    0.2807075   -3.2732366 
C    -2.3612028   -2.9173703    2.0088004 
C     3.9732699    2.6286789    1.9144253 
C    -2.6703003   -3.1479316   -3.2031112 
C     5.1358261    2.6643113   -0.2302715 
C    -2.2614146   -5.0817823   -1.7776413 
C     3.6539976   -1.3021996   -4.0548694 
C    -0.8673327   -1.9254383    4.1729159 
C     1.7192750    0.0504312   -4.6337638 
C    -2.7994917   -3.1244648    3.3251423 
C     5.0041614    3.1073430    1.0924805 
C    -2.7996591   -4.5183854   -2.9427637 
C     2.8072198   -0.7441173   -5.0255143 
C    -2.0535195   -2.6400179    4.4075691 
C     1.7796553    1.6196223    3.4472733 
C    -2.2448168   -0.3877542   -3.7156238 
H     2.3001267   -1.3035995    1.4260864 
H     3.2910694   -1.9276247    0.0879887 
H     1.2504616   -3.4677684    0.6818913 
H     1.3155753   -2.9423816   -1.0239043 
H     4.3126863    1.3888635   -1.7757724 
H    -1.1727585   -4.6893991    0.0469404 
H     4.0917255   -1.5017134   -1.9482453 
H     0.4822285   -1.1246142    2.6828856 
H     0.6189618    0.8880497   -2.9593578 
H    -2.9678611   -3.2797492    1.1745466 
H     3.8825427    2.9969491    2.9385163 
H    -3.0889553   -2.7358081   -4.1240407 
H     5.9402713    3.0463641   -0.8656961 
H    -2.3537188   -6.1541724   -1.5825582 
H     4.5045874   -1.9209197   -4.3588615 
H    -0.2860785   -1.5324823    5.0140352 
H     1.0585786    0.4892220   -5.3889365 
H    -3.7379929   -3.6601201    3.4994981 
H     5.7083422    3.8412749    1.4974947 
H    -3.3232083   -5.1504648   -3.6675097 
H     2.9967439   -0.9293147   -6.0878566 
H    -2.3995026   -2.8076064    5.4326907 
H     0.8615769    1.1105152    3.7750828 
H     2.6153010    1.3527735    4.1202861 
H     1.6209040    2.7124406    3.4576127 
H    -1.9689887    0.6748460   -3.6457290 
H    -1.7244855   -0.8471989   -4.5760118 
H    -3.3391751   -0.4722134   -3.8486305 
