89
Energy =
C    -2.4823005    1.5728201   -0.0531945 
C    -1.4740837    2.5387548    0.2276642 
C    -0.5058834    2.8846282   -0.7553478 
H    -1.3463014    2.8847477    1.2613847 
Pd   -0.4325139    0.6966757   -0.3034121 
P     1.8049588    0.2092331   -0.7012358 
P    -0.6666262   -1.5780647    0.1237495 
H    -2.7998906    1.4731061   -1.1027200 
H    -0.8148482    2.7779622   -1.8066644 
C    -5.3933889    0.2758552    2.8367458 
C    -4.0787450    0.5533395    3.2478282 
C    -3.1195221    0.9532832    2.3140156 
C    -3.4539449    1.0913141    0.9465927 
C    -4.7704591    0.7766381    0.5428652 
C    -5.7336943    0.3832325    1.4807315 
H    -6.1440206   -0.0355121    3.5703158 
H    -3.8001747    0.4433295    4.3007499 
H    -2.0901433    1.1420337    2.6387570 
H    -5.0439301    0.8663455   -0.5146507 
H    -6.7540603    0.1612518    1.1510504 
C     2.8960902    5.4654152   -0.2148134 
C     2.4506408    5.1254146   -1.5002462 
C     1.3441570    4.2826512   -1.6593666 
C     0.6594974    3.7606517   -0.5384319 
C     1.1350346    4.0954861    0.7506931 
C     2.2338904    4.9444755    0.9086487 
H     3.7584014    6.1275570   -0.0867559 
H     2.9614946    5.5236837   -2.3830455 
H     0.9955045    4.0303724   -2.6669027 
H     0.6439066    3.6852948    1.6391214 
H     2.5842114    5.1940933    1.9150187 
O     1.6002493    0.5245734    2.1610795 
O    -0.9216588   -4.5256434   -0.1957901 
C     2.0829420   -1.6115116   -0.3012226 
C     1.0205316   -2.1661173    0.6581184 
C     2.9575566    1.1726778    0.3450216 
C    -1.0302396   -2.5070727   -1.4063884 
C     2.4298152    0.3674972   -2.4136961 
C    -1.8553933   -2.1655323    1.3760671 
C     2.6974118    1.2280469    1.7394237 
C    -1.1281453   -3.9259392   -1.3974620 
C     4.0260734    1.9233660   -0.1761078 
C    -1.2041005   -1.8149581   -2.6195429 
C     3.6775087   -0.1742577   -2.7936132 
C    -3.2060483   -2.3139808    0.9981331 
C     1.6301477    1.0062210   -3.3807977 
C    -1.4777242   -2.4144882    2.7107653 
C     3.5280292    1.9737279    2.5905670 
C    -1.4162318   -4.6139344   -2.5909313 
C     4.8526065    2.6756514    0.6701057 
C    -1.4770393   -2.4995645   -3.8110610 
C     4.1149881   -0.0664479   -4.1200856 
C    -4.1571807   -2.7263866    1.9376133 
C     2.0721105    1.1135660   -4.7069321 
C    -2.4366499   -2.8240048    3.6480797 
C     4.6079084    2.6873865    2.0483209 
C    -1.5854688   -3.8968981   -3.7849422 
C     3.3145592    0.5786430   -5.0766623 
C    -3.7759761   -2.9824066    3.2637776 
C     1.1385183    0.6830665    3.5046023 
C    -1.1548321   -5.9301939   -0.0554828 
H     3.1001644   -1.7509751    0.1019604 
H     2.0279380   -2.1282814   -1.2762058 
H     1.1927039   -1.7826780    1.6755383 
H     1.0220217   -3.2683893    0.6789331 
H     4.2068930    1.9285897   -1.2547186 
H    -1.1241179   -0.7205374   -2.6128731 
H     4.3117906   -0.6755293   -2.0541561 
H    -3.5097890   -2.1151638   -0.0351819 
H     0.6561193    1.4124336   -3.0891677 
H    -0.4340810   -2.3123105    3.0241964 
H     3.3411121    2.0069557    3.6666547 
H    -1.5011234   -5.7033958   -2.5986210 
H     5.6792798    3.2545635    0.2484323 
H    -1.6078963   -1.9484931   -4.7468288 
H     5.0835973   -0.4876531   -4.4084517 
H    -5.2027832   -2.8382937    1.6349486 
H     1.4436585    1.6118707   -5.4522831 
H    -2.1331699   -3.0267799    4.6805875 
H     5.2525109    3.2676088    2.7165426 
H    -1.8040750   -4.4464557   -4.7065645 
H     3.6597855    0.6601357   -6.1124867 
H    -4.5229567   -3.3027257    3.9972614 
H     0.9410480    1.7472692    3.7306529 
H     0.1997292    0.1135170    3.5649935 
H     1.8672183    0.2780621    4.2306351 
H    -0.4419445   -6.5172115   -0.6635277 
H    -1.0001195   -6.1496551    1.0103631 
H    -2.1910381   -6.1876328   -0.3407352 
