89
Energy =
C     0.8888258   -1.9503472   -1.8635976 
C     0.2318235   -2.7447858   -0.8832804 
C    -1.1787164   -2.6988319   -0.7212727 
H     0.8362945   -3.2435969   -0.1160777 
Pd   -0.2950385   -0.6551583   -0.4749880 
P    -1.7682393    0.4840210    0.9105596 
P     0.9296635    1.3153462   -0.5212360 
H     0.3141531   -1.7028637   -2.7688879 
H    -1.7765891   -2.3911628   -1.5933817 
C     5.1481210   -1.6080475   -2.3870235 
C     4.2656423   -1.1827334   -3.3904427 
C     2.8821583   -1.2879285   -3.1999527 
C     2.3514400   -1.8206767   -2.0031829 
C     3.2543943   -2.2136096   -0.9876628 
C     4.6348930   -2.1176741   -1.1828837 
H     6.2302635   -1.5357374   -2.5368980 
H     4.6547274   -0.7770939   -4.3301704 
H     2.1989428   -0.9655222   -3.9935858 
H     2.8764979   -2.5929592   -0.0328073 
H     5.3166050   -2.4320220   -0.3864014 
C    -3.4721881   -4.7559780    2.2871205 
C    -4.0823561   -3.8375670    1.4195062 
C    -3.3217266   -3.1721351    0.4531986 
C    -1.9330800   -3.4074024    0.3291080 
C    -1.3320340   -4.3337884    1.2119388 
C    -2.0945567   -5.0013797    2.1775246 
H    -4.0671682   -5.2812785    3.0409640 
H    -5.1549621   -3.6357287    1.4995824 
H    -3.8033833   -2.4506753   -0.2169225 
H    -0.2648622   -4.5622105    1.1248815 
H    -1.6130313   -5.7285808    2.8401212 
O     2.1701228    3.9647888   -1.0338870 
O    -0.4691312   -1.2514400    2.7747846 
C     0.1242392    2.5260433    0.6717870 
C    -0.7238830    1.8010065    1.7266631 
C     1.0603329    2.1914271   -2.1126142 
C    -2.6055610   -0.3959297    2.2659500 
C     2.6249328    1.0409770    0.1099112 
C    -3.0551149    1.4190942    0.0021413 
C     1.6930765    3.4608678   -2.2030080 
C    -1.8025860   -1.2392606    3.0797168 
C     0.5150345    1.6121430   -3.2722727 
C    -3.9924605   -0.3390901    2.4954504 
C     2.7656084    0.4907984    1.4025024 
C    -3.7547130    2.4947822    0.5912783 
C     3.7708315    1.2959591   -0.6647608 
C    -3.3276755    1.0687194   -1.3360620 
C     1.7912237    4.1069086   -3.4494206 
C    -2.3860058   -1.9831237    4.1170847 
C     0.6037089    2.2574130   -4.5126713 
C    -4.5748972   -1.0785670    3.5331931 
C     4.0401192    0.2412854    1.9269893 
C    -4.7116194    3.2013741   -0.1492313 
C     5.0427107    1.0363808   -0.1368328 
C    -4.2862119    1.7775816   -2.0737065 
C     1.2477318    3.4999483   -4.5915098 
C    -3.7683259   -1.8941851    4.3376612 
C     5.1819525    0.5189409    1.1589993 
C    -4.9779632    2.8438641   -1.4807957 
C     2.9000198    5.1952821   -1.0408980 
C     0.4032233   -2.1251733    3.4965503 
H    -0.5105364    3.1777738    0.0451014 
H     0.9069627    3.1539675    1.1258891 
H    -1.3668826    2.5070487    2.2803202 
H    -0.1007029    1.2691255    2.4652874 
H     0.0138460    0.6420747   -3.1865725 
H    -4.6200214    0.2861893    1.8529015 
H     1.8757349    0.2499196    1.9949921 
H    -3.5607362    2.7797251    1.6312739 
H     3.6720647    1.6833717   -1.6829073 
H    -2.7757957    0.2412445   -1.7980050 
H     2.2811469    5.0797353   -3.5360013 
H    -1.7784824   -2.6373136    4.7461043 
H     0.1750317    1.7958782   -5.4070051 
H    -5.6534572   -1.0209817    3.7070860 
H     4.1425333   -0.1742673    2.9351759 
H    -5.2513886    4.0335381    0.3144196 
H     5.9294666    1.2318533   -0.7482404 
H    -4.4896425    1.4995416   -3.1128656 
H     1.3278537    4.0150649   -5.5544725 
H    -4.2153354   -2.4792641    5.1478255 
H     6.1785608    0.3206827    1.5666958 
H    -5.7250369    3.3998444   -2.0566080 
H     3.2074565    5.3632109    0.0008002 
H     3.7960751    5.1196359   -1.6838235 
H     2.2649576    6.0337650   -1.3811969 
H     0.0667780   -3.1734822    3.4103046 
H     1.3907486   -2.0140858    3.0251099 
H     0.4635671   -1.8345039    4.5615689 
