89
Energy =
C     0.7454137   -1.5438634   -2.1470087 
C    -0.0465418   -2.3759355   -1.3129181 
C    -1.4206215   -2.0800346   -1.0781928 
H     0.4366555   -3.1507986   -0.7043206 
Pd   -0.1360829   -0.3664477   -0.4441695 
P    -1.4504209    0.7230366    1.1291708 
P     1.3397011    1.4185073   -0.2032706 
H     0.2175227   -0.9327669   -2.8953545 
H    -1.9622713   -1.5629901   -1.8854036 
C     4.9873365   -1.8358457   -2.8224343 
C     4.3534080   -2.7719331   -1.9882673 
C     2.9735956   -2.7031766   -1.7693410 
C     2.1936121   -1.6931533   -2.3812194 
C     2.8420169   -0.7742580   -3.2380100 
C     4.2237417   -0.8410362   -3.4507061 
H     6.0678505   -1.8909397   -2.9897100 
H     4.9388967   -3.5647759   -1.5107397 
H     2.5008533   -3.4469643   -1.1193287 
H     2.2545304    0.0089312   -3.7294141 
H     4.7038954   -0.1112865   -4.1106851 
C    -3.9499432   -4.1962479    1.6916080 
C    -4.4812662   -3.6536232    0.5127098 
C    -3.6490066   -2.9707835   -0.3835885 
C    -2.2698207   -2.8123028   -0.1175995 
C    -1.7519228   -3.3572181    1.0798589 
C    -2.5812205   -4.0477576    1.9682330 
H    -4.5985215   -4.7287710    2.3944983 
H    -5.5460954   -3.7695935    0.2853327 
H    -4.0665529   -2.5702057   -1.3149831 
H    -0.6947142   -3.2096857    1.3265274 
H    -2.1628256   -4.4567245    2.8930401 
O    -0.4713559    2.2862926   -2.2246212 
O     0.1879689   -0.8110720    2.9055261 
C     0.4485342    2.7424773    0.7716995 
C    -0.4129237    2.0901712    1.8622979 
C     1.8351492    2.2103841   -1.7697868 
C    -2.0698105   -0.2424714    2.5461360 
C     2.8919326    1.0729797    0.7018167 
C    -2.9062201    1.5337056    0.3641511 
C     0.7936352    2.5198561   -2.6860989 
C    -1.1085063   -0.9538888    3.3139581 
C     3.1720894    2.4040693   -2.1567297 
C    -3.4320148   -0.3614576    2.8730877 
C     3.6548499    2.0858549    1.3206398 
C    -3.1195143    2.9262154    0.3968711 
C     3.3493755   -0.2591952    0.7398775 
C    -3.8091325    0.7172170   -0.3523246 
C     1.0995144    3.0157849   -3.9638284 
C    -1.5150033   -1.7370080    4.4063286 
C     3.4794536    2.9095809   -3.4287450 
C    -3.8402837   -1.1588486    3.9508376 
C     4.8522875    1.7627505    1.9737727 
C    -4.2135206    3.4894467   -0.2782704 
C     4.5542412   -0.5762432    1.3817055 
C    -4.9077707    1.2814354   -1.0119024 
C     2.4440263    3.2084282   -4.3239109 
C    -2.8804132   -1.8353690    4.7144371 
C     5.3039384    0.4334747    2.0036746 
C    -5.1090187    2.6713693   -0.9821034 
C    -1.5953758    2.4975887   -3.0856607 
C     1.2295328   -1.4905113    3.6128220 
H    -0.1710191    3.2800363    0.0342979 
H     1.1706266    3.4590582    1.1978550 
H    -1.0532427    2.8202207    2.3871036 
H     0.2174522    1.5928450    2.6185732 
H     3.9767786    2.1398241   -1.4636931 
H    -4.1783084    0.1769232    2.2810349 
H     3.3269152    3.1304657    1.2875126 
H    -2.4399744    3.5855755    0.9446730 
H     2.7610936   -1.0432236    0.2534205 
H    -3.6546701   -0.3657896   -0.3766670 
H     0.3066246    3.2562919   -4.6763895 
H    -0.7822539   -2.2777226    5.0101393 
H     4.5234622    3.0596378   -3.7192759 
H    -4.9032752   -1.2440953    4.1942699 
H     5.4380945    2.5524864    2.4553946 
H    -4.3673749    4.5730615   -0.2472967 
H     4.9073628   -1.6126364    1.3903336 
H    -5.6068658    0.6351321   -1.5529240 
H     2.6759513    3.5983409   -5.3203809 
H    -3.1910214   -2.4539348    5.5627761 
H     6.2437084    0.1876684    2.5090242 
H    -5.9634829    3.1146077   -1.5036807 
H    -2.4768113    2.2138082   -2.4938836 
H    -1.6712111    3.5595129   -3.3819570 
H    -1.5260442    1.8614998   -3.9872315 
H     2.1621748   -1.2124488    3.1021658 
H     1.2697019   -1.1651077    4.6684135 
H     1.0887418   -2.5864105    3.5664208 
