89
Energy =
C     0.9395205   -1.5585604   -2.1389447 
C     0.1816362   -2.4097145   -1.2926999 
C    -1.2217447   -2.2160432   -1.1351945 
H     0.7028618   -3.0970442   -0.6152194 
Pd   -0.1170677   -0.3717566   -0.5460780 
P    -1.6118149    0.5891112    0.9499610 
P     1.1645718    1.5497466   -0.2601567 
H     0.3996006   -1.0358726   -2.9435673 
H    -1.7592123   -1.8005857   -2.0009010 
C     5.2232831   -1.5046048   -2.5792141 
C     4.6243928   -2.4649941   -1.7466265 
C     3.2327787   -2.5088822   -1.6044152 
C     2.4055910   -1.5924881   -2.2968165 
C     3.0222407   -0.6483516   -3.1510583 
C     4.4145142   -0.6000801   -3.2842107 
H     6.3123480   -1.4705752   -2.6855648 
H     5.2464080   -3.1870575   -1.2071105 
H     2.7892669   -3.2645080   -0.9483875 
H     2.4010378    0.0697330   -3.6974695 
H     4.8676102    0.1497242   -3.9404445 
C    -3.7650474   -4.2838705    1.6537146 
C    -4.3046420   -3.6567608    0.5215215 
C    -3.4660064   -2.9816861   -0.3739431 
C    -2.0705454   -2.9231884   -0.1588689 
C    -1.5454575   -3.5359840    1.0030293 
C    -2.3825954   -4.2156653    1.8919283 
H    -4.4179215   -4.8141820    2.3543279 
H    -5.3820923   -3.6983522    0.3307359 
H    -3.8931739   -2.5007345   -1.2611158 
H    -0.4739943   -3.4677007    1.2200414 
H    -1.9575102   -4.6832868    2.7854657 
O    -0.3586167    2.2002509   -2.6124100 
O     0.2800356   -0.5594532    2.7624723 
C     0.0317281    2.8094652    0.5192357 
C    -0.8102099    2.1461032    1.6201020 
C     1.8404540    2.3187276   -1.7709694 
C    -2.0433095   -0.4141690    2.4100008 
C     2.5879694    1.3495812    0.8734922 
C    -3.2026058    1.1568239    0.2357311 
C     0.9485454    2.5155553   -2.8597158 
C    -0.9668061   -0.9162802    3.1905514 
C     3.2022278    2.6258614   -1.9380174 
C    -3.3589994   -0.7826706    2.7408545 
C     2.7687887    2.1249283    2.0362672 
C    -4.0798933    1.9947037    0.9583077 
C     3.5224159    0.3358210    0.5665291 
C    -3.5563187    0.7506291   -1.0656190 
C     1.4284849    2.9971458   -4.0891627 
C    -1.2218302   -1.7225928    4.3119359 
C     3.6816390    3.1142598   -3.1619056 
C    -3.6136362   -1.5962834    3.8529461 
C     3.8677270    1.8884691    2.8764307 
C    -5.2855119    2.4170108    0.3825049 
C     4.6249055    0.1134994    1.4009569 
C    -4.7647617    1.1723612   -1.6387357 
C     2.7944765    3.2913905   -4.2310387 
C    -2.5465392   -2.0518927    4.6372995 
C     4.7981208    0.8869164    2.5605468 
C    -5.6293178    2.0072124   -0.9157062 
C    -1.3350263    2.4100875   -3.6376529 
C     1.4315347   -1.0839491    3.4313942 
H    -0.6056797    3.1656321   -0.3086817 
H     0.6069957    3.6735864    0.8946318 
H    -1.5850477    2.8306931    2.0041165 
H    -0.1825618    1.8224409    2.4669200 
H     3.8949410    2.4706313   -1.1054557 
H    -4.1894918   -0.4371542    2.1185300 
H     2.0620516    2.9179646    2.2985080 
H    -3.8316455    2.3094923    1.9780661 
H     3.3886687   -0.2769913   -0.3295917 
H    -2.8725540    0.1061900   -1.6265630 
H     0.7522170    3.1485573   -4.9338558 
H    -0.4016010   -2.0982716    4.9282799 
H     4.7435555    3.3507441   -3.2768441 
H    -4.6419793   -1.8757904    4.0992544 
H     3.9989631    2.4957878    3.7779920 
H    -5.9601089    3.0662675    0.9500661 
H     5.3454179   -0.6693303    1.1423718 
H    -5.0314546    0.8481609   -2.6502486 
H     3.1599802    3.6671538   -5.1922617 
H    -2.7383552   -2.6830366    5.5112306 
H     5.6570792    0.7108438    3.2162889 
H    -6.5727862    2.3382982   -1.3617852 
H    -1.3573949    3.4697482   -3.9508614 
H    -1.1357173    1.7659828   -4.5139485 
H    -2.2997403    2.1393605   -3.1866890 
H     1.4307450   -2.1891820    3.4043004 
H     2.2973694   -0.6972366    2.8774563 
H     1.4736274   -0.7358405    4.4794294 
