89
Energy =
C     0.7316204   -1.5751519   -2.1316453 
C    -0.0508887   -2.3976420   -1.2789184 
C    -1.4240349   -2.1017756   -1.0389553 
H     0.4394011   -3.1619294   -0.6626827 
Pd   -0.1385732   -0.3753824   -0.4412744 
P    -1.4350978    0.7333692    1.1333587 
P     1.3403078    1.4114453   -0.2398947 
H     0.1948773   -0.9790717   -2.8858257 
H    -1.9715835   -1.5971180   -1.8500442 
C     4.9675658   -1.8615816   -2.8456662 
C     4.3476275   -2.7807974   -1.9827268 
C     2.9701964   -2.7130832   -1.7495738 
C     2.1785771   -1.7209279   -2.3753140 
C     2.8131341   -0.8178550   -3.2588018 
C     4.1925005   -0.8839407   -3.4865784 
H     6.0461915   -1.9163920   -3.0247945 
H     4.9422945   -3.5597373   -1.4938231 
H     2.5082615   -3.4440878   -1.0775867 
H     2.2165594   -0.0479019   -3.7600843 
H     4.6617202   -0.1672434   -4.1683772 
C    -3.9351216   -4.1728312    1.7807437 
C    -4.4755591   -3.6412975    0.6009607 
C    -3.6489064   -2.9734261   -0.3115834 
C    -2.2663284   -2.8188279   -0.0613615 
C    -1.7391481   -3.3522692    1.1372434 
C    -2.5629414   -4.0281147    2.0418497 
H    -4.5792101   -4.6937766    2.4963071 
H    -5.5432485   -3.7541426    0.3857688 
H    -4.0737227   -2.5820881   -1.2436223 
H    -0.6788364   -3.2073869    1.3718555 
H    -2.1373031   -4.4285646    2.9670860 
O    -0.4970465    2.2724016   -2.2403292 
O     0.2073462   -0.7858385    2.9254701 
C     0.4656258    2.7452958    0.7377680 
C    -0.3846205    2.1029302    1.8431749 
C     1.8160034    2.1876270   -1.8204719 
C    -2.0500005   -0.2140810    2.5646788 
C     2.9030583    1.0717868    0.6488968 
C    -2.8942920    1.5428339    0.3731996 
C     0.7619203    2.4948289   -2.7231707 
C    -1.0887213   -0.9186397    3.3387812 
C     3.1476514    2.3687275   -2.2314552 
C    -3.4117217   -0.3262125    2.8965388 
C     3.6984882    2.0966658    1.2043141 
C    -3.1093574    2.9349860    0.4068080 
C     3.3334027   -0.2663383    0.7424817 
C    -3.8004061    0.7247159   -0.3372511 
C     1.0502154    2.9773021   -4.0101379 
C    -1.4945281   -1.6863773    4.4423305 
C     3.4375452    2.8601195   -3.5130439 
C    -3.8194002   -1.1091609    3.9849790 
C     4.9017303    1.7796121    1.8493641 
C    -4.2083901    3.4963650   -0.2617228 
C     4.5436267   -0.5782565    1.3769678 
C    -4.9042375    1.2869842   -0.9898854 
C     2.3897541    3.1575908   -4.3940561 
C    -2.8593063   -1.7779664    4.7549716 
C     5.3261232    0.4436817    1.9349751 
C    -5.1072324    2.6766387   -0.9593923 
C    -1.6323061    2.4844553   -3.0864370 
C     1.2476231   -1.4560473    3.6433518 
H    -0.1608898    3.2820153    0.0056679 
H     1.1971454    3.4596405    1.1515345 
H    -1.0159547    2.8388477    2.3706689 
H     0.2533176    1.6089040    2.5952415 
H     3.9622791    2.1054664   -1.5499248 
H    -4.1583159    0.2068724    2.3001327 
H     3.3910212    3.1452664    1.1264222 
H    -2.4275641    3.5954830    0.9504610 
H     2.7183628   -1.0591404    0.3057114 
H    -3.6439202   -0.3579729   -0.3628031 
H     0.2473615    3.2167521   -4.7117825 
H    -0.7616104   -2.2210558    5.0512412 
H     4.4777092    2.9998925   -3.8219042 
H    -4.8820425   -1.1888819    4.2317523 
H     5.5134516    2.5785854    2.2809205 
H    -4.3636166    4.5797636   -0.2302209 
H     4.8752948   -1.6203916    1.4301778 
H    -5.6058696    0.6394185   -1.5260693 
H     2.6078820    3.5359814   -5.3980505 
H    -3.1692149   -2.3855153    5.6114809 
H     6.2703318    0.2020475    2.4340097 
H    -5.9656993    3.1184184   -1.4755968 
H    -1.7051525    3.5443841   -3.3905127 
H    -1.5806305    1.8403581   -3.9834787 
H    -2.5068173    2.2118723   -2.4795154 
H     2.1811009   -1.1860313    3.1300348 
H     1.2871778   -1.1156885    4.6942374 
H     1.1059840   -2.5523921    3.6124267 
