89
Energy =
C     0.6269852   -1.3887260   -2.3674048 
C    -0.3669418   -2.1578820   -1.7002042 
C    -1.7032936   -1.6771383   -1.5904231 
H    -0.0707891   -3.0285214   -1.1014539 
Pd   -0.2814816   -0.2287528   -0.6879526 
P    -1.6168895    0.8972495    0.8134125 
P     1.2871205    1.4166504   -0.1562227 
H     0.2833686   -0.6872304   -3.1420240 
H    -2.0701980   -1.0269375   -2.3993213 
C     4.8675451   -2.1440979   -2.4729136 
C     4.3047930   -1.0802718   -3.1956685 
C     2.9218200   -0.8654642   -3.1710348 
C     2.0677908   -1.6995945   -2.4108999 
C     2.6489710   -2.7741045   -1.6963015 
C     4.0305794   -2.9941615   -1.7305461 
H     5.9484225   -2.3164998   -2.4951024 
H     4.9441720   -0.4122393   -3.7816420 
H     2.4948570   -0.0262939   -3.7310005 
H     2.0178526   -3.4505242   -1.1109330 
H     4.4583277   -3.8353912   -1.1749552 
C    -4.8265327   -3.5240352    0.7258865 
C    -3.4920420   -3.6181440    1.1562357 
C    -2.4685817   -3.0154925    0.4182477 
C    -2.7577210   -2.3112109   -0.7739818 
C    -4.1053472   -2.2007385   -1.1791900 
C    -5.1290567   -2.8066159   -0.4399246 
H    -5.6259731   -3.9977128    1.3049668 
H    -3.2509086   -4.1595569    2.0772988 
H    -1.4377135   -3.0586308    0.7845326 
H    -4.3494871   -1.6388204   -2.0872320 
H    -6.1672640   -2.7128015   -0.7741552 
O    -0.0254758    2.3049746   -2.5344748 
O     0.1779824   -1.2533687    1.9766216 
C     0.3717679    2.8371491    0.6797952 
C    -1.1543444    2.6895496    0.5514385 
C     2.1336253    2.1535816   -1.6016279 
C    -1.1773639    0.6048631    2.5692681 
C     2.6067054    0.8536224    0.9841719 
C    -3.4359601    0.8033216    0.7137360 
C     1.3193145    2.4769547   -2.7197350 
C    -0.2805052   -0.4282860    2.9550266 
C     3.5237132    2.3394759   -1.6954109 
C    -1.6930062    1.4667356    3.5604521 
C     2.6630341    1.2055180    2.3476029 
C    -4.1012009    1.3995309   -0.3797616 
C     3.5371275   -0.0844756    0.4789649 
C    -4.1758050    0.0579858    1.6529489 
C     1.8996106    2.9359443   -3.9135882 
C     0.0946900   -0.5555154    4.3085410 
C     4.1053919    2.8092496   -2.8820333 
C    -1.3251793    1.3347235    4.9037173 
C     3.6471720    0.6521932    3.1810378 
C    -5.4907307    1.2817595   -0.5074351 
C     4.5204054   -0.6279808    1.3138031 
C    -5.5649362   -0.0633881    1.5130151 
C     3.2929358    3.0956949   -3.9863521 
C    -0.4251160    0.3215869    5.2676811 
C     4.5816242   -0.2590448    2.6674027 
C    -6.2254183    0.5528778    0.4411288 
C    -0.9127899    2.4492535   -3.6464484 
C     1.2095650   -2.2014762    2.2707679 
H     0.7237286    3.7816312    0.2338874 
H     0.6589605    2.8446321    1.7437928 
H    -1.4779947    2.9502248   -0.4696927 
H    -1.6841881    3.3451923    1.2638729 
H     4.1595271    2.1039780   -0.8369023 
H    -2.4019140    2.2506967    3.2704067 
H     1.9411155    1.9030186    2.7817419 
H    -3.5362430    1.9610947   -1.1324207 
H     3.4957591   -0.3875879   -0.5710777 
H    -3.6670749   -0.4300438    2.4897885 
H     1.2805153    3.1798517   -4.7803656 
H     0.7902047   -1.3395582    4.6157811 
H     5.1890551    2.9477365   -2.9400238 
H    -1.7367857    2.0123377    5.6573877 
H     3.6795698    0.9392907    4.2370364 
H    -6.0017241    1.7600450   -1.3495290 
H     5.2356114   -1.3459891    0.8997214 
H    -6.1308040   -0.6480897    2.2450765 
H     3.7391180    3.4573090   -4.9184145 
H    -0.1248186    0.2049710    6.3142725 
H     5.3515421   -0.6831443    3.3201784 
H    -7.3114634    0.4599313    0.3388050 
H    -0.9281773    3.4917869   -4.0128708 
H    -0.6312028    1.7679590   -4.4703878 
H    -1.9086697    2.1747891   -3.2689385 
H     1.4844642   -2.6406447    1.3018628 
H     2.0921787   -1.7005107    2.7049941 
H     0.8404927   -2.9902280    2.9516703 
