89
Energy =
C     1.1067175   -1.6883526   -1.7702879 
C     0.4578068   -2.5200012   -0.8200635 
C    -0.9570056   -2.4802519   -0.6652950 
H     1.0612682   -3.0424635   -0.0683142 
Pd   -0.0989680   -0.4509179   -0.3511122 
P    -1.5879076    0.6431471    1.0447083 
P     1.1414054    1.5056884   -0.3098420 
H     0.5192909   -1.3702657   -2.6425044 
H    -1.5470485   -2.1685691   -1.5413703 
C     5.3471785   -1.2545003   -2.3621476 
C     4.4331774   -0.7098989   -3.2763198 
C     3.0569124   -0.8473274   -3.0584881 
C     2.5642206   -1.5338506   -1.9246207 
C     3.4981608   -2.0472629   -0.9953361 
C     4.8721689   -1.9159523   -1.2176749 
H     6.4240455   -1.1581271   -2.5347516 
H     4.7927881   -0.1839111   -4.1669184 
H     2.3453834   -0.4277196   -3.7782524 
H     3.1513445   -2.5554796   -0.0899668 
H     5.5791050   -2.3264830   -0.4897355 
C    -3.2724677   -4.6150290    2.2731476 
C    -3.8802392   -3.6914200    1.4094070 
C    -3.1123526   -3.0017840    0.4660954 
C    -1.7187985   -3.2165779    0.3611778 
C    -1.1202018   -4.1468524    1.2412154 
C    -1.8899043   -4.8396170    2.1833123 
H    -3.8726753   -5.1594334    3.0090549 
H    -4.9565363   -3.5043713    1.4747254 
H    -3.5928752   -2.2761792   -0.2003810 
H    -0.0479213   -4.3563978    1.1719629 
H    -1.4093968   -5.5696513    2.8435985 
O    -0.1087904    1.1235453   -3.0252609 
O    -0.3422448   -1.1229192    2.9240053 
C     0.3115648    2.6879333    0.9026141 
C    -0.5680851    1.9437483    1.9172614 
C     1.3575857    2.5384915   -1.8024316 
C    -2.4611227   -0.2583126    2.3625918 
C     2.8131038    1.1939287    0.3718535 
C    -2.8625990    1.5837783    0.1215501 
C     0.6742808    2.2411284   -3.0116907 
C    -1.6841639   -1.1158293    3.1863736 
C     2.1493671    3.7042442   -1.7350019 
C    -3.8535824   -0.1972840    2.5533242 
C     2.8870578    0.6277236    1.6650540 
C    -3.1889535    1.1618568   -1.1837138 
C     3.9975662    1.4017569   -0.3590877 
C    -3.5085184    2.7161647    0.6618130 
C     0.8195987    3.0947963   -4.1231660 
C    -2.3007868   -1.8749671    4.1931669 
C     2.2915979    4.5521993   -2.8393855 
C    -4.4690434   -0.9523470    3.5604259 
C     4.1294598    0.3199315    2.2312554 
C    -4.1444217    1.8574422   -1.9368763 
C     5.2385545    1.0851191    0.2128755 
C    -4.4599883    3.4128648   -0.0958396 
C     1.6262767    4.2365489   -4.0320246 
C    -3.6889765   -1.7854308    4.3733321 
C     5.3100259    0.5536452    1.5071692 
C    -4.7782161    2.9855230   -1.3946685 
C    -0.8949435    0.8332560   -4.1821227 
C     0.5075396   -2.0080840    3.6585592 
H    -0.3065955    3.3564497    0.2769981 
H     1.0799665    3.3036136    1.4012670 
H    -1.2236870    2.6391823    2.4693237 
H     0.0304694    1.3928953    2.6619735 
H     2.6658179    3.9459960   -0.7994799 
H    -4.4581867    0.4450258    1.9051718 
H     1.9683074    0.4165119    2.2233251 
H    -2.6798877    0.2880982   -1.6051319 
H     3.9572231    1.7936343   -1.3789884 
H    -3.2774960    3.0555002    1.6773476 
H     0.3042660    2.8767684   -5.0612979 
H    -1.7141448   -2.5406972    4.8298788 
H     2.9127201    5.4497796   -2.7677689 
H    -5.5518044   -0.8923041    3.7049999 
H     4.1773579   -0.1061290    3.2391599 
H    -4.3931224    1.5203077   -2.9487378 
H     6.1527871    1.2473396   -0.3667333 
H    -4.9559137    4.2912114    0.3299334 
H     1.7273425    4.8876268   -4.9065308 
H    -4.1616912   -2.3828375    5.1595912 
H     6.2818725    0.3109850    1.9490593 
H    -5.5213860    3.5331407   -1.9834013 
H    -1.4485635   -0.0862100   -3.9405857 
H    -1.6105551    1.6492594   -4.3925123 
H    -0.2585882    0.6532653   -5.0681610 
H     0.5334278   -1.7351648    4.7296778 
H     0.1750248   -3.0549518    3.5442832 
H     1.5092211   -1.8889363    3.2203606 
