89
Energy =
C     0.8825139   -1.6203503   -2.0972698 
C     0.3361751   -2.5032643   -1.1324835 
C    -1.0486094   -2.4568968   -0.7885259 
H     1.0188572   -3.0957968   -0.5116474 
Pd   -0.1102672   -0.4678575   -0.4437261 
P    -1.5945147    0.6328904    0.9613251 
P     1.2183090    1.4310832   -0.2549679 
H     0.1884207   -1.1979477   -2.8406882 
H    -1.7486335   -2.1485594   -1.5792934 
C     5.0181199   -1.1494302   -3.1916826 
C     4.0060183   -0.4775903   -3.8916362 
C     2.6662280   -0.6443844   -3.5223398 
C     2.3078422   -1.4909498   -2.4484523 
C     3.3399934   -2.1674499   -1.7564958 
C     4.6779412   -1.9957260   -2.1225327 
H     6.0668799   -1.0211522   -3.4785441 
H     4.2581070    0.1844718   -4.7258049 
H     1.8827763   -0.1034954   -4.0649072 
H     3.0987007   -2.8416132   -0.9280917 
H     5.4621793   -2.5299269   -1.5761049 
C    -2.8902364   -4.6254034    2.4505719 
C    -1.4913650   -4.6093160    2.3296610 
C    -0.8784078   -3.9006585    1.2914490 
C    -1.6511240   -3.2058718    0.3311848 
C    -3.0573819   -3.2319971    0.4696508 
C    -3.6702303   -3.9279239    1.5173093 
H    -3.3673022   -5.1762872    3.2672371 
H    -0.8737515   -5.1547993    3.0515031 
H     0.2143446   -3.8947639    1.2257689 
H    -3.6784648   -2.7003754   -0.2599817 
H    -4.7613259   -3.9274068    1.6039878 
O    -0.4619043    2.3434891   -2.3699819 
O    -0.2414928   -0.9330398    2.9365648 
C     0.2332225    2.7245295    0.6744691 
C    -0.6397568    2.0359483    1.7346885 
C     1.8127485    2.2359557   -1.7786020 
C    -2.4088931   -0.2491459    2.3291906 
C     2.6956405    1.1409136    0.7903494 
C    -2.9615376    1.4007477    0.0066041 
C     0.8295691    2.5859004   -2.7433030 
C    -1.5797176   -1.0034786    3.2005036 
C     3.1716188    2.4153584   -2.0890800 
C    -3.8019572   -0.2554765    2.5254686 
C     3.4876838    2.2031854    1.2772552 
C    -3.3468211    2.7479953    0.1532689 
C     3.0412416   -0.1844621    1.1185079 
C    -3.6546135    0.5853007   -0.9141836 
C     1.2134167    3.1293429   -3.9803685 
C    -2.1483082   -1.7392706    4.2521930 
C     3.5564510    2.9647843   -3.3205640 
C    -4.3694093   -0.9892764    3.5754795 
C     4.6059930    1.9366223    2.0783933 
C    -4.4059285    3.2669216   -0.6074787 
C     4.1632811   -0.4482410    1.9164890 
C    -4.7225431    1.1006006   -1.6597773 
C     2.5773844    3.3194690   -4.2568103 
C    -3.5395055   -1.7268525    4.4303254 
C     4.9453660    0.6118869    2.3978361 
C    -5.0980381    2.4456965   -1.5099071 
C    -1.5275558    2.6600763   -3.2718464 
C     0.6738879   -1.6396966    3.7774956 
H    -0.3826475    3.2401492   -0.0812593 
H     0.9156339    3.4625034    1.1292736 
H    -1.3223206    2.7419633    2.2387283 
H    -0.0210393    1.5566437    2.5135140 
H     3.9355362    2.1084385   -1.3686965 
H    -4.4438057    0.3199979    1.8508537 
H     3.2412297    3.2405265    1.0242444 
H    -2.8313210    3.4028457    0.8622816 
H     2.4185451   -1.0038884    0.7435257 
H    -3.3529283   -0.4592194   -1.0405694 
H     0.4648759    3.4078421   -4.7260751 
H    -1.5210742   -2.3290045    4.9241856 
H     4.6175370    3.1025779   -3.5479493 
H    -5.4533291   -0.9837275    3.7234605 
H     5.2163543    2.7650152    2.4525254 
H    -4.6949785    4.3160537   -0.4869378 
H     4.4287634   -1.4825375    2.1598136 
H    -5.2577438    0.4545194   -2.3632867 
H     2.8691960    3.7476487   -5.2213958 
H    -3.9748062   -2.3066600    5.2506868 
H     5.8218598    0.4080186    3.0216119 
H    -5.9280749    2.8527674   -2.0963848 
H    -1.4378536    2.0794396   -4.2082761 
H    -2.4509326    2.3800840   -2.7475061 
H    -1.5409113    3.7409327   -3.5022872 
H     0.4841290   -2.7274479    3.7380610 
H     1.6735040   -1.4178497    3.3780096 
H     0.6052880   -1.2846680    4.8221965 
