89
Energy =
C     0.8676279   -1.5948535   -2.1241156 
C     0.3079657   -2.4866703   -1.1753712 
C    -1.0767521   -2.4291346   -0.8330027 
H     0.9817606   -3.0980507   -0.5632071 
Pd   -0.1151340   -0.4581031   -0.4527439 
P    -1.5866254    0.6331115    0.9728550 
P     1.2329632    1.4236597   -0.2331099 
H     0.1808150   -1.1503431   -2.8613728 
H    -1.7716525   -2.0991916   -1.6195640 
C     5.0123173   -1.1628741   -3.2005800 
C     4.0122376   -0.4589845   -3.8861884 
C     2.6692200   -0.6133516   -3.5231898 
C     2.2954827   -1.4791124   -2.4700258 
C     3.3155393   -2.1881131   -1.7927707 
C     4.6567695   -2.0287829   -2.1523577 
H     6.0635133   -1.0445297   -3.4827723 
H     4.2763229    0.2184343   -4.7041704 
H     1.8954712   -0.0474608   -4.0540992 
H     3.0619685   -2.8783814   -0.9814701 
H     5.4314192   -2.5882034   -1.6176084 
C    -2.9480347   -4.6296678    2.3672150 
C    -1.5485301   -4.6215360    2.2526883 
C    -0.9261286   -3.9027726    1.2272201 
C    -1.6897987   -3.1897154    0.2730679 
C    -3.0967943   -3.2086306    0.4044928 
C    -3.7190623   -3.9144565    1.4399782 
H    -3.4325027   -5.1881299    3.1743159 
H    -0.9379196   -5.1808417    2.9698903 
H     0.1669675   -3.9024066    1.1670469 
H    -3.7110034   -2.6639185   -0.3213320 
H    -4.8105505   -3.9080807    1.5215997 
O    -0.4423551    2.3874079   -2.3294200 
O    -0.2457123   -0.9781238    2.9197798 
C     0.2620240    2.7107427    0.7195653 
C    -0.6166081    2.0128727    1.7688904 
C     1.8322509    2.2485793   -1.7441308 
C    -2.4073127   -0.2636306    2.3273460 
C     2.7094600    1.1011834    0.8038086 
C    -2.9474885    1.4314592    0.0344960 
C     0.8507316    2.6234416   -2.7012034 
C    -1.5840790   -1.0391493    3.1855688 
C     3.1922005    2.4203183   -2.0541383 
C    -3.8000880   -0.2598733    2.5258393 
C     3.5109700    2.1471213    1.3101936 
C    -3.3164800    2.7806633    0.2034656 
C     3.0447422   -0.2332419    1.1049954 
C    -3.6526417    0.6388801   -0.8970501 
C     1.2375939    3.1828716   -3.9301674 
C    -2.1579047   -1.7850746    4.2272259 
C     3.5801331    2.9854575   -3.2775544 
C    -4.3728442   -1.0042447    3.5654701 
C     4.6281515    1.8556056    2.1041943 
C    -4.3712645    3.3240479   -0.5461434 
C     4.1658388   -0.5219337    1.8956448 
C    -4.7164814    1.1784163   -1.6312913 
C     2.6028688    3.3641416   -4.2062512 
C    -3.5486498   -1.7621949    4.4079119 
C     4.9571080    0.5220711    2.3968316 
C    -5.0755597    2.5253637   -1.4593150 
C    -1.5064454    2.7276861   -3.2245131 
C     0.6644567   -1.7064009    3.7477601 
H    -0.3493810    3.2452025   -0.0266068 
H     0.9522582    3.4340161    1.1860108 
H    -1.2912711    2.7168405    2.2862542 
H    -0.0017426    1.5138482    2.5383300 
H     3.9543534    2.0950808   -1.3399334 
H    -4.4375372    0.3319148    1.8612530 
H     3.2728063    3.1912432    1.0780138 
H    -2.7916232    3.4181092    0.9214203 
H     2.4150498   -1.0400854    0.7147376 
H    -3.3637208   -0.4069797   -1.0407626 
H     0.4904461    3.4803484   -4.6699143 
H    -1.5351667   -2.3906615    4.8892486 
H     4.6420849    3.1168566   -3.5047135 
H    -5.4564683   -0.9909606    3.7151139 
H     5.2457592    2.6714265    2.4937488 
H    -4.6473796    4.3745568   -0.4084380 
H     4.4233940   -1.5630036    2.1176302 
H    -5.2612999    0.5497913   -2.3431824 
H     2.8970824    3.8046466   -5.1645376 
H    -3.9881158   -2.3499398    5.2203716 
H     5.8326886    0.2987628    3.0152174 
H    -5.9023637    2.9513681   -2.0368449 
H    -1.4231309    2.1612907   -4.1701996 
H    -2.4315146    2.4475463   -2.7032534 
H    -1.5106099    3.8121630   -3.4376593 
H     0.6021091   -1.3662770    4.7977954 
H     0.4635029   -2.7914962    3.6929089 
H     1.6653028   -1.4889805    3.3488642 
