89
Energy =
C     0.8912487   -1.5144283   -2.1914494 
C     0.1609813   -2.3844672   -1.3402341 
C    -1.2388296   -2.2019931   -1.1423705 
H     0.7038371   -3.0803565   -0.6890392 
Pd   -0.1290594   -0.3623931   -0.5498500 
P    -1.5878660    0.5644759    1.0025355 
P     1.1507971    1.5606134   -0.2640940 
H     0.3273556   -0.9809532   -2.9721441 
H    -1.8011481   -1.7750133   -1.9864447 
C     5.1611854   -1.4278279   -2.7458679 
C     4.3288700   -0.5153350   -3.4121406 
C     2.9409810   -0.5741366   -3.2424575 
C     2.3526959   -1.5370339   -2.3891186 
C     3.2031531   -2.4610289   -1.7361364 
C     4.5901244   -2.4066245   -1.9151659 
H     6.2467875   -1.3854953   -2.8807887 
H     4.7600836    0.2488209   -4.0665652 
H     2.3013842    0.1498884   -3.7590549 
H     2.7814763   -3.2307604   -1.0821466 
H     5.2303481   -3.1347815   -1.4059953 
C    -3.6954558   -4.3341748    1.6756515 
C    -4.2681728   -3.6929674    0.5678990 
C    -3.4574330   -2.9972914   -0.3374100 
C    -2.0574297   -2.9316136   -0.1568098 
C    -1.4985154   -3.5593558    0.9810831 
C    -2.3078657   -4.2596778    1.8796358 
H    -4.3264862   -4.8804643    2.3839630 
H    -5.3498245   -3.7394231    0.4038951 
H    -3.9104517   -2.5056636   -1.2057057 
H    -0.4223780   -3.4864897    1.1719588 
H    -1.8567650   -4.7389119    2.7540569 
O    -0.4426137    2.2436684   -2.5584261 
O     0.3583202   -0.6092920    2.7405986 
C     0.0342468    2.8001230    0.5694215 
C    -0.7745924    2.1120922    1.6798344 
C     1.7792103    2.3608558   -1.7790377 
C    -1.9744403   -0.4674112    2.4552655 
C     2.6060439    1.3474658    0.8260033 
C    -3.2009125    1.1364383    0.3437730 
C     0.8547579    2.5727277   -2.8374227 
C    -0.8748653   -0.9788337    3.1965869 
C     3.1337621    2.6795948   -1.9795281 
C    -3.2790923   -0.8473048    2.8154465 
C     2.8122032    2.0986954    2.0004120 
C    -4.0577613    1.9634242    1.1024735 
C     3.5386762    0.3470543    0.4730695 
C    -3.5944506    0.7422209   -0.9498863 
C     1.2956662    3.0816942   -4.0704432 
C    -1.0957644   -1.8061173    4.3098985 
C     3.5743358    3.1948635   -3.2069941 
C    -3.4998375   -1.6818694    3.9192523 
C     3.9339541    1.8515629    2.8067179 
C    -5.2824985    2.3871698    0.5696054 
C     4.6634818    0.1138487    1.2741287 
C    -4.8219805    1.1651847   -1.4799177 
C     2.6551808    3.3876020   -4.2460192 
C    -2.4097561   -2.1467811    4.6656543 
C     4.8617963    0.8629846    2.4455903 
C    -5.6659927    1.9893580   -0.7212060 
C    -1.4503364    2.4674681   -3.5498496 
C     1.5299945   -1.1418542    3.3666749 
H    -0.6268913    3.1688839   -0.2340221 
H     0.6158419    3.6597489    0.9454718 
H    -1.5409907    2.7859603    2.0982114 
H    -0.1227511    1.7749967    2.5026914 
H     3.8513143    2.5127327   -1.1705599 
H    -4.1277173   -0.4939179    2.2226525 
H     2.1075139    2.8808706    2.2983562 
H    -3.7785992    2.2684712    2.1171712 
H     3.3859773   -0.2468419   -0.4325952 
H    -2.9270970    0.1055332   -1.5386090 
H     0.5941749    3.2453123   -4.8919625 
H    -0.2573772   -2.1895672    4.8963071 
H     4.6310237    3.4403855   -3.3481470 
H    -4.5199259   -1.9699527    4.1889013 
H     4.0847975    2.4403422    3.7174571 
H    -5.9410922    3.0277635    1.1651300 
H     5.3816985   -0.6585321    0.9801531 
H    -5.1195243    0.8504067   -2.4857766 
H     2.9901828    3.7847909   -5.2097438 
H    -2.5750211   -2.7941734    5.5331022 
H     5.7382008    0.6781929    3.0753142 
H    -6.6242692    2.3214856   -1.1336679 
H    -2.3993874    2.1804666   -3.0762520 
H    -1.4888821    3.5331610   -3.8402169 
H    -1.2727906    1.8429694   -4.4448060 
H     1.5314346   -2.2464358    3.3198847 
H     2.3784646   -0.7425162    2.7950514 
H     1.6013277   -0.8123070    4.4191375 
