50
Energy =
C     0.4582215   -1.1199377   -2.0088432 
C     1.4280194   -0.1751258   -1.5646099 
C     2.2475367   -0.4862086   -0.4411633 
H     1.3869944    0.8565998   -1.9352425 
Pd    0.1205755   -0.6571652    0.1248252 
P    -0.1218806   -0.0301259    2.3717317 
P    -2.1785127   -0.7578983    0.5801761 
H     0.6926361   -2.1853064   -1.8547558 
H     2.4896385   -1.5487736   -0.2797286 
C    -2.8003190   -0.4405057   -4.7401716 
C    -2.4115005   -1.7438662   -4.3950901 
C    -1.3370526   -1.9479768   -3.5201801 
C    -0.6294590   -0.8540918   -2.9707956 
C    -1.0326371    0.4542387   -3.3280305 
C    -2.1038702    0.6567534   -4.2047526 
H    -3.6375318   -0.2785550   -5.4266097 
H    -2.9421811   -2.6046230   -4.8149861 
H    -1.0347057   -2.9685621   -3.2582158 
H    -0.5133403    1.3234019   -2.9100669 
H    -2.3984886    1.6763179   -4.4744934 
C     4.7018572    2.2145233    1.8439798 
C     4.8398608    0.8249879    1.9829435 
C     4.0477026   -0.0395865    1.2171674 
C     3.0996552    0.4659532    0.2981047 
C     2.9720549    1.8690088    0.1683015 
C     3.7667462    2.7316856    0.9309410 
H     5.3225289    2.8923155    2.4387348 
H     5.5725776    0.4133124    2.6847573 
H     4.1631805   -1.1242094    1.3265031 
H     2.2389794    2.2929848   -0.5263773 
H     3.6585914    3.8149746    0.8130955 
C    -1.9538604   -0.4479726    2.4207067 
C     0.6862255   -0.8316029    3.8159048 
C     0.0254231    1.7748799    2.6933051 
C    -3.2637446   -2.2285254    0.3788094 
C    -3.1635847    0.6467846   -0.0830511 
H    -2.0959621   -1.3971143    2.9692803 
H    -2.6143758    0.3161081    2.8687088 
H     0.5607358   -1.9244701    3.7477029 
H     0.2626880   -0.4631405    4.7661494 
H     1.7638040   -0.5962668    3.7750710 
H    -0.3325137    2.0300985    3.7057384 
H    -0.5583970    2.3287415    1.9401721 
H     1.0868097    2.0582609    2.5870336 
H    -3.3842240   -2.4163184   -0.7020502 
H    -4.2533198   -2.0604745    0.8377660 
H    -2.7814209   -3.1066649    0.8381070 
H    -3.2380654    0.5292578   -1.1779011 
H    -2.6389478    1.5926562    0.1289347 
H    -4.1731472    0.6712229    0.3624634 
