50
Energy =
C     1.6109828    1.6459500   -0.4153239 
C     1.1523043    0.9008592   -1.5401370 
C    -0.1591728    1.1322552   -2.0466480 
H     1.7090357    0.0131052   -1.8649260 
Pd   -0.2714715    0.6147155    0.0986880 
P    -2.2529154   -0.5762006    0.5011908 
P    -0.2201930    0.0192108    2.3668270 
H     1.2135858    2.6667586   -0.2983181 
H    -0.5638239    2.1509205   -1.9354517 
C     5.0604922    0.8398842    2.0326303 
C     4.6050625   -0.1388492    1.1324395 
C     3.4951719    0.1114321    0.3181822 
C     2.8180310    1.3520919    0.3821741 
C     3.2902307    2.3284245    1.2894174 
C     4.3990555    2.0752681    2.1067376 
H     5.9295947    0.6409575    2.6677742 
H     5.1204459   -1.1026825    1.0654242 
H     3.1472518   -0.6707152   -0.3651632 
H     2.7809216    3.2973705    1.3477745 
H     4.7531407    2.8473671    2.7976423 
C    -2.3702903   -1.3164175   -4.8131498 
C    -2.7834970   -0.0072027   -4.5229201 
C    -2.0422077    0.7828098   -3.6352777 
C    -0.8733383    0.2808479   -3.0182149 
C    -0.4688058   -1.0408712   -3.3204953 
C    -1.2082412   -1.8278582   -4.2099630 
H    -2.9459410   -1.9345714   -5.5094731 
H    -3.6818412    0.4028771   -4.9957955 
H    -2.3668728    1.8066829   -3.4165094 
H     0.4245963   -1.4642378   -2.8488714 
H    -0.8775103   -2.8469049   -4.4363297 
C    -1.9765017   -0.6503818    2.3590079 
C    -3.9650885    0.0240963    0.2024494 
C    -2.2510718   -2.3114848   -0.1090267 
C    -0.0551783    1.1741211    3.7879603 
C     0.8890557   -1.3898270    2.7760833 
H    -2.6443575    0.0781012    2.8543703 
H    -2.1230131   -1.6372631    2.8337621 
H    -4.0786814    1.0356569    0.6250983 
H    -4.7105549   -0.6559475    0.6495862 
H    -4.1204703    0.0776594   -0.8889546 
H    -3.0938253   -2.8841218    0.3154062 
H    -1.2978034   -2.7933866    0.1628340 
H    -2.3275432   -2.2898134   -1.2098216 
H     0.9724591    1.5767320    3.7799351 
H    -0.2434290    0.6588965    4.7456430 
H    -0.7629059    2.0101815    3.6659511 
H     1.9328661   -1.0382240    2.7065883 
H     0.7442556   -2.1951814    2.0377080 
H     0.6880068   -1.7730910    3.7914855 
