50
Energy =
C     1.5804767    1.6946289   -0.3293148 
C     1.2429383    0.9038926   -1.4657659 
C    -0.0292050    1.0713818   -2.0852131 
H     1.8556090    0.0294071   -1.7174716 
Pd   -0.3017531    0.6084751    0.0579776 
P    -2.2646684   -0.6472423    0.3303458 
P    -0.4179667    0.0767469    2.3391971 
H     1.1394503    2.7026263   -0.2742415 
H    -0.4783328    2.0762660   -2.0387205 
C     4.8380947    1.0769403    2.4179011 
C     4.4978748    0.0624944    1.5065338 
C     3.4524002    0.2517160    0.5962780 
C     2.7260839    1.4656087    0.5732244 
C     3.0825508    2.4785738    1.4930856 
C     4.1267166    2.2864581    2.4064305 
H     5.6572756    0.9258983    3.1281759 
H     5.0532166   -0.8812613    1.5059163 
H     3.1939282   -0.5575293   -0.0951592 
H     2.5337968    3.4275165    1.4853261 
H     4.3915677    3.0861033    3.1059267 
C    -1.9072413   -1.5351220   -4.9519590 
C    -2.3913414   -0.2357889   -4.7366712 
C    -1.7577819    0.6060252   -3.8139367 
C    -0.6277656    0.1668438   -3.0864984 
C    -0.1510334   -1.1457249   -3.3139278 
C    -0.7828766   -1.9845323   -4.2382319 
H    -2.3985812   -2.1936270   -5.6753501 
H    -3.2607411    0.1259949   -5.2953418 
H    -2.1374238    1.6217808   -3.6537165 
H     0.7140393   -1.5209371   -2.7565775 
H    -0.3968644   -2.9955297   -4.4054003 
C    -2.1381846   -0.6692313    2.2057836 
C     0.7105138   -1.2700573    2.8829867 
C    -0.4227743    1.2766823    3.7323665 
C    -2.1530575   -2.3942506   -0.2344034 
C    -3.9668221   -0.1169612   -0.1195770 
H    -2.2797868   -1.6520531    2.6902923 
H    -2.8753326    0.0377413    2.6287347 
H     0.6615387   -2.1011673    2.1606897 
H     0.4412068   -1.6333561    3.8898716 
H     1.7411193   -0.8752070    2.8884726 
H    -0.6703782    0.7799849    4.6863192 
H    -1.1516583    2.0770851    3.5255333 
H     0.5842105    1.7236046    3.7982472 
H    -2.1418694   -2.3996425   -1.3380394 
H    -3.0064584   -2.9881685    0.1361352 
H    -1.2082598   -2.8343357    0.1240704 
H    -4.0352695   -0.0941023   -1.2208741 
H    -4.1493857    0.8990105    0.2667130 
H    -4.7217945   -0.8136596    0.2838571 
