50
Energy =
C     0.6633887   -1.1544345   -1.9284076 
C     1.5577794   -0.1616197   -1.4336623 
C     2.2919752   -0.4111058   -0.2381824 
H     1.5106285    0.8575879   -1.8367548 
Pd    0.1325748   -0.6501683    0.1556765 
P    -0.3199156    0.0258242    2.3553786 
P    -2.1917145   -0.8250917    0.4208495 
H     0.9229638   -2.2056021   -1.7249455 
H     2.5589676   -1.4587821   -0.0263721 
C    -2.3753093   -0.6717025   -4.9406203 
C    -1.9670183   -1.9498132   -4.5298693 
C    -0.9639838   -2.0897460   -3.5624393 
C    -0.3488363   -0.9555538   -2.9843528 
C    -0.7707826    0.3266849   -3.4083048 
C    -1.7703952    0.4651098   -4.3772581 
H    -3.1566621   -0.5599017   -5.6991391 
H    -2.4259422   -2.8409670   -4.9704001 
H    -0.6452892   -3.0908175   -3.2495647 
H    -0.3235445    1.2256442   -2.9705179 
H    -2.0807470    1.4653145   -4.6971764 
C     4.4522283    2.4442018    2.1536894 
C     4.6334496    1.0654659    2.3416615 
C     3.9374942    0.1501085    1.5421056 
C     3.0448743    0.5931147    0.5390265 
C     2.8725209    1.9860843    0.3608685 
C     3.5710478    2.8995103    1.1578097 
H     4.9982187    3.1616502    2.7745876 
H     5.3257885    0.7019403    3.1080649 
H     4.0872234   -0.9257489    1.6899184 
H     2.1788909    2.3619196   -0.3989711 
H     3.4297337    3.9741692    1.0020962 
C    -2.1344404   -0.4563239    2.2633980 
C    -3.1656404    0.5227392   -0.3653550 
C    -3.2032353   -2.3406906    0.1745106 
C    -0.2607612    1.8423282    2.6376733 
C     0.3895620   -0.7101201    3.8836886 
H    -2.8557251    0.2959570    2.6303288 
H    -2.2910001   -1.3940613    2.8274560 
H    -2.6941782    1.4931189   -0.1395382 
H    -4.2095177    0.5217236   -0.0067022 
H    -3.1431188    0.3720208   -1.4584471 
H    -4.2333680   -2.1979694    0.5440751 
H    -2.7303221   -3.1869859    0.6987585 
H    -3.2251642   -2.5620953   -0.9064815 
H     0.7956767    2.1607919    2.6126359 
H    -0.7115377    2.1094903    3.6091193 
H    -0.7970494    2.3561181    1.8232747 
H     1.4580061   -0.4368705    3.9271991 
H     0.3077292   -1.8081441    3.8350440 
H    -0.1255231   -0.3343023    4.7845682 
