91
Energy =
C     0.2604428    2.1613402    2.9012978 
C    -0.9010827    2.6685038    2.2649861 
C    -2.1372136    1.9673535    2.3607904 
H    -0.8190593    3.5219143    1.5790939 
Pd   -0.5588588    0.6909162    1.3984012 
P    -1.7611986   -0.6944851   -0.0468356 
P     1.5156176   -0.1561963    0.6897869 
H     0.1059365    1.4988655    3.7670413 
H    -2.2995756    1.3573472    3.2625318 
C     4.1807232    3.9182393    2.7331297 
C     3.3043324    4.0701794    1.6445560 
C     2.0260227    3.5076596    1.6860476 
C     1.6006608    2.7697715    2.8148694 
C     2.4926676    2.6192891    3.8983222 
C     3.7683397    3.1948903    3.8609758 
H     5.1810714    4.3621238    2.6993068 
H     3.6228176    4.6273801    0.7573118 
H     1.3610875    3.6115278    0.8239588 
H     2.1786940    2.0473868    4.7781216 
H     4.4449157    3.0704417    4.7125772 
C    -5.7186870    3.2716149    0.3706939 
C    -4.4947163    3.2803262   -0.3188843 
C    -3.3242745    2.8615286    0.3221698 
C    -3.3588796    2.4110396    1.6606383 
C    -4.5963692    2.3960483    2.3392970 
C    -5.7634994    2.8359592    1.7038789 
H    -6.6340903    3.5997784   -0.1321731 
H    -4.4566242    3.6089604   -1.3627739 
H    -2.3742709    2.8470564   -0.2259281 
H    -4.6378061    2.0422683    3.3753174 
H    -6.7139454    2.8315121    2.2479335 
O     2.0531900   -1.3259981   -3.4725441 
O     0.0998730   -3.6377773   -2.8145758 
O    -2.2274725   -3.3456310   -0.5339297 
O    -4.3278251   -0.3158189    0.7167058 
O     1.5130298    1.9410496   -1.0572697 
O     2.3739852   -0.6535194    3.2022612 
C     0.2318971   -1.0490410   -2.0210745 
C     0.8620435   -2.1258733   -1.1948941 
C    -0.9754306   -0.3997845   -1.6827137 
C     1.5637406   -1.8614855    0.0015228 
C     0.8951936   -0.6658875   -3.2198113 
C     0.7944981   -3.4644716   -1.6631637 
C    -1.4865211    0.6376042   -2.4935744 
C     2.1751991   -2.9014527    0.7272395 
C     0.3668506    0.3456964   -4.0422026 
C     1.4084996   -4.5038815   -0.9388160 
C    -1.6608012   -2.4536163    0.3472050 
C    -3.5277165   -0.5028965   -0.3851902 
C     2.2383316    0.8526348   -0.6255974 
C     2.7857315   -0.1633676    1.9798221 
C    -0.8191072    0.9908512   -3.6688733 
C     2.0949653   -4.2128863    0.2462564 
C    -1.2012933   -3.1262965    1.4615799 
C    -4.3159780   -0.6674803   -1.5077183 
C     3.3888772    0.7358541   -1.3787168 
C     4.1230672    0.1621879    2.0379869 
C    -1.4881368   -4.5106576    1.2443897 
C    -5.6721686   -0.5561974   -1.0675638 
C     3.3755192    1.8215700   -2.3101644 
C     4.5598165   -0.1530274    3.3649259 
C    -2.1090349   -4.5835879    0.0204780 
C    -5.6184717   -0.3445850    0.2884697 
C     2.2116886    2.5138094   -2.0738521 
C     3.4631400   -0.6447437    4.0264045 
C     2.7612352   -1.0503918   -4.6802159 
C    -0.0493887   -4.9526651   -3.3453107 
H    -2.4014664    1.1612923   -2.2045409 
H     2.7080730   -2.6908121    1.6578173 
H     0.8765499    0.6380677   -4.9628230 
H     1.3540847   -5.5362148   -1.2916103 
H    -1.2231007    1.7846320   -4.3058919 
H     2.5726685   -5.0256625    0.8029960 
H    -0.7069129   -2.6741892    2.3217108 
H    -3.9597195   -0.8570886   -2.5197839 
H     4.1349463   -0.0533329   -1.2882449 
H     4.7142440    0.5935237    1.2315810 
H    -1.2641430   -5.3444569    1.9095396 
H    -6.5720221   -0.6243216   -1.6790849 
H     4.1290869    2.0584903   -3.0617238 
H     5.5594211   -0.0175812    3.7779412 
H    -2.5211723   -5.4045345   -0.5649291 
H    -6.3733486   -0.1851443    1.0561679 
H     1.7531543    3.3914942   -2.5265866 
H     3.2929354   -1.0084936    5.0387188 
H     2.1396644   -1.2727624   -5.5675726 
H     3.0956615    0.0035142   -4.7155632 
H     3.6379143   -1.7137821   -4.6698976 
H    -0.5771641   -5.6137949   -2.6317905 
H    -0.6538290   -4.8405868   -4.2566784 
H     0.9302703   -5.3970332   -3.6036658 
