91
Energy =
C     0.3637803    2.2900259    2.8440236 
C    -0.8135624    2.7897783    2.2405273 
C    -1.9898567    1.9772344    2.1834390 
H    -0.7685099    3.7199542    1.6590313 
Pd   -0.3303693    0.9227842    1.1707221 
P    -1.6395020   -0.7491390    0.1960692 
P     1.6612241    0.3061349    0.1091552 
H     0.2553917    1.4233477    3.5166871 
H    -2.1750744    1.3031078    3.0316713 
C     4.1888627    4.2209366    3.0967593 
C     3.0443982    4.9883718    2.8318539 
C     1.7888479    4.3751573    2.7430686 
C     1.6572116    2.9816768    2.9328514 
C     2.8173950    2.2218904    3.2146673 
C     4.0717406    2.8339765    3.2858423 
H     5.1696203    4.7029955    3.1618380 
H     3.1292444    6.0720932    2.7002984 
H     0.9017454    4.9889395    2.5547513 
H     2.7266061    1.1385574    3.3554233 
H     4.9610995    2.2297469    3.4913274 
C    -5.4557053    2.7849073   -0.2375411 
C    -4.1947719    3.2515981   -0.6455251 
C    -3.0654831    3.0098991    0.1416222 
C    -3.1732264    2.2977103    1.3594570 
C    -4.4479052    1.8391119    1.7596876 
C    -5.5776111    2.0796688    0.9685138 
H    -6.3373861    2.9690747   -0.8599727 
H    -4.0914418    3.7950143   -1.5905269 
H    -2.0817843    3.3380113   -0.2116532 
H    -4.5493294    1.2848386    2.6979249 
H    -6.5563964    1.7141425    1.2961429 
O     2.2016179   -3.5646133   -1.7212577 
O    -0.4790896   -2.8120737   -3.3788084 
O    -4.3077231   -1.3836448    0.5056889 
O    -1.8241975    0.8229686   -2.0033973 
O     4.2162295    1.3275271   -0.0578219 
O     2.0293667   -1.6083148    1.9968679 
C     0.3534536   -2.4172019   -0.8471836 
C     0.6300400   -1.3792871   -1.8903829 
C    -0.7196972   -2.3404534    0.0664680 
C     1.3282678   -0.1791492   -1.6377432 
C     1.1800179   -3.5720236   -0.8279767 
C     0.2112931   -1.6546418   -3.2197512 
C    -0.9763520   -3.3913016    0.9693463 
C     1.6224027    0.7188884   -2.6828990 
C     0.9276904   -4.6185327    0.0789739 
C     0.5040060   -0.7560429   -4.2630875 
C    -3.1236854   -1.1504802    1.1594786 
C    -2.2641686   -0.3592315   -1.4482245 
C     2.8764250    1.6374282   -0.0211087 
C     2.5727197   -1.0616648    0.8515799 
C    -0.1558897   -4.5233829    0.9605748 
C     1.2182404    0.4163124   -3.9866377 
C    -3.3075517   -1.3212863    2.5181659 
C    -3.0904739   -1.0120090   -2.3396892 
C     2.7135422    2.9997278   -0.1740867 
C     3.7224372   -1.7437093    0.5126393 
C    -4.6813434   -1.6790203    2.7029221 
C    -3.1627712   -0.1835836   -3.5024353 
C     4.0241709    3.5544698   -0.3111386 
C     3.8927803   -2.7646251    1.4994158 
C    -5.2406152   -1.6929008    1.4482580 
C    -2.3721075    0.9113970   -3.2421987 
C     4.8955357    2.4956821   -0.2272543 
C     2.8358271   -2.6378773    2.3696488 
C     3.0772483   -4.6896494   -1.7837899 
C    -0.9458852   -3.1685335   -4.6792225 
H    -1.8142665   -3.3275227    1.6682830 
H     2.1647634    1.6455203   -2.4764364 
H     1.5637352   -5.5062677    0.0961709 
H     0.1853798   -0.9678276   -5.2860755 
H    -0.3587056   -5.3461666    1.6540861 
H     1.4560777    1.1060793   -4.8032388 
H    -2.5434983   -1.2078460    3.2882344 
H    -3.5810515   -1.9691601   -2.1697924 
H     1.7628151    3.5324930   -0.1767669 
H     4.3561718   -1.5311529   -0.3469906 
H    -5.1904147   -1.8891184    3.6436661 
H    -3.7311017   -0.3704451   -4.4140264 
H     4.2876541    4.6045286   -0.4343134 
H     4.6975402   -3.4977124    1.5621589 
H    -6.2441704   -1.8875770    1.0726770 
H    -2.1060657    1.7990121   -3.8138221 
H     5.9809368    2.4105319   -0.2592819 
H     2.5281348   -3.1799511    3.2625244 
H     3.6063884   -4.8364842   -0.8233746 
H     2.5272552   -5.6118283   -2.0494977 
H     3.8061992   -4.4567128   -2.5731555 
H    -1.6488483   -2.4094183   -5.0711426 
H    -0.1051575   -3.2971213   -5.3865552 
H    -1.4707847   -4.1265664   -4.5554000 
