91
Energy =
C     0.4404803    1.8933812    2.9931909 
C    -0.9202439    2.2565477    2.7512054 
C    -1.9321265    1.2662834    2.7767741 
H    -1.1474106    3.2606722    2.3691754 
Pd   -0.3272579    0.7521567    1.2619772 
P    -1.5894022   -0.2448805   -0.4346959 
P     1.7266425   -0.0327945    0.4953520 
H     0.6253654    1.0709018    3.6994770 
H    -1.6942854    0.3209135    3.2907563 
C     3.7784221    4.5481824    2.4004792 
C     3.7260327    3.7112699    3.5239988 
C     2.6358916    2.8515919    3.7107842 
C     1.5749050    2.8209612    2.7824657 
C     1.6388106    3.6705703    1.6533421 
C     2.7302947    4.5234742    1.4644082 
H     4.6338866    5.2148446    2.2499655 
H     4.5398170    3.7222329    4.2564658 
H     2.6025046    2.1968844    4.5878319 
H     0.8441888    3.6271996    0.8993312 
H     2.7713116    5.1653916    0.5781190 
C    -6.1075380    1.7739105    1.9144999 
C    -5.3115953    2.9028771    2.1619014 
C    -3.9479297    2.7572103    2.4429413 
C    -3.3594705    1.4741050    2.4947365 
C    -4.1769182    0.3434286    2.2582867 
C    -5.5347354    0.4925083    1.9616448 
H    -7.1728207    1.8916653    1.6911756 
H    -5.7572252    3.9028406    2.1414172 
H    -3.3439926    3.6469147    2.6494914 
H    -3.7292873   -0.6563336    2.2908606 
H    -6.1495009   -0.3925077    1.7688667 
O     2.2579472   -1.9676736   -3.3850455 
O    -0.1633625   -3.7968876   -2.4630527 
O    -1.7114991   -2.4300102    1.1715397 
O    -4.1781355   -0.0964132   -1.3563166 
O     1.8210556    1.8755168   -1.4410273 
O     2.8152306   -0.4176692    2.9652357 
C     0.4187975   -1.1857868   -2.1587561 
C     0.8287311   -2.1652415   -1.1019170 
C    -0.7065520   -0.3417593   -2.0473962 
C     1.5369932   -1.8139384    0.0691750 
C     1.1721759   -1.1523800   -3.3623587 
C     0.5306993   -3.5365248   -1.3261273 
C    -1.0812134    0.5101703   -3.1056169 
C     1.9413844   -2.7985665    0.9935850 
C     0.7963162   -0.3049391   -4.4207749 
C     0.9333173   -4.5188932   -0.4023165 
C    -2.0973601   -1.9357099   -0.0584579 
C    -3.1261574    0.6171776   -0.8291608 
C     2.4605772    0.7611644   -0.9473374 
C     3.0841689    0.0486292    1.6949034 
C    -0.3324272    0.5131376   -4.2858913 
C     1.6427062   -4.1413434    0.7444173 
C    -2.7867412   -2.9071954   -0.7529941 
C    -3.4539808    1.9568121   -0.7807342 
C     3.5645872    0.4749503   -1.7250729 
C     4.3799079    0.5165633    1.6402790 
C    -2.8246174   -4.0594350    0.0935699 
C    -4.7803391    2.0704839   -1.3033147 
C     3.6050137    1.4724726   -2.7490663 
C     4.9429082    0.3086682    2.9407851 
C    -2.1538690   -3.7142983    1.2431412 
C    -5.1707355    0.7947297   -1.6309216 
C     2.5222825    2.2907693   -2.5286621 
C     3.9560359   -0.2624217    3.7020370 
C     3.0599059   -2.0227839   -4.5637950 
C    -0.4971448   -5.1475594   -2.7792244 
H    -1.9533793    1.1620994   -3.0051463 
H     2.4770382   -2.5183555    1.9030081 
H     1.3752910   -0.2799343   -5.3466316 
H     0.7019774   -5.5725109   -0.5735110 
H    -0.6262509    1.1651204   -5.1151026 
H     1.9618315   -4.9095706    1.4564297 
H    -3.2054020   -2.7961542   -1.7521501 
H    -2.8162682    2.7565086   -0.4043734 
H     4.2425632   -0.3669194   -1.5861575 
H     4.8624922    0.9657758    0.7736407 
H    -3.2933209   -5.0211346   -0.1173259 
H    -5.3755608    2.9776563   -1.4039719 
H     4.3398831    1.5720964   -3.5483166 
H     5.9511292    0.5613146    3.2689278 
H    -1.9149416   -4.2458772    2.1629710 
H    -6.0855959    0.3709180   -2.0428990 
H     2.1278143    3.1683390   -3.0385257 
H     3.8996617   -0.6006361    4.7357344 
H     3.5109810   -1.0371796   -4.7867740 
H     3.8556179   -2.7507628   -4.3500564 
H     2.4702614   -2.3652851   -5.4347024 
H     0.4108610   -5.7671942   -2.9018675 
H    -1.1464347   -5.5901858   -2.0005330 
H    -1.0436689   -5.1043470   -3.7322233 
