91
Energy =
C     0.4739319    2.6967321    2.4399855 
C    -0.8514403    2.9432677    2.0117559 
C    -1.8772477    1.9811723    2.2723911 
H    -1.0523267    3.7777888    1.3272572 
Pd   -0.2668544    1.0262498    1.0939333 
P    -1.4524355   -0.9154281    0.5635719 
P     1.5980107    0.5280990   -0.2286138 
H     0.6154113    1.9293732    3.2187694 
H    -1.8063828    1.4160418    3.2127326 
C     3.9370616    5.1425256    1.7699937 
C     4.0719225    3.7949141    2.1427765 
C     2.9347400    3.0146728    2.3690365 
C     1.6392260    3.5612395    2.2086669 
C     1.5174615    4.9166970    1.8304057 
C     2.6583692    5.7006199    1.6201631 
H     4.8271126    5.7575107    1.6022160 
H     5.0668065    3.3534284    2.2591346 
H     3.0397067    1.9612042    2.6534992 
H     0.5260865    5.3706587    1.7293721 
H     2.5490846    6.7548070    1.3450661 
C    -5.7919456    1.9667953    0.4843120 
C    -4.7035672    2.5058127   -0.2221909 
C    -3.4316792    2.5326612    0.3566521 
C    -3.2204074    2.0210119    1.6585928 
C    -4.3243097    1.4865952    2.3589637 
C    -5.5976474    1.4601433    1.7775113 
H    -6.7856719    1.9400961    0.0255277 
H    -4.8467182    2.8935301   -1.2361659 
H    -2.5826840    2.9123203   -0.2223846 
H    -4.1779869    1.0846664    3.3663868 
H    -6.4402372    1.0409364    2.3372005 
O     2.4082831   -3.4569622   -1.6686192 
O    -0.5863697   -3.2887325   -2.8975158 
O    -3.9242482   -1.8068454    1.4084760 
O    -2.2131465    0.3028170   -1.7350509 
O     3.9200393    1.8287124   -0.9469300 
O     2.5285140   -1.0526993    1.7707300 
C     0.5728651   -2.4454313   -0.6178577 
C     0.5221688   -1.5346217   -1.8054370 
C    -0.3414284   -2.3816167    0.4556909 
C     1.0662367   -0.2326748   -1.8211481 
C     1.5543417   -3.4720243   -0.6140401 
C    -0.0597308   -2.0421026   -2.9980478 
C    -0.2933971   -3.3239289    1.5021414 
C     1.0513953    0.5420185   -2.9979631 
C     1.6070525   -4.4084300    0.4357089 
C    -0.0764921   -1.2665310   -4.1727955 
C    -2.6904517   -1.3620209    1.8125847 
C    -2.3814908   -0.8366118   -0.9782864 
C     2.5698389    1.9689334   -0.7238789 
C     2.8051356   -0.5988227    0.4965979 
C     0.6742304   -4.3330670    1.4773099 
C     0.4910550    0.0136197   -4.1647738 
C    -2.6238127   -1.3818786    3.1925108 
C    -3.2369733   -1.7030048   -1.6270299 
C     2.1864188    3.2633892   -1.0125833 
C     3.9777513   -1.1681992    0.0460420 
C    -3.8883065   -1.8676131    3.6556989 
C    -3.6152766   -1.0583709   -2.8455951 
C     3.3652520    3.9534424   -1.4349900 
C     4.4440408   -2.0186970    1.0968125 
C    -4.6396924   -2.1003159    2.5294813 
C    -2.9605812    0.1512359   -2.8581093 
C     4.3862047    3.0364858   -1.3696628 
C     3.5244813   -1.9126582    2.1135333 
C     3.4218849   -4.4576166   -1.7555688 
C    -1.1986218   -3.8777537   -4.0440179 
H    -1.0104398   -3.2725468    2.3253365 
H     1.4768282    1.5492046   -2.9996325 
H     2.3623516   -5.1973756    0.4408440 
H    -0.5217889   -1.6562094   -5.0908102 
H     0.7076843   -5.0731085    2.2837026 
H     0.4885227    0.6085819   -5.0841086 
H    -1.7657628   -1.0867729    3.7978633 
H    -3.5495976   -2.6806467   -1.2634932 
H     1.1779401    3.6660835   -0.9200556 
H     4.4358137   -0.9927353   -0.9261538 
H    -4.2027810   -2.0154496    4.6889188 
H    -4.2896437   -1.4381674   -3.6136534 
H     3.4493273    4.9995207   -1.7280000 
H     5.3478863   -2.6286245    1.1036412 
H    -5.6566687   -2.4517635    2.3613774 
H    -2.9217121    0.9773724   -3.5662270 
H     5.4552097    3.0852601   -1.5725860 
H     3.4389533   -2.3657821    3.0999724 
H     4.1115237   -4.4023390   -0.8922070 
H     2.9816014   -5.4705923   -1.8147887 
H     3.9743428   -4.2428025   -2.6814771 
H    -2.0611599   -3.2758986   -4.3872646 
H    -0.4736580   -3.9940917   -4.8713430 
H    -1.5473323   -4.8686832   -3.7197917 
