91
Energy =
C    -0.4486928    1.4536884    3.4168179 
C    -0.7157612    2.5183185    2.5239793 
C    -1.8604123    2.4825765    1.6749913 
H     0.0447250    3.2933771    2.3675520 
Pd   -0.5705585    0.7083147    1.2661711 
P    -1.5193504    0.2651731   -0.8201772 
P     1.0821345   -0.9327379    1.0828043 
H    -1.2864705    0.7778953    3.6534640 
H    -2.7475740    1.9534957    2.0521204 
C     2.7320908    1.2067435    6.2921377 
C     2.5465184    2.3940607    5.5649176 
C     1.5354837    2.4806595    4.6029501 
C     0.6770177    1.3832570    4.3595131 
C     0.8770713    0.1936332    5.0982329 
C     1.8970338    0.1046370    6.0503450 
H     3.5217247    1.1429054    7.0479154 
H     3.1876332    3.2607992    5.7572605 
H     1.3934134    3.4207384    4.0608252 
H     0.2229405   -0.6663511    4.9156803 
H     2.0397315   -0.8253978    6.6096184 
C    -2.6811636    5.2284259   -1.5356254 
C    -1.3544811    5.0078137   -1.1292678 
C    -1.0755511    4.1298746   -0.0781684 
C    -2.1202726    3.4522915    0.5924327 
C    -3.4502754    3.6923742    0.1803087 
C    -3.7279124    4.5706035   -0.8737097 
H    -2.8954831    5.9106730   -2.3646759 
H    -0.5325153    5.5142708   -1.6454979 
H    -0.0345913    3.9342315    0.1980536 
H    -4.2716001    3.1797311    0.6906138 
H    -4.7658482    4.7404694   -1.1782679 
O     1.2534821   -3.8018922   -2.2752848 
O     0.8799817   -1.2349259   -4.0668157 
O    -3.8533834    1.1297269   -2.0156442 
O     0.3503098    1.9765304   -1.7801679 
O     3.0431621    0.3542334    2.4682332 
O    -0.7015596   -2.9322165    1.5592740 
C    -0.1214310   -1.9924132   -1.6998903 
C     1.1197114   -1.1545491   -1.7347467 
C    -1.4014819   -1.4718982   -1.4170002 
C     1.8293189   -0.7221334   -0.5917204 
C    -0.0122252   -3.3639598   -2.0514153 
C     1.6292586   -0.8116040   -3.0177371 
C    -2.5488320   -2.2873031   -1.4889569 
C     3.0207074    0.0207985   -0.7204226 
C    -1.1572284   -4.1776082   -2.1299063 
C     2.8220727   -0.0757555   -3.1440655 
C    -3.2944635    0.6202776   -0.8698774 
C    -0.7963106    1.2906330   -2.1181893 
C     2.4720297   -0.8798729    2.2427088 
C     0.5984955   -2.6685079    1.1885550 
C    -2.4167895   -3.6293929   -1.8567138 
C     3.5114375    0.3256746   -1.9932363 
C    -4.2862274    0.3827148    0.0610366 
C    -1.0978427    1.5178315   -3.4450618 
C     3.1237164   -1.8333831    2.9998515 
C     1.2597668   -3.8543551    0.9391820 
C    -5.5203185    0.7779153   -0.5480060 
C    -0.0855744    2.3959498   -3.9440140 
C     4.1599478   -1.1489724    3.7102909 
C     0.3134792   -4.9008946    1.1721712 
C    -5.1951043    1.2307366   -1.8037247 
C     0.7671783    2.6346877   -2.8916461 
C     4.0665120    0.1715328    3.3504552 
C    -0.8577445   -4.2827310    1.5406423 
C     1.4596662   -5.1589511   -2.6640157 
C     1.3025168   -0.9226885   -5.3932034 
H    -3.5357234   -1.8733076   -1.2665045 
H     3.5571773    0.3634309    0.1668919 
H    -1.0737781   -5.2319603   -2.4027042 
H     3.2154872    0.1821777   -4.1297810 
H    -3.3063930   -4.2638380   -1.9280184 
H     4.4432095    0.8919564   -2.0944639 
H    -4.1408665   -0.0311198    1.0596380 
H    -1.9471818    1.1020814   -3.9847619 
H     2.8825762   -2.8946581    3.0394832 
H     2.2907799   -3.9502019    0.5995388 
H    -6.5175669    0.7403801   -0.1094233 
H    -0.0016017    2.8026156   -4.9522364 
H     4.8764338   -1.5809249    4.4088988 
H     0.4759186   -5.9748341    1.0772321 
H    -5.7736844    1.6445077   -2.6284588 
H     1.6769473    3.2218759   -2.7788480 
H     4.6126034    1.0700950    3.6307268 
H    -1.8487803   -4.6478266    1.8056167 
H     0.9430256   -5.3869788   -3.6150690 
H     2.5450749   -5.2692014   -2.8001697 
H     1.1131378   -5.8572531   -1.8784325 
H     0.5414247   -1.3557407   -6.0579885 
H     1.3487933    0.1717984   -5.5475280 
H     2.2877477   -1.3728535   -5.6178920 
