91
Energy =
C     0.4851689    1.3318794    3.2023348 
C    -0.8398854    1.8048480    3.0002138 
C    -1.8679721    0.8858541    2.6535727 
H    -1.0371940    2.8834081    2.9744800 
Pd   -0.2174017    0.8384292    1.1268370 
P    -1.5291803   -0.0937815   -0.5754710 
P     1.8005998    0.4054174    0.0627971 
H     0.5868064    0.2713950    3.4810275 
H    -1.7234391   -0.1598033    2.9598243 
C     3.9394093    3.6618873    4.2402626 
C     3.9154691    2.2756693    4.4571061 
C     2.7866001    1.5314729    4.0979099 
C     1.6583687    2.1582966    3.5206458 
C     1.7055865    3.5517281    3.2873447 
C     2.8329240    4.2946726    3.6480925 
H     4.8185688    4.2484625    4.5269444 
H     4.7772802    1.7742160    4.9085528 
H     2.7676718    0.4502026    4.2745537 
H     0.8599080    4.0567482    2.8090628 
H     2.8521134    5.3743631    3.4668581 
C    -5.9713927    1.8652258    1.8253857 
C    -4.9814699    2.8523457    1.6844965 
C    -3.6398216    2.5465858    1.9279407 
C    -3.2596417    1.2463340    2.3345195 
C    -4.2632344    0.2578617    2.4519214 
C    -5.6062382    0.5648278    2.2021941 
H    -7.0215473    2.1094398    1.6349343 
H    -5.2592121    3.8650770    1.3753437 
H    -2.8787809    3.3217860    1.7905547 
H    -3.9813493   -0.7566446    2.7521501 
H    -6.3706282   -0.2119270    2.3091056 
O     2.1416472   -2.3416074   -3.3769015 
O    -0.1356857   -3.9561890   -1.9062443 
O    -2.0361089   -2.0605477    1.2596176 
O    -2.7012177    2.2352476   -1.2813643 
O     3.1452176    0.6688844   -2.3061389 
O     3.6889501    2.0494054    1.0159687 
C     0.3760531   -1.3318983   -2.2164134 
C     0.8787273   -2.0449024   -1.0004062 
C    -0.7661615   -0.5018783   -2.1994773 
C     1.6315452   -1.4254711    0.0214772 
C     1.0474071   -1.5445773   -3.4482162 
C     0.5776348   -3.4296263   -0.8788564 
C    -1.2381709    0.1011050   -3.3807917 
C     2.0278100   -2.1544417    1.1653344 
C     0.5772527   -0.9375188   -4.6287979 
C     0.9938476   -4.1588175    0.2501202 
C    -2.2177920   -1.6823571   -0.0539058 
C    -2.9690161    0.9091322   -1.0086630 
C     2.0354939    1.0681372   -1.5958961 
C     3.4292578    0.7169626    0.7880692 
C    -0.5643949   -0.1285108   -4.5855439 
C     1.7125074   -3.5124177    1.2643303 
C    -2.8416584   -2.7012529   -0.7444264 
C    -4.3120489    0.6593976   -1.1861649 
C     1.3531647    2.0391315   -2.3010081 
C     4.5778389   -0.0210527    1.0003633 
C    -3.0692753   -3.7524535    0.1988776 
C    -4.9019904    1.8976836   -1.5974033 
C     2.0754923    2.2341319   -3.5198102 
C     5.5906303    0.9125804    1.3872256 
C    -2.5552386   -3.3114134    1.3948977 
C    -3.8828622    2.8156197   -1.6413747 
C     3.1497560    1.3783471   -3.4680818 
C     4.9967601    2.1511542    1.3745610 
C     2.9127147   -2.5712776   -4.5543570 
C    -0.4415516   -5.3500913   -1.8976161 
H    -2.1202708    0.7459965   -3.3603726 
H     2.5655752   -1.6564701    1.9772240 
H     1.0931899   -1.0933800   -5.5789481 
H     0.7591649   -5.2212437    0.3457082 
H    -0.9287270    0.3348416   -5.5081853 
H     2.0272496   -4.0806528    2.1458295 
H    -3.0810078   -2.6952857   -1.8076262 
H    -4.8100042   -0.2968928   -1.0315196 
H     0.4353810    2.5337046   -1.9813338 
H     4.6863245   -1.0968643    0.8664773 
H    -3.5519514   -4.7129537    0.0164453 
H    -5.9527894    2.0841040   -1.8189239 
H     1.8310738    2.9203665   -4.3304824 
H     6.6288778    0.6925497    1.6363336 
H    -2.4833581   -3.7483159    2.3899599 
H    -3.8335685    3.8756854   -1.8859904 
H     3.9786501    1.1719316   -4.1441283 
H     5.3461437    3.1573341    1.5974025 
H     3.7454297   -3.2188296   -4.2449559 
H     2.3169580   -3.0829267   -5.3336637 
H     3.3139355   -1.6228509   -4.9596493 
H    -0.9974325   -5.5386198   -2.8271947 
H     0.4801355   -5.9612565   -1.8875888 
H    -1.0736015   -5.6148666   -1.0292962 
