91
Energy =
C    -0.3064634    1.5759170    3.3727772 
C    -0.6361566    2.6098989    2.4650496 
C    -1.8169485    2.5241382    1.6693785 
H     0.1027676    3.3919492    2.2503630 
Pd   -0.5105833    0.7658024    1.2552492 
P    -1.5619011    0.1953983   -0.7516249 
P     1.1671871   -0.8473304    1.0395810 
H    -1.1190656    0.8914945    3.6663169 
H    -2.6760353    1.9936076    2.1046387 
C     3.0462429    1.4240234    6.0512854 
C     2.7679238    2.6128234    5.3573177 
C     1.6951140    2.6714607    4.4618201 
C     0.8678077    1.5435995    4.2562903 
C     1.1575572    0.3541918    4.9649734 
C     2.2402961    0.2924916    5.8468302 
H     3.8856153    1.3809264    6.7529668 
H     3.3854547    3.5019031    5.5228181 
H     1.4810408    3.6116694    3.9440247 
H     0.5287652   -0.5296468    4.8089385 
H     2.4557632   -0.6386345    6.3802374 
C    -2.8365005    5.1275830   -1.6021190 
C    -1.4901154    4.9631502   -1.2359891 
C    -1.1462474    4.1319812   -0.1663163 
C    -2.1446388    3.4473428    0.5649441 
C    -3.4953922    3.6308586    0.1924024 
C    -3.8378130    4.4609620   -0.8812578 
H    -3.1013918    5.7732057   -2.4457298 
H    -0.7035610    5.4769721   -1.7981445 
H    -0.0902370    3.9789590    0.0781726 
H    -4.2816256    3.1121420    0.7496285 
H    -4.8906113    4.5870850   -1.1543807 
O     1.2456080   -3.8329299   -2.2538277 
O     0.6961761   -1.3612689   -4.0820043 
O    -3.9823584    0.9208861   -1.8606532 
O     0.1821829    1.9256739   -1.8946942 
O     3.1394218    0.5315251    2.3188085 
O     1.5379246   -3.5735214    0.9755936 
C    -0.1479716   -2.0570772   -1.6206047 
C     1.0549709   -1.1815775   -1.7721824 
C    -1.4198091   -1.5696814   -1.2541057 
C     1.8088693   -0.6910019   -0.6838971 
C    -0.0043711   -3.4421784   -1.9028257 
C     1.4868362   -0.8765676   -3.0915433 
C    -2.5234447   -2.4384202   -1.1451679 
C     2.9705428    0.0776720   -0.9009712 
C    -1.1083453   -4.3093094   -1.7993074 
C     2.6497099   -0.1138452   -3.3064537 
C    -3.3474558    0.4980784   -0.7193651 
C    -0.9437491    1.1692245   -2.1386917 
C     2.6341388   -0.7308283    2.0913922 
C     0.6592612   -2.5587818    1.2847469 
C    -2.3565922   -3.7996306   -1.4219135 
C     3.3851125    0.3490273   -2.2080465 
C    -4.2802685    0.2988295    0.2792802 
C    -1.3143696    1.3021338   -3.4609150 
C     3.4265673   -1.6671820    2.7246619 
C    -0.5224396   -3.0956987    1.7540353 
C    -5.5561598    0.6259257   -0.2819945 
C    -0.3680475    2.1930843   -4.0567660 
C     4.4766315   -0.9396887    3.3681210 
C    -0.3615636   -4.5166115    1.7302746 
C    -5.3124739    1.0045407   -1.5799680 
C     0.5177453    2.5331978   -3.0610102 
C     4.2550172    0.3857874    3.0880413 
C     0.9045411   -4.7483428    1.2498830 
C     1.4841049   -5.2019772   -2.5710273 
C     1.0522925   -1.1089912   -5.4401776 
H    -3.5048269   -2.0535159   -0.8551060 
H     3.5447508    0.4641007   -0.0558399 
H    -1.0010331   -5.3756729   -2.0101699 
H     2.9855193    0.1167412   -4.3199083 
H    -3.2131415   -4.4776551   -1.3471175 
H     4.2940305    0.9355326   -2.3782152 
H    -4.0706397   -0.0430991    1.2934976 
H    -2.1649558    0.8155368   -3.9354246 
H     3.2765384   -2.7455959    2.7082696 
H    -1.4028586   -2.5293764    2.0575992 
H    -6.5262730    0.5941288    0.2140784 
H    -0.3475185    2.5411513   -5.0898814 
H     5.2910622   -1.3476268    3.9668421 
H    -1.0919129   -5.2699734    2.0247740 
H    -5.9463344    1.3506638   -2.3952222 
H     1.4020735    3.1671569   -3.0252436 
H     4.7625372    1.3090521    3.3601992 
H     1.4836833   -5.6513848    1.0613172 
H     0.8792574   -5.5254604   -3.4390605 
H     2.5524745   -5.2690114   -2.8212474 
H     1.2664161   -5.8579148   -1.7064352 
H     1.0655413   -0.0233273   -5.6522706 
H     2.0374651   -1.5483960   -5.6851761 
H     0.2736620   -1.5924539   -6.0474255 
