91
Energy =
C     0.3138697    2.0955806    2.9402787 
C    -0.8494766    2.6305636    2.3302346 
C    -2.0916162    1.9402777    2.4242214 
H    -0.7662970    3.4999986    1.6648824 
Pd   -0.5370268    0.6729537    1.4102721 
P    -1.7688129   -0.6601644   -0.0601358 
P     1.5198620   -0.1916264    0.6720271 
H     0.1620216    1.4149384    3.7922601 
H    -2.2478934    1.3079683    3.3115822 
C     4.2484869    3.8198391    2.7690641 
C     3.3647735    3.9974397    1.6903080 
C     2.0818500    3.4455866    1.7330203 
C     1.6591332    2.6928070    2.8529176 
C     2.5585318    2.5160471    3.9261609 
C     3.8388421    3.0813290    3.8880266 
H     5.2524277    4.2554758    2.7343980 
H     3.6812135    4.5662936    0.8097391 
H     1.4107704    3.5692529    0.8782900 
H     2.2468938    1.9317004    4.7985921 
H     4.5210420    2.9370012    4.7319848 
C    -5.6886299    3.3288405    0.5216776 
C    -4.4748169    3.3447400   -0.1855743 
C    -3.2991613    2.8984112    0.4265818 
C    -3.3185198    2.4128291    1.7530893 
C    -4.5462477    2.3902083    2.4491218 
C    -5.7182803    2.8576735    1.8431496 
H    -6.6080130    3.6790596    0.0414575 
H    -4.4488683    3.7009124   -1.2207412 
H    -2.3577239    2.8892592   -0.1361585 
H    -4.5758302    2.0095193    3.4759612 
H    -6.6607799    2.8467801    2.4007787 
O     2.0204520   -1.2996150   -3.5119354 
O     0.0279481   -3.5853147   -2.8864430 
O    -2.2875119   -3.2924432   -0.5961339 
O    -4.3279225   -0.2634940    0.7178330 
O     1.5511590    1.9364607   -1.0380568 
O     2.3894852   -0.7557896    3.1675221 
C     0.2108210   -1.0136084   -2.0478466 
C     0.8230477   -2.1166144   -1.2432018 
C    -0.9817129   -0.3468632   -1.6918290 
C     1.5329988   -1.8859363   -0.0446438 
C     0.8771954   -0.6210416   -3.2417670 
C     0.7285484   -3.4453556   -1.7341195 
C    -1.4736288    0.7174233   -2.4794032 
C     2.1256211   -2.9498249    0.6618056 
C     0.3666384    0.4170220   -4.0420392 
C     1.3239032   -4.5086186   -1.0291566 
C    -1.7008600   -2.4282717    0.2995039 
C    -3.5324609   -0.4299395   -0.3906121 
C     2.2558012    0.8260642   -0.6291407 
C     2.7974051   -0.2412278    1.9538793 
C    -0.8037295    1.0796612   -3.6505240 
C     2.0185709   -4.2510812    0.1589072 
C    -1.2518915   -3.1303985    1.3999417 
C    -4.3248654   -0.5474379   -1.5162202 
C     3.4014303    0.7001114   -1.3882913 
C     4.1365150    0.0769098    2.0121203 
C    -1.5671858   -4.5044921    1.1584091 
C    -5.6784279   -0.4277259   -1.0703242 
C     3.4069589    1.8029588   -2.2994901 
C     4.5786774   -0.2697319    3.3294383 
C    -2.1925119   -4.5425172   -0.0648186 
C    -5.6195156   -0.2583334    0.2914097 
C     2.2580942    2.5139542   -2.0462145 
C     3.4832089   -0.7707057    3.9858128 
C     2.7290540   -1.0158702   -4.7174147 
C    -0.1480383   -4.8877734   -3.4392230 
H    -2.3756208    1.2551806   -2.1757884 
H     2.6640176   -2.7656209    1.5947589 
H     0.8786228    0.7168157   -4.9590083 
H     1.2485176   -5.5335868   -1.3991112 
H    -1.1933113    1.8944287   -4.2697689 
H     2.4817056   -5.0823257    0.7004901 
H    -0.7461402   -2.7041044    2.2665904 
H    -3.9734727   -0.7124330   -2.5342441 
H     4.1317630   -0.1053830   -1.3146951 
H     4.7252224    0.5238445    1.2124529 
H    -1.3585408   -5.3546553    1.8076527 
H    -6.5801493   -0.4627465   -1.6818810 
H     4.1627028    2.0386101   -3.0492608 
H     5.5810675   -0.1480646    3.7399675 
H    -2.6226522   -5.3440538   -0.6640096 
H    -6.3704142   -0.1103968    1.0652709 
H     1.8159820    3.4090893   -2.4807369 
H     3.3164356   -1.1565691    4.9904791 
H     2.0992974   -1.2085488   -5.6059345 
H     3.0850845    0.0313862   -4.7344496 
H     3.5918184   -1.6973039   -4.7235443 
H    -0.6867132   -5.5507586   -2.7356455 
H    -0.7524314   -4.7484019   -4.3468390 
H     0.8222135   -5.3464375   -3.7079467 
