91
Energy =
C     0.0885887    2.1291667    3.0055002 
C    -0.9368080    2.6662377    2.1918093 
C    -2.2109032    2.0277873    2.0859417 
H    -0.6952109    3.4864716    1.5043604 
Pd   -0.6003403    0.6340277    1.4518873 
P    -1.7825346   -0.8043767    0.0610468 
P     1.4943324   -0.1589786    0.7723411 
H    -0.2167335    1.4803792    3.8415361 
H    -2.5960156    1.4916861    2.9653732 
C     4.0781177    3.6874356    3.3761815 
C     3.5081509    2.9251559    4.4055631 
C     2.2138047    2.4108594    4.2643811 
C     1.4587263    2.6632856    3.0980542 
C     2.0478130    3.4294496    2.0647309 
C     3.3437222    3.9329102    2.2030249 
H     5.0920810    4.0864278    3.4833779 
H     4.0754028    2.7241396    5.3199156 
H     1.7748795    1.8106751    5.0689072 
H     1.4959648    3.6091370    1.1379896 
H     3.7868639    4.5185971    1.3907939 
C    -5.1725807    3.3077789   -0.7669789 
C    -3.8070165    3.4437384   -1.0658530 
C    -2.8396216    3.0239449   -0.1470506 
C    -3.2184149    2.4667547    1.0974789 
C    -4.5941801    2.3349434    1.3828345 
C    -5.5613001    2.7506722    0.4603026 
H    -5.9292179    3.6321202   -1.4887428 
H    -3.4953239    3.8693173   -2.0258456 
H    -1.7778114    3.0945959   -0.4097869 
H    -4.9030838    1.9020283    2.3400092 
H    -6.6236357    2.6388119    0.6998562 
O     1.9667617   -1.0455799   -3.4566157 
O     0.1150529   -3.4994667   -2.8832215 
O    -2.1321524   -3.4606215   -0.4804575 
O    -4.2438433   -0.7199876    1.1142725 
O     1.3438546    2.0366928   -0.8410183 
O     2.4038634   -0.7887332    3.2320772 
C     0.1546118   -0.9647652   -1.9698286 
C     0.8698385   -2.0410166   -1.2113923 
C    -1.1003882   -0.4298517   -1.5983298 
C     1.6038478   -1.8109283   -0.0266399 
C     0.7640642   -0.4892071   -3.1633120 
C     0.8444428   -3.3556092   -1.7491711 
C    -1.7170657    0.5735020   -2.3757232 
C     2.2896892   -2.8598212    0.6152856 
C     0.1398201    0.4995972   -3.9464659 
C     1.5309273   -4.4036247   -1.1071724 
C    -1.5744858   -2.5643306    0.4023506 
C    -3.5833731   -0.6902261   -0.0944560 
C     2.1383868    0.9639839   -0.4921404 
C     2.7766426   -0.1863512    2.0477838 
C    -1.0966560    1.0206107   -3.5454122 
C     2.2507459   -4.1455341    0.0653390 
C    -1.0334796   -3.2410071    1.4766920 
C    -4.4975161   -0.7891608   -1.1231146 
C     3.2633794    0.9457265   -1.2904084 
C     4.0933944    0.2114853    2.1244785 
C    -1.2578891   -4.6321689    1.2312511 
C    -5.7891723   -0.8674141   -0.5105963 
C     3.1612803    2.0742266   -2.1639139 
C     4.5583362   -0.1750818    3.4225662 
C    -1.9260183   -4.7051699    0.0325222 
C    -5.5746765   -0.8276386    0.8441829 
C     1.9746212    2.6934973   -1.8520897 
C     3.4973516   -0.7780149    4.0495384 
C     2.6261332   -0.6775389   -4.6670345 
C    -0.0069922   -4.7918301   -3.4729019 
H    -2.6651335    1.0125676   -2.0574136 
H     2.8468331   -2.6756477    1.5372396 
H     0.6108524    0.8641856   -4.8619039 
H     1.5079669   -5.4165534   -1.5152460 
H    -1.5796779    1.7916530   -4.1549714 
H     2.7864350   -4.9636558    0.5577449 
H    -0.5250052   -2.7866075    2.3273552 
H    -4.2680255   -0.8228326   -2.1875367 
H     4.0506485    0.1926006   -1.2661382 
H     4.6522705    0.7319277    1.3480641 
H    -0.9620040   -5.4705949    1.8615860 
H    -6.7528859   -0.9461216   -1.0138776 
H     3.8734878    2.3865324   -2.9281534 
H     5.5515362   -0.0120789    3.8409566 
H    -2.3186409   -5.5308364   -0.5596256 
H    -6.2328322   -0.8527974    1.7114662 
H     1.4575630    3.5687557   -2.2424146 
H     3.3565017   -1.2236554    5.0331936 
H     2.0062492   -0.9212064   -5.5499941 
H     2.8759277    0.4001728   -4.6746837 
H     3.5524776   -1.2690570   -4.6936574 
H    -0.4801637   -5.5067750   -2.7730602 
H    -0.6523049   -4.6591627   -4.3529415 
H     0.9768715   -5.1846351   -3.7918526 
