91
Energy =
C     0.3471286    1.9086825    2.9998361 
C    -1.0127840    2.2504553    2.7259691 
C    -2.0102755    1.2452395    2.7359467 
H    -1.2469762    3.2488566    2.3333426 
Pd   -0.3690403    0.7458632    1.2583635 
P    -1.5800839   -0.2684823   -0.4643803 
P     1.7122522   -0.0156280    0.5393204 
H     0.5282599    1.0918835    3.7135374 
H    -1.7693369    0.3064976    3.2606255 
C     3.6670957    4.5953108    2.4543053 
C     3.6105562    3.7522351    3.5730301 
C     2.5255876    2.8830129    3.7447098 
C     1.4741488    2.8480879    2.8056016 
C     1.5422981    3.7039231    1.6813833 
C     2.6284366    4.5667667    1.5077865 
H     4.5184319    5.2697616    2.3155700 
H     4.4169343    3.7659393    4.3135858 
H     2.4889006    2.2237661    4.6181819 
H     0.7561118    3.6577591    0.9188249 
H     2.6730471    5.2134661    0.6251586 
C    -6.1757074    1.6871089    1.7930122 
C    -5.4018292    2.8286430    2.0523793 
C    -4.0415222    2.7043969    2.3589113 
C    -3.4347188    1.4305058    2.4249681 
C    -4.2301695    0.2869801    2.1756714 
C    -5.5843483    0.4147021    1.8535318 
H    -7.2384017    1.7879874    1.5499745 
H    -5.8622743    3.8215976    2.0215815 
H    -3.4549765    3.6034942    2.5746742 
H    -3.7680223   -0.7057684    2.2188875 
H    -6.1819383   -0.4799540    1.6514189 
O     2.3572363   -1.9160301   -3.3390386 
O    -0.0560399   -3.7862856   -2.4847365 
O    -1.6963688   -2.4653377    1.1258150 
O    -4.1563365   -0.1635398   -1.4274246 
O     1.8447613    1.9081579   -1.3798523 
O     2.7265136   -0.3899817    3.0411036 
C     0.4804265   -1.1680790   -2.1490284 
C     0.8804566   -2.1498504   -1.0905608 
C    -0.6583698   -0.3398582   -2.0568434 
C     1.5575595   -1.7963812    0.0980584 
C     1.2610090   -1.1144791   -3.3344813 
C     0.6095163   -3.5238402   -1.3314087 
C    -1.0190925    0.5166375   -3.1162264 
C     1.9580366   -2.7813769    1.0236889 
C     0.8993388   -0.2621380   -4.3938532 
C     1.0087549   -4.5067912   -0.4066918 
C    -2.0673705   -1.9694898   -0.1080763 
C    -3.1230700    0.5684062   -0.8887802 
C     2.4771373    0.7929388   -0.8790850 
C     3.0342559    0.0709278    1.7776049 
C    -0.2426623    0.5403287   -4.2782334 
C     1.6870821   -4.1268719    0.7579551 
C    -2.7271542   -2.9477879   -0.8216002 
C    -3.4713908    1.9033352   -0.8530833 
C     3.6011502    0.5176016   -1.6316974 
C     4.3336873    0.5311135    1.7585327 
C    -2.7614567   -4.1060140    0.0168490 
C    -4.7910418    1.9944667   -1.3965990 
C     3.6621457    1.5232979   -2.6466808 
C     4.8579111    0.3250180    3.0754342 
C    -2.1182569   -3.7572284    1.1809995 
C    -5.1576786    0.7111952   -1.7222776 
C     2.5705987    2.3350987   -2.4466023 
C     3.8463854   -0.2381378    3.8099108 
C     3.1867432   -1.9506317   -4.4993732 
C    -0.3607570   -5.1396294   -2.8183304 
H    -1.9021312    1.1559764   -3.0309687 
H     2.4696459   -2.4996498    1.9464570 
H     1.4994120   -0.2213763   -5.3056142 
H     0.7988466   -5.5627036   -0.5909282 
H    -0.5253786    1.1962112   -5.1082326 
H     2.0035842   -4.8954534    1.4707546 
H    -3.1287863   -2.8372471   -1.8277656 
H    -2.8514316    2.7145185   -0.4716507 
H     4.2790124   -0.3226732   -1.4829584 
H     4.8435337    0.9741935    0.9044005 
H    -3.2097165   -5.0740577   -0.2089176 
H    -5.3978967    2.8921545   -1.5117540 
H     4.4159404    1.6324410   -3.4268300 
H     5.8576640    0.5732689    3.4316798 
H    -1.8877323   -4.2906751    2.1018881 
H    -6.0599323    0.2713643   -2.1451133 
H     2.1849050    3.2151161   -2.9589659 
H     3.7584975   -0.5723824    4.8427185 
H     3.6300527   -0.9574630   -4.7034971 
H     3.9866495   -2.6702872   -4.2734503 
H     2.6217347   -2.2929688   -5.3865047 
H    -1.0184225   -5.5993093   -2.0567234 
H    -0.8882538   -5.0976446   -3.7820431 
H     0.5597585   -5.7432067   -2.9270772 
