91
Energy =
C     0.4023408    2.0310157    2.9520827 
C    -0.9990573    2.2323933    2.7342293 
C    -1.8892947    1.1357084    2.8155052 
H    -1.3502539    3.1881590    2.3259337 
Pd   -0.2710294    0.7526172    1.2869615 
P    -1.5137860   -0.2127828   -0.4310991 
P     1.7908193   -0.0105275    0.5311388 
H     0.6991374    1.2662448    3.6834350 
H    -1.5367138    0.2516483    3.3705905 
C     3.4563542    4.9203031    2.0205348 
C     3.6550917    3.9742630    3.0360462 
C     2.6509209    3.0471820    3.3403660 
C     1.4277646    3.0465439    2.6362696 
C     1.2420118    4.0051270    1.6111592 
C     2.2439013    4.9318429    1.3096890 
H     4.2414405    5.6444751    1.7798218 
H     4.5967115    3.9556425    3.5945064 
H     2.8136639    2.3122885    4.1352652 
H     0.3144290    4.0039899    1.0267208 
H     2.0849577    5.6634581    0.5104050 
C    -6.1226300    1.0390089    2.0957776 
C    -5.4219592   -0.1300710    2.4297060 
C    -4.0428890   -0.0779944    2.6558025 
C    -3.3343576    1.1418509    2.5438131 
C    -4.0512592    2.3088381    2.1954113 
C    -5.4315753    2.2560647    1.9801305 
H    -7.2041091    1.0041108    1.9284707 
H    -5.9534422   -1.0829480    2.5215187 
H    -3.4953327   -0.9904304    2.9147209 
H    -3.5314732    3.2676595    2.1058397 
H    -5.9744033    3.1706888    1.7209669 
O     2.3106510   -2.0606162   -3.3265692 
O    -0.1098146   -3.8063768   -2.4000190 
O    -1.9245232   -2.4172451    1.0990847 
O    -2.8234382    2.1121701   -0.9103958 
O     3.6226057    0.2964102   -1.4963306 
O     2.8226528   -0.2800765    3.0399128 
C     0.5005210   -1.1864936   -2.1199660 
C     0.8690825   -2.1609049   -1.0460230 
C    -0.5966383   -0.3031985   -2.0242008 
C     1.5672733   -1.7941693    0.1256892 
C     1.2804273   -1.1786342   -3.3072148 
C     0.5583476   -3.5315951   -1.2501865 
C    -0.9003877    0.5878622   -3.0724965 
C     1.9374634   -2.7641100    1.0789879 
C     0.9745237   -0.2906654   -4.3554738 
C     0.9247497   -4.4992063   -0.2963200 
C    -2.1380570   -1.8815594   -0.1535221 
C    -3.0017132    0.7459822   -0.8149782 
C     2.4946109    0.8173357   -0.9002709 
C     3.1411519    0.0429184    1.7364946 
C    -0.1109272    0.5845193   -4.2275663 
C     1.6155900   -4.1065809    0.8570344 
C    -2.7527466   -2.8182840   -0.9591864 
C    -4.3177335    0.4322246   -1.0752234 
C     2.1000404    1.9600293   -1.5648557 
C     4.4808618    0.3554717    1.6515077 
C    -2.9330632   -3.9875175   -0.1552152 
C    -4.9817605    1.6688712   -1.3589354 
C     3.0344313    2.1505646   -2.6304653 
C     5.0166537    0.2110867    2.9718440 
C    -2.4073173   -3.6882486    1.0795119 
C    -4.0313738    2.6516032   -1.2489899 
C     3.9331162    1.1147355   -2.5407239 
C     3.9725906   -0.1801627    3.7714451 
C     3.1450544   -2.1310799   -4.4801586 
C    -0.4127484   -5.1635468   -2.7186820 
H    -1.7434111    1.2776954   -2.9888786 
H     2.4677710   -2.4727993    1.9887364 
H     1.5763831   -0.2759017   -5.2668660 
H     0.6824718   -5.5531697   -0.4497893 
H    -0.3451868    1.2722980   -5.0467168 
H     1.9069384   -4.8633539    1.5927950 
H    -3.0139773   -2.6836552   -2.0085915 
H    -4.7521078   -0.5664431   -1.0565311 
H     1.2352426    2.5734167   -1.3144476 
H     5.0112733    0.6439492    0.7452367 
H    -3.3927716   -4.9308179   -0.4513407 
H    -6.0349960    1.8094930   -1.6017230 
H     3.0385113    2.9500479   -3.3711367 
H     6.0474220    0.3754596    3.2862867 
H    -2.3036387   -4.2480014    2.0079146 
H    -4.0502221    3.7345863   -1.3619785 
H     4.8170864    0.8346614   -3.1122815 
H     3.8806216   -0.4173685    4.8304809 
H     3.6542086   -1.1661631   -4.6659461 
H     3.8948680   -2.9043175   -4.2599262 
H     2.5671737   -2.4207700   -5.3780347 
H    -0.9244621   -5.1348474   -3.6914159 
H     0.5083418   -5.7699231   -2.8032928 
H    -1.0836753   -5.6119591   -1.9618157 
