91
Energy =
C     0.4459483    2.0452715    2.9377157 
C    -0.9577628    2.2483686    2.7372168 
C    -1.8486710    1.1535273    2.8354123 
H    -1.3125426    3.2026845    2.3286316 
Pd   -0.2527052    0.7597967    1.2882391 
P    -1.5200999   -0.2106727   -0.4084516 
P     1.7973638   -0.0128056    0.5094661 
H     0.7509090    1.2833902    3.6686956 
H    -1.4903740    0.2719748    3.3908309 
C     3.4939750    4.9224873    1.9509559 
C     3.7044458    3.9803506    2.9677356 
C     2.7022547    3.0572096    3.2900361 
C     1.4693988    3.0567016    2.6030413 
C     1.2718865    4.0111709    1.5762807 
C     2.2718145    4.9340061    1.2569132 
H     4.2774140    5.6436465    1.6962446 
H     4.6536640    3.9617564    3.5131796 
H     2.8742204    2.3253246    4.0857661 
H     0.3362637    4.0098470    1.0048063 
H     2.1036031    5.6626505    0.4568108 
C    -6.0902780    1.0577076    2.1659418 
C    -5.3869243   -0.1102802    2.4980318 
C    -4.0053143   -0.0583692    2.7079663 
C    -3.2970096    1.1601779    2.5814800 
C    -4.0167825    2.3261029    2.2356035 
C    -5.3995124    2.2735061    2.0362409 
H    -7.1736043    1.0230010    2.0110084 
H    -5.9181591   -1.0621753    2.6008377 
H    -3.4555898   -0.9700141    2.9650037 
H    -3.4971250    3.2838881    2.1349348 
H    -5.9444757    3.1873064    1.7786646 
O     2.2612357   -2.0809758   -3.3461470 
O    -0.1516345   -3.8161047   -2.3799795 
O    -1.9185429   -2.4078171    1.1355376 
O    -2.8275991    2.1173627   -0.8759563 
O     3.6035467    0.2780216   -1.5432979 
O     2.8593536   -0.2723117    3.0067767 
C     0.4696315   -1.1968067   -2.1193920 
C     0.8493880   -2.1675309   -1.0460349 
C    -0.6239100   -0.3102821   -2.0129863 
C     1.5634813   -1.7976142    0.1150342 
C     1.2337802   -1.1960467   -3.3168677 
C     0.5320989   -3.5381899   -1.2400743 
C    -0.9392857    0.5770359   -3.0610217 
C     1.9430110   -2.7643506    1.0679025 
C     0.9163409   -0.3117199   -4.3647850 
C     0.9078099   -4.5025937   -0.2865730 
C    -2.1456011   -1.8765426   -0.1165545 
C    -3.0092644    0.7517610   -0.7782446 
C     2.4856180    0.8060396   -0.9346432 
C     3.1628786    0.0418640    1.6976368 
C    -0.1651537    0.5667675   -4.2263828 
C     1.6144276   -4.1068541    0.8561202 
C    -2.7729246   -2.8145679   -0.9108686 
C    -4.3278769    0.4417326   -1.0296369 
C     2.0866949    1.9473565   -1.5989676 
C     4.5028021    0.3478087    1.5940717 
C    -2.9469940   -3.9800163   -0.1000389 
C    -4.9901855    1.6801502   -1.3096209 
C     3.0075991    2.1295409   -2.6777063 
C     5.0545211    0.2084320    2.9083947 
C    -2.4053672   -3.6774055    1.1269778 
C    -4.0361610    2.6601387   -1.2066292 
C     3.9033208    1.0905326   -2.5953463 
C     4.0188726   -0.1737016    3.7232159 
C     3.0799035   -2.1588051   -4.5104859 
C    -0.4623482   -5.1737895   -2.6888223 
H    -1.7795448    1.2692251   -2.9692910 
H     2.4856031   -2.4704968    1.9695775 
H     1.5060383   -0.3025463   -5.2841628 
H     0.6606759   -5.5565334   -0.4322783 
H    -0.4084971    1.2516169   -5.0453387 
H     1.9129029   -4.8611946    1.5915187 
H    -3.0463405   -2.6834485   -1.9576082 
H    -4.7650266   -0.5556685   -1.0078143 
H     1.2275474    2.5650760   -1.3399267 
H     5.0231647    0.6283566    0.6795222 
H    -3.4131754   -4.9230446   -0.3867712 
H    -6.0446023    1.8237165   -1.5454827 
H     3.0050978    2.9258518   -3.4217993 
H     6.0898492    0.3701354    3.2089443 
H    -2.2920529   -4.2338026    2.0562708 
H    -4.0527449    3.7431387   -1.3198268 
H     4.7784957    0.8044624   -3.1773742 
H     3.9392547   -0.4048295    4.7845954 
H     3.5889022   -1.1960429   -4.7075014 
H     3.8306781   -2.9329437   -4.2967915 
H     2.4892984   -2.4510977   -5.3991954 
H    -0.9858886   -5.1479055   -3.6553251 
H     0.4558837   -5.7832269   -2.7820028 
H    -1.1252176   -5.6168533   -1.9217837 
