91
Energy =
C     0.5026834    1.8973296    2.9844948 
C    -0.8522471    2.2867086    2.7518321 
C    -1.8839765    1.3175932    2.7913218 
H    -1.0628472    3.2931751    2.3666177 
Pd   -0.3044861    0.7627870    1.2649802 
P    -1.6008865   -0.2108014   -0.4192270 
P     1.7254825   -0.0747542    0.4882315 
H     0.6770165    1.0741819    3.6925358 
H    -1.6611868    0.3700256    3.3080316 
C     3.8956371    4.4685966    2.3403048 
C     3.8439626    3.6257771    3.4594741 
C     2.7351376    2.7945127    3.6634826 
C     1.6550131    2.7977820    2.7568082 
C     1.7185775    3.6529836    1.6318590 
C     2.8281527    4.4781072    1.4260649 
H     4.7652987    5.1133129    2.1761720 
H     4.6726025    3.6099312    4.1749932 
H     2.7021993    2.1353741    4.5371764 
H     0.9084237    3.6356717    0.8936328 
H     2.8681286    5.1248262    0.5432311 
C    -6.0562664    1.9061547    1.9660354 
C    -5.2354517    3.0197824    2.2013609 
C    -3.8723184    2.8477833    2.4698440 
C    -3.3092857    1.5533080    2.5211154 
C    -4.1514623    0.4384422    2.2965330 
C    -5.5088053    0.6136865    2.0123353 
H    -7.1211471    2.0444865    1.7528144 
H    -5.6611204    4.0284230    2.1814231 
H    -3.2488024    3.7259991    2.6672089 
H    -3.7236740   -0.5700150    2.3284659 
H    -6.1429753   -0.2594850    1.8286645 
O     2.1879662   -2.0078600   -3.4020184 
O    -0.2640672   -3.7874320   -2.4704181 
O    -1.7517504   -2.3968053    1.1832710 
O    -4.1964995   -0.0145960   -1.3131760 
O     1.8702837    1.8409365   -1.4374124 
O     2.8021393   -0.4823903    2.9589869 
C     0.3753282   -1.1892697   -2.1600410 
C     0.7706673   -2.1819307   -1.1100523 
C    -0.7295715   -0.3200490   -2.0375972 
C     1.4938065   -1.8498426    0.0574866 
C     1.1223022   -1.1667773   -3.3679461 
C     0.4440340   -3.5459939   -1.3380098 
C    -1.0897154    0.5467584   -3.0887720 
C     1.8859135   -2.8463629    0.9743773 
C     0.7612529   -0.3038777   -4.4189596 
C     0.8347507   -4.5402951   -0.4218840 
C    -2.1380679   -1.8923493   -0.0423868 
C    -3.1244177    0.6799840   -0.8015567 
C     2.4761552    0.7033063   -0.9546077 
C     3.0866198   -0.0333038    1.6857867 
C    -0.3470536    0.5397940   -4.2728694 
C     1.5598916   -4.1819849    0.7211674 
C    -2.8513076   -2.8489365   -0.7335777 
C    -3.4246939    2.0262245   -0.7558961 
C     3.5661805    0.3869205   -1.7403344 
C     4.3999820    0.3817349    1.6260767 
C    -2.9039080   -4.0023659    0.1105120 
C    -4.7542274    2.1642391   -1.2642306 
C     3.6334148    1.3896438   -2.7578463 
C     4.9570440    0.1584765    2.9265912 
C    -2.2175229   -3.6727306    1.2553932 
C    -5.1740070    0.8950752   -1.5809467 
C     2.5789290    2.2409920   -2.5259400 
C     3.9497091   -0.3687837    3.6928011 
C     2.9815108   -2.0750491   -4.5858275 
C    -0.6258162   -5.1299658   -2.7904143 
H    -1.9461555    1.2179216   -2.9798894 
H     2.4339366   -2.5808245    1.8808677 
H     1.3358696   -0.2866898   -5.3476867 
H     0.5819109   -5.5884384   -0.5962305 
H    -0.6298285    1.2036599   -5.0964750 
H     1.8697463   -4.9596298    1.4270238 
H    -3.2758599   -2.7276011   -1.7290243 
H    -2.7667509    2.8145864   -0.3905925 
H     4.2170877   -0.4775237   -1.6108804 
H     4.8982264    0.8064043    0.7559123 
H    -3.3922290   -4.9545935   -0.0988581 
H    -5.3321573    3.0827386   -1.3628590 
H     4.3670141    1.4710722   -3.5603213 
H     5.9753156    0.3721181    3.2514487 
H    -1.9810355   -4.2109847    2.1719628 
H    -6.1019121    0.4877636   -1.9801893 
H     2.2106536    3.1346191   -3.0274488 
H     3.8820133   -0.6990604    4.7284017 
H     2.3786471   -2.3975786   -5.4553077 
H     3.4552182   -1.0993626   -4.8053642 
H     3.7604336   -2.8235597   -4.3812926 
H    -1.1793383   -5.0716872   -3.7385573 
H     0.2693660   -5.7658549   -2.9237083 
H    -1.2768038   -5.5643150   -2.0084790 
