91
Energy =
C    -0.2210587    1.5839584    3.3755714 
C    -0.5802648    2.6136442    2.4743021 
C    -1.7819013    2.5200854    1.7112205 
H     0.1489882    3.3983537    2.2374274 
Pd   -0.4792844    0.7670197    1.2657774 
P    -1.5835030    0.1853664   -0.7091151 
P     1.2006627   -0.8379939    1.0077688 
H    -1.0218037    0.8961787    3.6927913 
H    -2.6264170    1.9871709    2.1713150 
C     3.2051381    1.4548735    5.9606181 
C     2.9002769    2.6414379    5.2740449 
C     1.8028069    2.6927446    4.4084450 
C     0.9772753    1.5595627    4.2264122 
C     1.2938313    0.3725285    4.9275624 
C     2.4009523    0.3181858    5.7791035 
H     4.0639218    1.4174410    6.6387336 
H     3.5165458    3.5344735    5.4220142 
H     1.5684693    3.6312396    3.8963525 
H     0.6664189   -0.5152874    4.7895596 
H     2.6369790   -0.6112401    6.3067460 
C    -2.9020226    5.1078433   -1.5398069 
C    -1.5454681    4.9510022   -1.2096956 
C    -1.1688144    4.1251690   -0.1469627 
C    -2.1437777    3.4383099    0.6133006 
C    -3.5049797    3.6143251    0.2768972 
C    -3.8802687    4.4391034   -0.7898466 
H    -3.1927169    5.7492950   -2.3780859 
H    -0.7768614    5.4665515   -1.7946348 
H    -0.1058239    3.9779649    0.0693275 
H    -4.2733820    3.0937923    0.8568350 
H    -4.9406659    4.5593560   -1.0347617 
O     1.2008926   -3.8357029   -2.2723494 
O     0.5862453   -1.3728538   -4.0961515 
O    -4.0373369    0.8970594   -1.7522914 
O     0.1211696    1.9188066   -1.9050999 
O     3.1981818    0.5579015    2.2272112 
O     1.5844166   -3.5625958    0.9460066 
C    -0.1835729   -2.0637886   -1.6090416 
C     1.0102458   -1.1831597   -1.7982165 
C    -1.4470135   -1.5808893   -1.2091577 
C     1.7925360   -0.6851349   -0.7336898 
C    -0.0409068   -3.4494468   -1.8888491 
C     1.4026054   -0.8808179   -3.1304499 
C    -2.5429044   -2.4544519   -1.0659443 
C     2.9438017    0.0882409   -0.9865363 
C    -1.1372432   -4.3214409   -1.7509288 
C     2.5550239   -0.1131876   -3.3811896 
C    -3.3689379    0.4799455   -0.6281677 
C    -1.0087993    1.1582558   -2.1153898 
C     2.6961724   -0.7087207    2.0169234 
C     0.7090636   -2.5509811    1.2743348 
C    -2.3770589   -3.8160631   -1.3413547 
C     3.3193657    0.3569906   -2.3058786 
C    -4.2726155    0.2794153    0.3966793 
C    -1.4179766    1.2881762   -3.4265201 
C     3.5138347   -1.6377449    2.6285157 
C    -0.4565475   -3.0918619    1.7780470 
C    -5.5650942    0.5996408   -0.1294801 
C    -0.4922953    2.1814922   -4.0506303 
C     4.5765090   -0.9009675    3.2399114 
C    -0.2887777   -4.5120205    1.7564293 
C    -5.3594201    0.9758724   -1.4347121 
C     0.4208251    2.5258609   -3.0813700 
C     4.3366552    0.4222298    2.9640474 
C     0.9650390   -4.7393963    1.2428618 
C     1.4374014   -5.2049677   -2.5901902 
C     0.9008128   -1.1218482   -5.4647850 
H    -3.5177596   -2.0730266   -0.7504073 
H     3.5400699    0.4803295   -0.1594799 
H    -1.0305064   -5.3882442   -1.9598821 
H     2.8604090    0.1155893   -4.4046307 
H    -3.2278604   -4.4978429   -1.2398669 
H     4.2201731    0.9472233   -2.5040290 
H    -4.0332424   -0.0588682    1.4055178 
H    -2.2804125    0.7983118   -3.8756118 
H     3.3715768   -2.7172861    2.6184254 
H    -1.3314652   -2.5287553    2.1028059 
H    -6.5207879    0.5650741    0.3936541 
H    -0.5028882    2.5282008   -5.0843530 
H     5.4110416   -1.3014836    3.8155174 
H    -1.0067927   -5.2677775    2.0741922 
H    -6.0173425    1.3171977   -2.2327493 
H     1.3037022    3.1627729   -3.0720616 
H     4.8447844    1.3498499    3.2197935 
H     1.5436743   -5.6403108    1.0428747 
H     1.2467763   -5.8581811   -1.7171928 
H     0.8105975   -5.5351528   -3.4399285 
H     2.4988245   -5.2678963   -2.8693491 
H     1.8808642   -1.5561837   -5.7377286 
H     0.1074725   -1.6112148   -6.0477744 
H     0.9015426   -0.0366273   -5.6795461 
