91
Energy =
C    -0.7845346    1.0070418    3.3708990 
C    -0.9600523    2.2548688    2.7306276 
C    -2.0074721    2.4216005    1.7655391 
H    -0.1842014    3.0240393    2.8289399 
Pd   -0.6837197    0.7838594    1.1219168 
P    -1.5686188    0.3637161   -0.9937459 
P     1.1796444   -0.5878458    0.8731742 
H    -1.6448740    0.3183462    3.3615301 
H    -2.9482989    1.8806660    1.9390139 
C     2.2576458   -0.2100420    6.1461874 
C     2.2086465    1.1273130    5.7210100 
C     1.2342339    1.5440124    4.8089015 
C     0.2802180    0.6282899    4.3112175 
C     0.3392663   -0.7161084    4.7498526 
C     1.3213258   -1.1324207    5.6536979 
H     3.0214183   -0.5301926    6.8623828 
H     2.9347356    1.8505849    6.1056598 
H     1.2053654    2.5923664    4.4961705 
H    -0.3884540   -1.4365208    4.3612728 
H     1.3533226   -2.1768984    5.9806400 
C    -2.2971519    5.6773457   -1.0371652 
C    -1.0672580    5.3973273   -0.4179350 
C    -0.9642813    4.3535593    0.5061895 
C    -2.0946607    3.5692603    0.8412686 
C    -3.3270112    3.8708847    0.2191686 
C    -3.4256454    4.9103620   -0.7131527 
H    -2.3729863    6.4902717   -1.7665089 
H    -0.1818185    5.9923360   -0.6656058 
H     0.0103864    4.1279368    0.9535049 
H    -4.2125759    3.2770100    0.4657535 
H    -4.3899926    5.1229804   -1.1862459 
O     1.1985653   -3.8806703   -1.9196709 
O     0.7015210   -1.7170866   -4.1183688 
O    -3.7670094    1.4370463   -2.2461725 
O    -1.1351750    0.8830725   -3.6519918 
O     2.7893810    1.3536648    1.8697248 
O    -0.1462596   -2.7352858    1.8750172 
C    -0.1704426   -2.0071698   -1.5830661 
C     1.0486378   -1.1849695   -1.8612704 
C    -1.4423906   -1.4475758   -1.3243304 
C     1.8111569   -0.5545965   -0.8544330 
C    -0.0531573   -3.4201641   -1.6647898 
C     1.4737077   -1.0681030   -3.2119326 
C    -2.5686533   -2.2754109   -1.1495611 
C     2.9526428    0.2044393   -1.1806625 
C    -1.1771822   -4.2458976   -1.4772617 
C     2.6150340   -0.3116079   -3.5371004 
C    -3.3322349    0.7702116   -1.1288277 
C    -0.8031902    1.2343337   -2.3643471 
C     2.5692450   -0.0099480    1.8816737 
C     1.0411639   -2.3337806    1.2998290 
C    -2.4265077   -3.6643786   -1.2298220 
C     3.3411891    0.3194719   -2.5197396 
C    -4.3987601    0.5562745   -0.2757626 
C     0.1150713    2.2645167   -2.3793249 
C     3.5199008   -0.6242711    2.6672002 
C     1.8637036   -3.4277493    1.1236518 
C    -5.5508097    1.1149704   -0.9159225 
C     0.3595485    2.5632902   -3.7555767 
C     4.3787033    0.4137518    3.1529782 
C     1.1451834   -4.5590562    1.6235563 
C    -5.1046221    1.6425784   -2.1039053 
C    -0.4246569    1.6955780   -4.4790320 
C     3.8941705    1.5885318    2.6373043 
C    -0.0672352   -4.0801275    2.0606038 
C     1.4012874   -5.2829667   -2.0864788 
C     1.0548046   -1.6647993   -5.4984795 
H    -3.5523549   -1.8370136   -0.9639273 
H     3.5316031    0.7014922   -0.3990419 
H    -1.0867895   -5.3329164   -1.5341495 
H     2.9390966   -0.2104191   -4.5752487 
H    -3.3032525   -4.3075897   -1.1011764 
H     4.2286841    0.9062068   -2.7784799 
H    -4.3575675    0.0564157    0.6929159 
H     0.5549367    2.7371765   -1.5020663 
H     3.5861529   -1.6920053    2.8721694 
H     2.8515492   -3.4150430    0.6637238 
H    -6.5746268    1.1295356   -0.5418694 
H     1.0305922    3.3216878   -4.1585083 
H     5.2401667    0.3010435    3.8111871 
H     1.4810253   -5.5958795    1.6563424 
H    -5.5900052    2.1741299   -2.9212392 
H    -0.5902941    1.5447141   -5.5450630 
H     4.1962574    2.6311699    2.7242842 
H    -0.9431539   -4.5485413    2.5071535 
H     0.8007608   -5.6765136   -2.9277165 
H     2.4709655   -5.4054732   -2.3093661 
H     1.1514229   -5.8363693   -1.1616085 
H     0.2894072   -2.2524558   -6.0251412 
H     1.0449089   -0.6244632   -5.8753797 
H     2.0515819   -2.1109567   -5.6756621 
