91
Energy =
C     0.5353884    1.9751602    2.9682256 
C    -0.8619511    2.2280708    2.7813837 
C    -1.7876711    1.1610271    2.8656379 
H    -1.1871235    3.2019001    2.3945237 
Pd   -0.2153524    0.7475651    1.2977490 
P    -1.5294616   -0.1644478   -0.3967816 
P     1.8046785   -0.0562723    0.4753420 
H     0.8190258    1.1891772    3.6822772 
H    -1.4546501    0.2581715    3.4022036 
C     3.6662589    4.7804257    2.0352360 
C     3.8398393    3.8298883    3.0511129 
C     2.8113974    2.9297636    3.3555722 
C     1.5887875    2.9618030    2.6516885 
C     1.4281318    3.9249436    1.6267956 
C     2.4544670    4.8242409    1.3244916 
H     4.4704809    5.4831239    1.7940442 
H     4.7806409    3.7864662    3.6095457 
H     2.9542239    2.1910519    4.1507172 
H     0.5003366    3.9476131    1.0429442 
H     2.3153511    5.5591173    0.5245211 
C    -6.0359928    1.2192876    2.2355622 
C    -5.3047314    2.4119859    2.1132020 
C    -3.9192065    2.4143805    2.2993812 
C    -3.2369863    1.2202892    2.6247947 
C    -3.9858238    0.0254758    2.7436531 
C    -5.3703411    0.0237955    2.5467168 
H    -7.1212975    1.2238584    2.0910553 
H    -5.8200867    3.3470845    1.8716493 
H    -3.3675427    3.3546483    2.2040948 
H    -3.4655727   -0.9074804    2.9848975 
H    -5.9331786   -0.9104459    2.6432832 
O     2.1593864   -2.1129825   -3.3996650 
O    -0.2833483   -3.7918194   -2.4060825 
O    -1.9676317   -2.3589008    1.1400997 
O    -2.7754427    2.2033290   -0.8293672 
O     3.5760214    0.2169888   -1.6097236 
O     2.9218437   -0.3747513    2.9423443 
C     0.4083615   -1.1916106   -2.1422058 
C     0.7806546   -2.1769212   -1.0794833 
C    -0.6617957   -0.2796314   -2.0156267 
C     1.5225545   -1.8322589    0.0719718 
C     1.1533285   -1.2046616   -3.3516325 
C     0.4253512   -3.5379828   -1.2757813 
C    -0.9732588    0.6178394   -3.0561318 
C     1.8927561   -2.8141935    1.0129607 
C     0.8398139   -0.3100251   -4.3919955 
C     0.7917685   -4.5173907   -0.3341018 
C    -2.1970056   -1.8141608   -0.1058565 
C    -2.9952343    0.8428982   -0.7387976 
C     2.4791711    0.7603344   -0.9767322 
C     3.1971994   -0.0373847    1.6327440 
C    -0.2186261    0.5928555   -4.2339966 
C     1.5267562   -4.1466107    0.7989698 
C    -2.8590411   -2.7306082   -0.8971469 
C    -4.3250940    0.5726123   -0.9762897 
C     2.0873638    1.9121776   -1.6270505 
C     4.5364149    0.2619978    1.5039249 
C    -3.0533563   -3.8959266   -0.0907129 
C    -4.9547870    1.8315555   -1.2393909 
C     2.9903455    2.0848925   -2.7223138 
C     5.1175165    0.0929964    2.8020071 
C    -2.4878744   -3.6152052    1.1307238 
C    -3.9717510    2.7829745   -1.1413796 
C     3.8694415    1.0302239   -2.6629492 
C     4.0984733   -0.2981495    3.6330989 
C     2.9582715   -2.2053523   -4.5765986 
C    -0.6336642   -5.1393104   -2.7170403 
H    -1.7957395    1.3289172   -2.9491192 
H     2.4569114   -2.5397116    1.9074073 
H     1.4148021   -0.3118003   -5.3206854 
H     0.5154808   -5.5637940   -0.4816616 
H    -0.4589914    1.2856670   -5.0471120 
H     1.8178639   -4.9126662    1.5251573 
H    -3.1424647   -2.5860495   -1.9394425 
H    -4.7903342   -0.4120168   -0.9563760 
H     1.2434479    2.5424996   -1.3488857 
H     5.0375554    0.5574162    0.5834159 
H    -3.5481178   -4.8245364   -0.3766224 
H    -6.0074747    2.0071279   -1.4608707 
H     2.9870647    2.8852771   -3.4620067 
H     6.1607031    0.2418035    3.0812299 
H    -2.3771858   -4.1800994    2.0552019 
H    -3.9586219    3.8668082   -1.2467633 
H     4.7281487    0.7325755   -3.2634052 
H     4.0419205   -0.5493712    4.6913701 
H     3.4859192   -1.2536881   -4.7784300 
H     3.6944892   -2.9969832   -4.3767803 
H     2.3477658   -2.4811869   -5.4570804 
H     0.2670670   -5.7712904   -2.8289578 
H    -1.2947396   -5.5699211   -1.9414253 
H    -1.1723914   -5.0944837   -3.6744712 
