91
Energy =
C    -0.7694046    0.9660393    3.3604462 
C    -1.0853246    2.1949126    2.7348220 
C    -2.1656444    2.2599477    1.7962009 
H    -0.3952994    3.0430404    2.8244520 
Pd   -0.6896330    0.7731828    1.1106112 
P    -1.5393010    0.3332093   -1.0082542 
P     1.2424722   -0.5026121    0.8500057 
H    -1.5594835    0.1980389    3.3710107 
H    -3.0346798    1.6110911    1.9741933 
C     2.4309635    0.0630603    6.0787818 
C     2.2852610    1.3742600    5.5974278 
C     1.2590820    1.6887997    4.7016532 
C     0.3480362    0.6954053    4.2769920 
C     0.5065531   -0.6216921    4.7695682 
C     1.5399433   -0.9359295    5.6577123 
H     3.2352414   -0.1770447    6.7818431 
H     2.9772958    2.1569226    5.9242631 
H     1.1587663    2.7174595    4.3418835 
H    -0.1875293   -1.4014663    4.4387673 
H     1.6468748   -1.9606445    6.0283622 
C    -2.8989915    5.5658334   -0.8638049 
C    -1.5978880    5.3276230   -0.3884635 
C    -1.3503825    4.2640383    0.4838771 
C    -2.4018425    3.4152992    0.9065110 
C    -3.7026386    3.6671946    0.4200721 
C    -3.9491086    4.7310908   -0.4560848 
H    -3.0895509    6.3968573   -1.5506930 
H    -0.7719416    5.9717456   -0.7082773 
H    -0.3253651    4.0700544    0.8206608 
H    -4.5281028    3.0202816    0.7338184 
H    -4.9659645    4.9065969   -0.8221525 
O     1.2823234   -3.9073741   -1.8258903 
O     0.7370945   -1.8247429   -4.0919643 
O    -4.1382899    0.4002218   -0.1873285 
O    -1.1071862    0.8323039   -3.6782821 
O     2.7976945    1.5270309    1.7495398 
O    -0.0060465   -2.6469794    1.9517886 
C    -0.1020834   -2.0372116   -1.5342250 
C     1.1011356   -1.2094097   -1.8590390 
C    -1.3740641   -1.4836378   -1.2686130 
C     1.8606972   -0.5279888   -0.8834844 
C     0.0312318   -3.4509447   -1.5601356 
C     1.5125121   -1.1373381   -3.2167752 
C    -2.4856473   -2.3143661   -1.0217449 
C     2.9907860    0.2305198   -1.2480027 
C    -1.0779300   -4.2799736   -1.3095400 
C     2.6433637   -0.3821400   -3.5799123 
C    -3.2983624    0.6945759   -1.2422090 
C    -0.7654050    1.1825296   -2.3900089 
C     2.6253629    0.1582897    1.8151932 
C     1.1614412   -2.2345594    1.3449034 
C    -2.3271962   -3.7033757   -1.0477004 
C     3.3700416    0.2954438   -2.5932114 
C    -4.0293055    1.2337189   -2.2789483 
C     0.1698628    2.1964042   -2.4137231 
C     3.6109279   -0.3944492    2.6032866 
C     2.0110429   -3.3116492    1.1949650 
C    -5.3925951    1.2668366   -1.8412250 
C     0.4199623    2.4830295   -3.7921618 
C     4.4414815    0.6893763    3.0349958 
C     1.3313737   -4.4429742    1.7465862 
C    -5.4031951    0.7461839   -0.5717741 
C    -0.3797111    1.6278936   -4.5117666 
C     3.9068916    1.8274524    2.4871662 
C     0.1125140   -3.9814487    2.1845745 
C     1.4992495   -5.3132566   -1.9336194 
C     1.0753117   -1.8162745   -5.4767284 
H    -3.4647536   -1.8802289   -0.8059245 
H     3.5688050    0.7653439   -0.4908873 
H    -0.9758273   -5.3673706   -1.3240143 
H     2.9588309   -0.3177766   -4.6236514 
H    -3.1898596   -4.3515963   -0.8619058 
H     4.2496598    0.8804393   -2.8812086 
H    -3.6299835    1.5563009   -3.2393635 
H     0.6223446    2.6632633   -1.5394958 
H     3.7175799   -1.4510683    2.8454412 
H     2.9913967   -3.2892296    0.7195449 
H    -6.2553636    1.6299861   -2.3999166 
H     1.1068412    3.2249744   -4.1989739 
H     5.3176121    0.6302577    3.6806991 
H     1.6963835   -5.4683490    1.8115289 
H    -6.1868714    0.5606953    0.1615324 
H    -0.5477099    1.4731026   -5.5768398 
H     4.1734701    2.8824064    2.5314425 
H    -0.7439583   -4.4565508    2.6607945 
H     0.8851899   -5.7519962   -2.7421293 
H     2.5651699   -5.4332210   -2.1751372 
H     1.2772180   -5.8267062   -0.9791158 
H     1.0497519   -0.7895903   -5.8891535 
H     2.0750999   -2.2572869   -5.6497126 
H     0.3112762   -2.4301110   -5.9747454 
