91
Energy =
C    -0.3854167    1.3962355    3.4045277 
C    -0.8281014    2.4673341    2.5908156 
C    -2.0010879    2.3272622    1.7935954 
H    -0.1807061    3.3408787    2.4410137 
Pd   -0.5196005    0.7694767    1.2213033 
P    -1.4777584    0.2623838   -0.8453716 
P     1.2334522   -0.7559486    0.9747302 
H    -1.1256533    0.6159561    3.6447338 
H    -2.7934244    1.6666700    2.1753161 
C     2.9906820    1.3658657    6.0587993 
C     2.6020860    2.5685100    5.4466490 
C     1.5213847    2.5905320    4.5591106 
C     0.7958375    1.4096478    4.2796826 
C     1.1967233    0.2061763    4.9054927 
C     2.2875328    0.1830937    5.7795499 
H     3.8361383    1.3511974    6.7543235 
H     3.1394551    3.4961877    5.6698711 
H     1.2217404    3.5401988    4.1050349 
H     0.6485379   -0.7182775    4.6909212 
H     2.5895260   -0.7587989    6.2481949 
C    -3.3318581    5.2219082   -1.0991247 
C    -1.9587659    4.9568425   -0.9577887 
C    -1.5151852    4.0247489   -0.0152666 
C    -2.4388011    3.3331307    0.8020872 
C    -3.8141981    3.6044063    0.6470638 
C    -4.2567271    4.5446906   -0.2918348 
H    -3.6772102    5.9511278   -1.8393230 
H    -1.2324266    5.4730628   -1.5943517 
H    -0.4470062    3.7940091    0.0608830 
H    -4.5414461    3.0727904    1.2696911 
H    -5.3283416    4.7431738   -0.3971651 
O     1.2510001   -3.8887876   -2.1837783 
O     0.8006833   -1.5356662   -4.1166469 
O    -4.0181117    0.2604165    0.1169013 
O     0.1978829    2.0542726   -2.0251874 
O     3.1160367    0.7384778    2.2507083 
O     1.6547577   -3.4765784    1.0180108 
C    -0.0974681   -2.0542602   -1.6209373 
C     1.1256420   -1.2149624   -1.8165286 
C    -1.3568161   -1.5247856   -1.2650024 
C     1.8762588   -0.6734189   -0.7508288 
C     0.0133867   -3.4544222   -1.8388929 
C     1.5847774   -1.0026989   -3.1445728 
C    -2.4760054   -2.3648582   -1.0996475 
C     3.0525243    0.0635855   -0.9965749 
C    -1.1063849   -4.2923365   -1.6820353 
C     2.7603725   -0.2699073   -3.3890468 
C    -3.2455696    0.6464501   -0.9595904 
C    -0.7898220    1.1282877   -2.2711569 
C     2.7041793   -0.5538998    2.0067042 
C     0.7605186   -2.4657955    1.2929439 
C    -2.3390865   -3.7407427   -1.3117008 
C     3.4870691    0.2521165   -2.3113757 
C    -4.0420093    1.2551998   -1.9049605 
C    -1.0167468    1.0402490   -3.6301022 
C     3.5839332   -1.4398521    2.5949449 
C    -0.4093187   -3.0032133    1.7907781 
C    -5.3779155    1.2296782   -1.3889324 
C    -0.1247473    1.9715405   -4.2483827 
C     4.5896233   -0.6471471    3.2319969 
C    -0.2237073   -4.4212831    1.8219446 
C    -5.3079189    0.6149036   -0.1651059 
C     0.5898421    2.5522480   -3.2271603 
C     4.2572282    0.6631399    2.9913061 
C     1.0434388   -4.6504021    1.3430893 
C     1.4543767   -5.2749267   -2.4464022 
C     1.2076483   -1.4170895   -5.4786788 
H    -3.4440252   -1.9497430   -0.8093873 
H     3.6237089    0.4868365   -0.1668088 
H    -1.0228612   -5.3694802   -1.8427524 
H     3.1127043   -0.1061823   -4.4098590 
H    -3.2066597   -4.3977018   -1.1908521 
H     4.4052454    0.8164444   -2.5047026 
H    -3.7040282    1.6847291   -2.8467274 
H    -1.7189317    0.3652391   -4.1188257 
H     3.5155814   -2.5260159    2.5550230 
H    -1.2983266   -2.4399648    2.0750364 
H    -6.2741570    1.6287835   -1.8639190 
H    -0.0224370    2.1836642   -5.3129483 
H     5.4472281   -1.0031323    3.8029367 
H    -0.9391924   -5.1746349    2.1510291 
H    -6.0437700    0.3653348    0.5980647 
H     1.3813851    3.2992314   -3.1934646 
H     4.6961962    1.6167797    3.2779309 
H     1.6372763   -5.5501264    1.1870893 
H     0.8319233   -5.6197209   -3.2935516 
H     2.5179133   -5.3769909   -2.7054403 
H     1.2322932   -5.8894084   -1.5530429 
H     1.2578271   -0.3565605   -5.7901569 
H     2.1887667   -1.8992109   -5.6469038 
H     0.4374063   -1.9361737   -6.0670317 
