91
Energy =
C     0.4523017    1.8800316    3.0220321 
C    -0.9309536    2.1821200    2.8216024 
C    -1.8994239    1.1506237    2.8335341 
H    -1.2153155    3.1842885    2.4747049 
Pd   -0.2987740    0.7363534    1.2848904 
P    -1.5524414   -0.2355828   -0.4335370 
P     1.7512032   -0.0305600    0.4832643 
H     0.7001701    1.0531856    3.7025851 
H    -1.6171721    0.1978331    3.3102011 
C     3.6469250    4.6875411    2.3439618 
C     3.7396251    3.7374701    3.3707423 
C     2.6927333    2.8335110    3.5896442 
C     1.5326229    2.8624202    2.7877819 
C     1.4522409    3.8269244    1.7555534 
C     2.4969710    4.7293229    1.5370564 
H     4.4667366    5.3917795    2.1688228 
H     4.6317815    3.6968275    4.0041052 
H     2.7706288    2.0965116    4.3950561 
H     0.5733850    3.8461406    1.0999980 
H     2.4217158    5.4635762    0.7281225 
C    -6.0906903    1.5273050    1.9796673 
C    -5.3420981    2.6751043    2.2826744 
C    -3.9755065    2.5714163    2.5676734 
C    -3.3365834    1.3115539    2.5675710 
C    -4.1077617    0.1602673    2.2818149 
C    -5.4683362    0.2684372    1.9796625 
H    -7.1580295    1.6126698    1.7515571 
H    -5.8271144    3.6565784    2.3015636 
H    -3.4085815    3.4746392    2.8163234 
H    -3.6215275   -0.8215651    2.2775195 
H    -6.0462582   -0.6313906    1.7457078 
O     2.2321929   -2.0244479   -3.4263893 
O    -0.1600393   -3.8009912   -2.4724418 
O    -1.6930448   -2.4489490    1.1317657 
O    -4.1125110   -0.0368637   -1.4188604 
O     3.5410624    0.3238430   -1.5701173 
O     2.8675471   -0.3747954    2.9494211 
C     0.4388655   -1.1830942   -2.1719506 
C     0.8371868   -2.1677826   -1.1188056 
C    -0.6598572   -0.3080222   -2.0414302 
C     1.5478262   -1.8098467    0.0478131 
C     1.1961439   -1.1508582   -3.3738005 
C     0.5366440   -3.5387436   -1.3376847 
C    -0.9872620    0.5999634   -3.0676735 
C     1.9515116   -2.7909906    0.9761963 
C     0.8649396   -0.2482183   -4.4016862 
C     0.9389787   -4.5173144   -0.4098901 
C    -2.0745399   -1.9286244   -0.0888313 
C    -3.0797161    0.6466198   -0.8188789 
C     2.4184146    0.8273886   -0.9499572 
C     3.1339689    0.0153378    1.6527966 
C    -0.2218524    0.6196483   -4.2384549 
C     1.6498121   -4.1344277    0.7344277 
C    -2.7781271   -2.8785313   -0.7986925 
C    -3.4202742    1.9774270   -0.6889150 
C     2.0011297    1.9710751   -1.5988360 
C     4.4643259    0.3559000    1.5361381 
C    -2.8292482   -4.0447984    0.0278287 
C    -4.7348721    2.1171161   -1.2350057 
C     2.9150710    2.1807032   -2.6784704 
C     5.0492730    0.1584193    2.8284648 
C    -2.1515241   -3.7288682    1.1816452 
C    -5.1058654    0.8637904   -1.6574537 
C     3.8256659    1.1536397   -2.6125977 
C     4.0415020   -0.2897081    3.6439205 
C     3.0420493   -2.0743987   -4.5983903 
C    -0.4840808   -5.1533910   -2.7908185 
H    -1.8357011    1.2807196   -2.9522847 
H     2.4923201   -2.5084966    1.8821153 
H     1.4485718   -0.2162146   -5.3244128 
H     0.7074369   -5.5717007   -0.5761787 
H    -0.4761258    1.3186620   -5.0420268 
H     1.9696034   -4.8994486    1.4495728 
H    -3.1970177   -2.7446977   -1.7948969 
H    -2.8000239    2.7540560   -0.2415531 
H     1.1323675    2.5719477   -1.3325924 
H     4.9582938    0.6951620    0.6270702 
H    -3.3103860   -4.9966248   -0.1991833 
H    -5.3350772    3.0249442   -1.2895507 
H     2.8974616    2.9857833   -3.4128324 
H     6.0875457    0.3275851    3.1141787 
H    -1.9169488   -4.2796222    2.0912317 
H    -6.0062009    0.4626160   -2.1209338 
H     4.7022182    0.8869773   -3.2016742 
H     3.9912324   -0.5777319    4.6930574 
H     3.5422136   -1.1042203   -4.7815987 
H     3.8003627   -2.8465395   -4.4050766 
H     2.4465067   -2.3546939   -5.4876210 
H    -1.1312562   -5.6018365   -2.0136462 
H    -1.0297520   -5.1129703   -3.7444407 
H     0.4285855   -5.7661951   -2.9129654 
