91
Energy =
C     0.2241691    2.1363172    2.9214359 
C    -0.9302000    2.6484382    2.2759702 
C    -2.1667467    1.9457004    2.3512728 
H    -0.8407990    3.5081692    1.5989522 
Pd   -0.5753700    0.6797965    1.3949479 
P    -1.7592614   -0.6917874   -0.0789577 
P     1.5078210   -0.1628132    0.7069905 
H     0.0598290    1.4661123    3.7793923 
H    -2.3384120    1.3267417    3.2451785 
C     4.1434574    3.9004258    2.8181102 
C     3.7178861    3.1669107    3.9344308 
C     2.4428744    2.5888019    3.9504513 
C     1.5646410    2.7469321    2.8569012 
C     2.0032858    3.4947167    1.7397274 
C     3.2809884    4.0597972    1.7194984 
H     5.1433805    4.3462348    2.8008854 
H     4.3836105    3.0365372    4.7936689 
H     2.1185217    2.0090866    4.8213347 
H     1.3493583    3.6045092    0.8699718 
H     3.6099706    4.6248495    0.8410920 
C    -5.7280407    3.2635971    0.3343776 
C    -4.4964763    3.2814490   -0.3414004 
C    -3.3324517    2.8582860    0.3083842 
C    -3.3811775    2.3938861    1.6416732 
C    -4.6262353    2.3692602    2.3060935 
C    -5.7869724    2.8139518    1.6623622 
H    -6.6383671    3.5953991   -0.1752837 
H    -4.4474140    3.6205622   -1.3814692 
H    -2.3763864    2.8512835   -0.2291925 
H    -4.6786054    2.0045130    3.3378082 
H    -6.7433961    2.8023650    2.1957367 
O     2.1012332   -1.3002127   -3.4565434 
O     0.1352434   -3.6142572   -2.8440145 
O    -2.2238404   -3.3381240   -0.5936817 
O    -4.3363777   -0.3212710    0.6516378 
O     1.5335494    1.9486719   -1.0229505 
O     2.3339446   -0.6840007    3.2257605 
C     0.2606014   -1.0322337   -2.0281037 
C     0.8774272   -2.1166916   -1.2019246 
C    -0.9501947   -0.3838284   -1.7008585 
C     1.5623876   -1.8629764    0.0064522 
C     0.9410459   -0.6400695   -3.2142040 
C     0.8135388   -3.4515004   -1.6813788 
C    -1.4477679    0.6620654   -2.5092192 
C     2.1611272   -2.9099178    0.7327917 
C     0.4260196    0.3797070   -4.0349180 
C     1.4144195   -4.4978914   -0.9561127 
C    -1.6673277   -2.4543100    0.3020755 
C    -3.5206545   -0.4951883   -0.4408870 
C     2.2502904    0.8550010   -0.5903512 
C     2.7606619   -0.1810264    2.0137003 
C    -0.7635798    1.0241936   -3.6721058 
C     2.0846660   -4.2174719    0.2407642 
C    -1.2257775   -3.1365588    1.4178895 
C    -4.2928048   -0.6458278   -1.5764997 
C     3.4110260    0.7417489   -1.3282279 
C     4.0958259    0.1488469    2.0932841 
C    -1.5138698   -4.5183900    1.1865689 
C    -5.6551426   -0.5400131   -1.1543532 
C     3.4131756    1.8352552   -2.2506264 
C     4.5154757   -0.1771458    3.4231656 
C    -2.1172092   -4.5804707   -0.0466728 
C    -5.6208355   -0.3448829    0.2047654 
C     2.2478433    2.5284125   -2.0246098 
C     3.4117547   -0.6791395    4.0648476 
C     2.8263750   -1.0157622   -4.6519703 
C    -0.0104049   -4.9248134   -3.3863633 
H    -2.3651625    1.1856587   -2.2278483 
H     2.6809380   -2.7077272    1.6725727 
H     0.9489906    0.6791414   -4.9457724 
H     1.3624381   -5.5274547   -1.3172942 
H    -1.1571630    1.8244744   -4.3075106 
H     2.5526282   -5.0355774    0.7979809 
H    -0.7421853   -2.6922848    2.2881674 
H    -3.9222815   -0.8231380   -2.5856568 
H     4.1539900   -0.0499267   -1.2338279 
H     4.6963191    0.5900375    1.2991726 
H    -1.3023587   -5.3576851    1.8489008 
H    -6.5462174   -0.6008609   -1.7793630 
H     4.1775630    2.0764968   -2.9897909 
H     5.5087190   -0.0416488    3.8512513 
H    -2.5232760   -5.3957970   -0.6440608 
H    -6.3865066   -0.1949146    0.9636316 
H     1.7979263    3.4112837   -2.4759126 
H     3.2290307   -1.0534274    5.0711231 
H     2.2168020   -1.2297962   -5.5496483 
H     3.1628557    0.0378547   -4.6739598 
H     3.7018373   -1.6806256   -4.6349981 
H    -0.5503103   -5.5894008   -2.6852428 
H    -0.6013975   -4.8042550   -4.3054372 
H     0.9714930   -5.3703837   -3.6339471 
