91
Energy =
C     0.5980445    1.8821378    2.9914657 
C    -0.7757631    2.2396152    2.8192534 
C    -1.7847434    1.2484446    2.8633036 
H    -1.0262604    3.2498737    2.4697859 
Pd   -0.2382492    0.7578543    1.2812536 
P    -1.5726565   -0.1859657   -0.3923774 
P     1.7611559   -0.0820071    0.4297804 
H     0.8266188    1.0510814    3.6737942 
H    -1.5296590    0.2895642    3.3430289 
C     3.8860869    4.5578731    2.2322043 
C     3.9529104    3.6265795    3.2780244 
C     2.8763222    2.7651041    3.5230295 
C     1.7119153    2.8193212    2.7289393 
C     1.6575616    3.7647502    1.6777560 
C     2.7321275    4.6243320    1.4327593 
H     4.7291654    5.2284518    2.0365914 
H     4.8480444    3.5671783    3.9056653 
H     2.9341312    2.0422027    4.3428457 
H     0.7744046    3.8011690    1.0287127 
H     2.6769375    5.3436957    0.6089721 
C    -5.9784524    1.7832397    2.1115857 
C    -5.1767217    2.9036717    2.3789285 
C    -3.8082558    2.7486914    2.6294846 
C    -3.2203618    1.4642227    2.6302246 
C    -4.0442227    0.3414902    2.3798613 
C    -5.4069991    0.5004783    2.1121101 
H    -7.0472773    1.9086331    1.9104831 
H    -5.6214861    3.9040609    2.3970617 
H    -3.1994376    3.6315384    2.8507660 
H    -3.5978863   -0.6591322    2.3762858 
H    -6.0263323   -0.3781957    1.9054198 
O     2.0636904   -2.1462630   -3.4602061 
O    -0.3627960   -3.8252337   -2.4125274 
O    -1.7420234   -2.3701886    1.2098792 
O    -4.1519626    0.0901980   -1.3061087 
O     3.4978754    0.1921471   -1.6808772 
O     2.9492589   -0.4383049    2.8610539 
C     0.3350261   -1.2266196   -2.1704314 
C     0.7299547   -2.2088206   -1.1136487 
C    -0.7300723   -0.3134484   -2.0236465 
C     1.4872968   -1.8593914    0.0259267 
C     1.0587745   -1.2380126   -3.3931800 
C     0.3762004   -3.5714650   -1.3028543 
C    -1.0565066    0.5889281   -3.0551370 
C     1.8854729   -2.8409981    0.9561928 
C     0.7283732   -0.3408082   -4.4260988 
C     0.7728018   -4.5504181   -0.3730090 
C    -2.1431647   -1.8542515   -0.0063760 
C    -3.0779194    0.7450107   -0.7480334 
C     2.4090212    0.7362444   -1.0354061 
C     3.1818263   -0.0621791    1.5538439 
C    -0.3242864    0.5651364   -4.2468863 
C     1.5310487   -4.1764774    0.7434577 
C    -2.8993004   -2.7897496   -0.6804831 
C    -3.3657271    2.0895042   -0.6321599 
C     2.0054315    1.8826580   -1.6881647 
C     4.5146594    0.2491693    1.3920711 
C    -2.9637493   -3.9420683    0.1644077 
C    -4.6896641    2.2684995   -1.1430475 
C     2.8923701    2.0510776   -2.7971096 
C     5.1368111    0.0468204    2.6661323 
C    -2.2409809   -3.6331340    1.2924940 
C    -5.1183509    1.0228178   -1.5322358 
C     3.7749412    0.9991577   -2.7431383 
C     4.1467354   -0.3747031    3.5165536 
C     2.8404536   -2.2386850   -4.6518587 
C    -0.7413526   -5.1700496   -2.7015145 
H    -1.8784404    1.2993228   -2.9273613 
H     2.4625907   -2.5647622    1.8413657 
H     1.2860526   -0.3427351   -5.3652864 
H     0.5002623   -5.5983285   -0.5164963 
H    -0.5777419    1.2601728   -5.0541575 
H     1.8463809   -4.9421050    1.4599338 
H    -3.3438088   -2.6557553   -1.6655115 
H    -2.7047338    2.8500479   -0.2166651 
H     1.1621581    2.5115709   -1.4054328 
H     4.9862579    0.5721515    0.4654061 
H    -3.4828958   -4.8802406   -0.0339015 
H    -5.2576361    3.1968726   -1.1967300 
H     2.8757887    2.8461260   -3.5423408 
H     6.1870942    0.1957370    2.9170661 
H    -1.9972806   -4.1788950    2.2026906 
H    -6.0459804    0.6475341   -1.9623752 
H     4.6257944    0.6994572   -3.3536250 
H     4.1244041   -0.6555711    4.5685806 
H     2.2132611   -2.5126442   -5.5210800 
H     3.3657329   -1.2875721   -4.8625353 
H     3.5789897   -3.0316818   -4.4665384 
H    -1.3794771   -5.5857717   -1.8990928 
H    -1.3138550   -5.1240241   -3.6390182 
H     0.1462542   -5.8149599   -2.8417684 
