91
Energy =
C    -1.8952808    2.3761028    1.9108206 
C    -0.7183460    2.2460693    2.6934407 
C     0.4798299    2.9151511    2.3210656 
H    -0.6846917    1.5125276    3.5089295 
Pd   -0.1942991    1.5006926    0.6998732 
P     1.7755757    0.6408086   -0.2171678 
P    -1.5677138    0.1905878   -0.6828477 
H    -1.9891046    3.2857921    1.2981544 
H     0.3769080    3.8410695    1.7342472 
C    -5.6122750    0.2906430    2.4912197 
C    -4.4443333   -0.1886854    3.1077634 
C    -3.2317057    0.4855783    2.9422958 
C    -3.1577108    1.6549334    2.1504211 
C    -4.3456581    2.1366318    1.5544457 
C    -5.5597062    1.4611053    1.7205360 
H    -6.5594300   -0.2435653    2.6187008 
H    -4.4792094   -1.0986265    3.7152618 
H    -2.3287630    0.0850731    3.4112905 
H    -4.3114078    3.0495834    0.9521583 
H    -6.4661930    1.8516970    1.2470389 
C     4.1589725    2.5625554    4.5149054 
C     3.3636694    1.4241057    4.3001788 
C     2.1641575    1.5290820    3.5894383 
C     1.7447457    2.7726849    3.0657010 
C     2.5604821    3.9058547    3.2739184 
C     3.7495235    3.8042920    4.0055864 
H     5.0968170    2.4788316    5.0734481 
H     3.6862500    0.4506888    4.6839958 
H     1.5575620    0.6345360    3.4052252 
H     2.2509441    4.8743986    2.8659845 
H     4.3634903    4.6956029    4.1727413 
O    -0.3779823   -3.8883051   -1.4571975 
O     1.8837932   -2.6378069   -3.2207727 
O     3.1150662    0.3315575   -2.5801593 
O     3.7032921    2.2595548    0.7743417 
O    -1.4899654   -1.5008270    1.4394008 
O    -4.2307282    0.3496676   -1.3880772 
C     0.7367418   -1.9081765   -0.8802177 
C     0.2153494   -1.3688726   -2.1742600 
C     1.5353094   -1.1689957    0.0201154 
C    -0.8856835   -0.4898796   -2.2508842 
C     0.4097596   -3.2538765   -0.5543525 
C     0.8282636   -1.8020173   -3.3794082 
C     1.9737924   -1.7480931    1.2314336 
C    -1.3652978   -0.0395725   -3.4958051 
C     0.8771023   -3.8378428    0.6375030 
C     0.3462418   -1.3544023   -4.6240658 
C     2.0587448    0.9683258   -1.9703473 
C     3.4185400    0.9485129    0.4739922 
C    -2.1358539   -1.2515986    0.2470250 
C    -3.0659722    1.0545426   -1.2081075 
C     1.6551191   -3.0777290    1.5199727 
C    -0.7478018   -0.4821248   -4.6706814 
C     1.4721191    1.8491518   -2.8562696 
C     4.5569217    0.1804151    0.6259840 
C    -3.0562551   -2.2487414    0.0017964 
C    -3.2569679    2.3677098   -1.5887667 
C     2.1996228    1.7351799   -4.0824698 
C     5.5886327    1.0704578    1.0593618 
C    -2.9776437   -3.1518728    1.1080011 
C    -4.6191558    2.4741142   -2.0162730 
C     3.1821169    0.8013281   -3.8563707 
C     5.0143354    2.3163997    1.1313307 
C    -2.0075832   -2.6511749    1.9440662 
C    -5.1629135    1.2214657   -1.8637657 
C    -0.7616270   -5.2415704   -1.2167368 
C     2.5807981   -3.1047214   -4.3736060 
H     2.5637362   -1.1605983    1.9396249 
H    -2.2114583    0.6508213   -3.5471986 
H     0.6334355   -4.8737712    0.8836212 
H     0.8174712   -1.6803923   -5.5540129 
H     2.0123569   -3.5321400    2.4500912 
H    -1.1212498   -0.1412268   -5.6418333 
H     0.6147409    2.4889101   -2.6474799 
H     4.6386705   -0.8891664    0.4345670 
H    -3.7069821   -2.3128920   -0.8688744 
H    -2.5064705    3.1586283   -1.5570948 
H     2.0188643    2.2756230   -5.0114796 
H     6.6244883    0.8190885    1.2878153 
H    -3.5667553   -4.0556738    1.2662781 
H    -5.1324949    3.3646630   -2.3790457 
H     3.9810938    0.3879964   -4.4705925 
H     5.3813270    3.2992831    1.4205676 
H    -1.5865665   -2.9823679    2.8918130 
H    -6.1546530    0.8054088   -2.0355461 
H    -1.3471623   -5.3278883   -0.2822347 
H    -1.3898435   -5.5291264   -2.0718252 
H     0.1212869   -5.9060444   -1.1671932 
H     1.9184143   -3.6965091   -5.0330888 
H     3.0147092   -2.2629645   -4.9464539 
H     3.3897108   -3.7456454   -3.9949261 
