91
Energy =
C    -1.9317264    2.3250375    1.9301234 
C    -0.7650350    2.1882566    2.7272543 
C     0.4333256    2.8721959    2.3847746 
H    -0.7379708    1.4399008    3.5293680 
Pd   -0.2104918    1.4830643    0.7273601 
P     1.7763505    0.6463303   -0.1750833 
P    -1.5581003    0.2009430   -0.7057463 
H    -2.0234983    3.2459021    1.3340753 
H     0.3322183    3.8070780    1.8120192 
C    -5.6421143    0.2045123    2.4203379 
C    -4.4807076   -0.2750823    3.0488833 
C    -3.2704752    0.4098658    2.9122665 
C    -3.1924328    1.5911098    2.1386314 
C    -4.3743570    2.0729389    1.5308353 
C    -5.5857906    1.3861755    1.6672605 
H    -6.5872254   -0.3381927    2.5250528 
H    -4.5188345   -1.1934357    3.6433883 
H    -2.3722722    0.0089507    3.3900042 
H    -4.3374369    2.9949427    0.9426973 
H    -6.4873634    1.7769907    1.1846525 
C     4.0855217    2.5086011    4.6209062 
C     3.2994568    1.3688568    4.3802994 
C     2.1089521    1.4769132    3.6550858 
C     1.6894173    2.7253490    3.1429231 
C     2.4964638    3.8598391    3.3765855 
C     3.6763537    3.7548006    4.1224063 
H     5.0161859    2.4223788    5.1909579 
H     3.6222689    0.3921595    4.7554515 
H     1.5100287    0.5815921    3.4507231 
H     2.1869178    4.8321066    2.9776331 
H     4.2834278    4.6469399    4.3091231 
O    -0.3477956   -3.8599173   -1.5435052 
O     1.9411856   -2.5695473   -3.2426651 
O     3.1564757    0.3878946   -2.5207571 
O     3.6877307    2.2467336    0.8749555 
O    -1.5142936   -1.5356691    1.3801512 
O    -4.2069672    0.3757769   -1.4588631 
C     0.7529015   -1.8901998   -0.9070574 
C     0.2528353   -1.3252580   -2.1985227 
C     1.5336527   -1.1679694    0.0221241 
C    -0.8484982   -0.4467011   -2.2755489 
C     0.4222136   -3.2425174   -0.6139511 
C     0.8869886   -1.7321598   -3.4018135 
C     1.9501641   -1.7701542    1.2299752 
C    -1.3078704    0.0286495   -3.5187986 
C     0.8684446   -3.8493219    0.5745478 
C     0.4253764   -1.2593318   -4.6448775 
C     2.0884928    1.0101228   -1.9160702 
C     3.4073021    0.9406065    0.5496528 
C    -2.1426886   -1.2596655    0.1843948 
C    -3.0465794    1.0765984   -1.2389958 
C     1.6283302   -3.1055799    1.4862959 
C    -0.6695655   -0.3881946   -4.6919610 
C     1.5149897    1.9077100   -2.7937096 
C     4.5421139    0.1690881    0.7105719 
C    -3.0610417   -2.2495772   -0.0953793 
C    -3.2317098    2.3988087   -1.5899933 
C     2.2632910    1.8200411   -4.0095298 
C     5.5666728    1.0513678    1.1756434 
C    -2.9993084   -3.1766624    0.9919763 
C    -4.5858445    2.5152842   -2.0399837 
C     3.2440289    0.8837831   -3.7857732 
C     4.9923606    2.2968031    1.2556746 
C    -2.0404905   -2.6958490    1.8522686 
C    -5.1310479    1.2588517   -1.9295648 
C    -0.7354703   -5.2174388   -1.3358155 
C     2.6586175   -3.0111259   -4.3929206 
H     2.5254095   -1.1958273    1.9606888 
H    -2.1543317    0.7186721   -3.5702304 
H     0.6221362   -4.8902539    0.7955979 
H     0.9131006   -1.5648749   -5.5732512 
H     1.9686900   -3.5776819    2.4139406 
H    -1.0271488   -0.0277132   -5.6620107 
H     0.6527774    2.5414516   -2.5865707 
H     4.6265557   -0.8976029    0.5047790 
H    -3.6996848   -2.2936168   -0.9762016 
H    -2.4826230    3.1889722   -1.5246481 
H     2.0968947    2.3788380   -4.9303224 
H     6.5979518    0.7953323    1.4191024 
H    -3.5919922   -4.0825784    1.1223696 
H    -5.0932238    3.4144106   -2.3897401 
H     4.0545035    0.4850048   -4.3945299 
H     5.3552526    3.2750046    1.5652254 
H    -1.6335308   -3.0482117    2.7985040 
H    -6.1189550    0.8467384   -2.1304960 
H    -1.3478894   -5.4886552   -2.2075372 
H     0.1464982   -5.8829033   -1.2827177 
H    -1.3379739   -5.3213307   -0.4139737 
H     3.1008021   -2.1569085   -4.9404457 
H     3.4620748   -3.6587390   -4.0140017 
H     2.0086536   -3.5898271   -5.0759561 
