91
Energy =
C     0.0837728    0.5153463    3.3242547 
C    -1.2731757    0.0925362    3.3673044 
C    -1.6242230   -1.1905961    2.8665929 
H    -2.0595926    0.8014909    3.6533175 
Pd   -0.6635105    0.0462322    1.2562973 
P    -1.3342758   -1.1004527   -0.6485953 
P     0.9679268    1.3106503    0.1488707 
H     0.8495065   -0.2729257    3.3135495 
H    -0.8202279   -1.9429081    2.8475090 
C     1.5912694    4.3364741    4.5934515 
C     0.2366641    4.2076013    4.2434464 
C    -0.2661452    2.9786457    3.8080691 
C     0.5744181    1.8438733    3.7279080 
C     1.9394164    1.9929542    4.0634370 
C     2.4424065    3.2264673    4.4943006 
H     1.9808732    5.3009695    4.9350105 
H    -0.4287722    5.0747320    4.3041889 
H    -1.3190447    2.9018778    3.5173783 
H     2.6048225    1.1263255    3.9925981 
H     3.5006176    3.3192890    4.7601315 
C    -5.5428657   -2.9414370    2.7403341 
C    -4.3941047   -3.7432614    2.6590430 
C    -3.1262031   -3.1526344    2.6861297 
C    -2.9815953   -1.7509037    2.8009562 
C    -4.1478015   -0.9541053    2.8591457 
C    -5.4139380   -1.5449653    2.8333974 
H    -6.5366174   -3.4012504    2.7263370 
H    -4.4866563   -4.8307403    2.5761176 
H    -2.2305864   -3.7814082    2.6295871 
H    -4.0648994    0.1365079    2.9120225 
H    -6.3079403   -0.9148793    2.8851184 
O     1.0264498   -1.1149130   -4.3779867 
O     3.5112557   -1.0381798   -2.4293291 
O     2.7375801   -0.2148669    1.5749944 
O    -0.2719066    3.6795235    0.5303078 
O    -3.8154509   -2.0521066   -0.3017491 
O    -2.1077855   -0.7777667   -3.2540977 
C     1.0748850    0.1040172   -2.3790682 
C     1.2930397   -1.2036150   -1.6844437 
C     1.0166133    1.3355224   -1.6905667 
C     0.2828046   -1.9066049   -0.9918309 
C     0.9773883    0.1077851   -3.7945982 
C     2.5995277   -1.7637159   -1.7335749 
C     0.8721634    2.5481861   -2.3910111 
C     0.5794711   -3.1117476   -0.3161188 
C     0.8284794    1.3208652   -4.4943223 
C     2.8865799   -2.9758613   -1.0795195 
C     2.6261119    0.7321697    0.5789780 
C     0.9583690    3.0588562    0.6075766 
C    -2.5472143   -2.4434360   -0.6665653 
C    -1.8824223   -0.1272651   -2.0619524 
C     0.7862561    2.5285634   -3.7876077 
C     1.8732910   -3.6370302   -0.3730505 
C     3.8703681    0.9768202    0.0347301 
C     1.9186228    3.9736616    0.9798034 
C    -2.5817747   -3.7411254   -1.1397920 
C    -2.2534914    1.1976355   -2.1743919 
C     4.7955239    0.1487509    0.7455178 
C     1.2438379    5.2272694    1.1336477 
C    -3.9448468   -4.1663731   -1.0499713 
C    -2.7164086    1.3736130   -3.5160491 
C     4.0524160   -0.5558162    1.6623098 
C    -0.0774697    4.9927264    0.8468322 
C    -4.6470446   -3.1012959   -0.5406652 
C    -2.6049680    0.1452568   -4.1225694 
C     0.8785173   -1.2169285   -5.7926124 
C     4.8367910   -1.5455978   -2.5774948 
H     0.8244610    3.4977032   -1.8520855 
H    -0.1947505   -3.6244743    0.2618635 
H     0.7483331    1.3293489   -5.5837166 
H     3.8908883   -3.4037898   -1.1133464 
H     0.6779695    3.4686889   -4.3382217 
H     2.1019141   -4.5756482    0.1424216 
H     4.0803571    1.6539245   -0.7929957 
H     2.9768711    3.7637257    1.1295222 
H    -1.7367312   -4.3074477   -1.5299178 
H    -2.1815864    1.9496770   -1.3878882 
H     5.8737732    0.0824318    0.5978125 
H     1.6835270    6.1787638    1.4324802 
H    -4.3520271   -5.1370097   -1.3336092 
H    -3.0848471    2.2918317   -3.9731702 
H     4.2980354   -1.3042059    2.4145387 
H    -0.9681661    5.6192056    0.8329508 
H    -5.6931101   -2.9391167   -0.2884877 
H    -2.8376742   -0.2230428   -5.1209950 
H     0.9278094   -2.2909522   -6.0217166 
H    -0.0983986   -0.8140644   -6.1213799 
H     1.6929321   -0.6883571   -6.3230289 
H     4.8351374   -2.5213912   -3.0979473 
H     5.3727995   -0.8046106   -3.1877088 
H     5.3374052   -1.6476723   -1.5963422 
