91
Energy =
C     0.0485342    0.6466978    3.3315811 
C    -1.2717139    0.1270199    3.3885437 
C    -1.5451019   -1.1709260    2.8803691 
H    -2.1033280    0.7749897    3.6894204 
Pd   -0.6895970    0.1352279    1.2567279 
P    -1.3160302   -1.0738948   -0.6290818 
P     0.9612629    1.3606572    0.1244238 
H     0.8681054   -0.0824887    3.2607259 
H    -0.6922585   -1.8654179    2.8291414 
C     1.3651157    4.5740602    4.4831606 
C     0.0022190    4.2491952    4.5747504 
C    -0.4476317    2.9777119    4.2028313 
C     0.4609828    1.9977780    3.7428423 
C     1.8320683    2.3386769    3.6603111 
C     2.2784527    3.6140065    4.0213233 
H     1.7128335    5.5711919    4.7717324 
H    -0.7145133    4.9919627    4.9403705 
H    -1.5150716    2.7473207    4.2810680 
H     2.5490546    1.5912453    3.3040340 
H     3.3428643    3.8582200    3.9452241 
C    -5.3337934   -3.1906900    2.8427718 
C    -4.1362198   -3.9050982    2.6856897 
C    -2.9127964   -3.2266733    2.6848101 
C    -2.8617783   -1.8224960    2.8438772 
C    -4.0776616   -1.1138430    2.9776178 
C    -5.2991732   -1.7925659    2.9822998 
H    -6.2924777   -3.7197363    2.8518255 
H    -4.1559084   -4.9928456    2.5663452 
H    -1.9784432   -3.7878700    2.5723413 
H    -4.0702674   -0.0227572    3.0689088 
H    -6.2319985   -1.2302742    3.0945305 
O     1.0228051   -1.1006936   -4.3843763 
O     3.5093887   -0.9916638   -2.4612101 
O     2.5682098   -0.4330921    1.4196333 
O     2.2779453    3.7572021    0.4062536 
O    -3.7751655   -2.0634564   -0.2198147 
O    -2.0796233   -0.8528512   -3.2449895 
C     1.0629272    0.1333830   -2.3940576 
C     1.3016090   -1.1663799   -1.6916950 
C     0.9819607    1.3681252   -1.7143717 
C     0.3055229   -1.8679165   -0.9771479 
C     0.9489118    0.1245470   -3.8087544 
C     2.6098245   -1.7213545   -1.7563674 
C     0.7850125    2.5701338   -2.4203472 
C     0.6167974   -3.0677495   -0.2991621 
C     0.7561485    1.3274742   -4.5147143 
C     2.9093726   -2.9317851   -1.1041528 
C     2.5686975    0.6463375    0.5582782 
C     1.0776580    3.1026560    0.5718818 
C    -2.5090476   -2.4355273   -0.6118816 
C    -1.8875531   -0.1568880   -2.0729500 
C     0.6812804    2.5380614   -3.8151928 
C     1.9095674   -3.5921945   -0.3782232 
C     3.8618801    0.9276299    0.1722516 
C     0.1176129    3.9960091    1.0005158 
C    -2.5369982   -3.7285717   -1.0983015 
C    -2.3173973    1.1452920   -2.2282127 
C     4.6999875   -0.0254355    0.8330752 
C     0.7644874    5.2673161    1.1075244 
C    -3.8924132   -4.1718123   -0.9869948 
C    -2.7832246    1.2595681   -3.5756760 
C     3.8626489   -0.8289346    1.5697308 
C     2.0722106    5.0617238    0.7406184 
C    -4.5978485   -3.1208672   -0.4531045 
C    -2.6141969    0.0195611   -4.1433399 
C     0.8657160   -1.2160163   -5.7967695 
C     4.8396436   -1.4855520   -2.6133573 
H     0.7085373    3.5203718   -1.8848845 
H    -0.1467564   -3.5799563    0.2932213 
H     0.6635982    1.3259310   -5.6031287 
H     3.9141433   -3.3570528   -1.1527533 
H     0.5347428    3.4701147   -4.3707250 
H     2.1484795   -4.5289315    0.1360953 
H     4.1607065    1.7234140   -0.5086844 
H    -0.9221238    3.7572275    1.2238928 
H    -1.6920880   -4.2795869   -1.5100357 
H    -2.2888885    1.9218048   -1.4638248 
H     5.7860352   -0.1040247    0.7747751 
H     0.3221584    6.2083290    1.4334642 
H    -4.2928810   -5.1449475   -1.2716440 
H    -3.1910360    2.1458275   -4.0615276 
H     4.0221280   -1.6851801    2.2232686 
H     2.9451101    5.7099284    0.6747161 
H    -5.6406016   -2.9753389   -0.1779578 
H    -2.8256757   -0.3896225   -5.1304266 
H     1.6617290   -0.6702278   -6.3375215 
H     0.9406369   -2.2899472   -6.0193608 
H    -0.1238584   -0.8403687   -6.1200594 
H     4.8465435   -2.4609218   -3.1347374 
H     5.3664203   -0.7385062   -3.2240810 
H     5.3428529   -1.5829988   -1.6331965 
