91
Energy =
C    -0.1826322    0.5918940    3.5444095 
C    -1.5686619    0.4397193    3.3036682 
C    -2.0862206   -0.7968908    2.8060585 
H    -2.2194171    1.3238562    3.3217297 
Pd   -0.5669629   -0.0226447    1.3974153 
P    -0.9752943   -1.4879153   -0.3676414 
P     1.0838055    1.1871738    0.2661025 
H     0.4156007   -0.3277890    3.6498342 
H    -1.5917004   -1.7235294    3.1301615 
C     1.8593885    4.1752177    4.7392894 
C     0.4666938    4.0911140    4.8908452 
C    -0.2157031    2.9296009    4.5104992 
C     0.4885206    1.8243535    3.9831827 
C     1.8948093    1.9145837    3.8559371 
C     2.5718210    3.0822917    4.2196062 
H     2.3892113    5.0873633    5.0321665 
H    -0.0906904    4.9340690    5.3123754 
H    -1.3005899    2.8745264    4.6485877 
H     2.4505748    1.0634859    3.4469357 
H     3.6584356    3.1399896    4.0998940 
C    -6.1075588   -1.3010023    1.3494137 
C    -5.4601779   -2.3430691    2.0280083 
C    -4.1551369   -2.1685145    2.5050100 
C    -3.4730322   -0.9485980    2.3149851 
C    -4.1387870    0.0948650    1.6293732 
C    -5.4410199   -0.0794695    1.1525738 
H    -7.1260083   -1.4380145    0.9717065 
H    -5.9713002   -3.2984249    2.1853011 
H    -3.6565720   -2.9854608    3.0359571 
H    -3.6150710    1.0400870    1.4431144 
H    -5.9378438    0.7355185    0.6158016 
O     0.7897153   -0.9969426   -4.3838730 
O     3.4858721   -0.6749806   -2.8256851 
O     2.8535786   -0.6079984    1.2709294 
O     2.4058162    3.5770363    0.5916199 
O    -1.5306488   -3.6439800    1.2108817 
O    -2.0595407   -1.5836378   -2.8897952 
C     0.9513605    0.1136170   -2.3251050 
C     1.4539023   -1.1826482   -1.7732871 
C     0.8112158    1.2848493   -1.5514659 
C     0.6579002   -2.0587361   -1.0031674 
C     0.6255933    0.1668754   -3.7071701 
C     2.7804921   -1.5754582   -2.0953344 
C     0.3338297    2.4788733   -2.1270016 
C     1.1673768   -3.2973477   -0.5628091 
C     0.1555902    1.3618480   -4.2836056 
C     3.2886195   -2.8113984   -1.6542112 
C     2.7457472    0.5149410    0.4748617 
C     1.2162089    2.9120956    0.7827018 
C    -1.8823863   -3.0020431    0.0410674 
C    -1.9185530   -0.8251991   -1.7482488 
C     0.0125477    2.5056356   -3.4883482 
C     2.4739535   -3.6640204   -0.8987138 
C     3.9885520    0.8582931   -0.0138141 
C     0.2789527    3.7817507    1.3016281 
C    -2.8903626   -3.7023677   -0.5859305 
C    -2.5773670    0.3769479   -1.9032932 
C     4.9079767   -0.1057825    0.5069164 
C     0.9300122    5.0478534    1.4398750 
C    -3.1688520   -4.8397448    0.2387064 
C    -3.1522771    0.3580108   -3.2124046 
C     4.1644144   -0.9721290    1.2731589 
C     2.2178627    4.8629408    0.9992269 
C    -2.3142996   -4.7593801    1.3085215 
C    -2.8068625   -0.8525038   -3.7634911 
C     0.4950374   -1.0393124   -5.7779189 
C     4.8174945   -0.9958806   -3.2247347 
H     0.2197988    3.3788670   -1.5158893 
H     0.5516562   -3.9672667    0.0414082 
H    -0.1004819    1.4055801   -5.3445644 
H     4.3091423   -3.1138440   -1.8993719 
H    -0.3516126    3.4330454   -3.9424846 
H     2.8694886   -4.6288107   -0.5646393 
H     4.2011465    1.6996597   -0.6716790 
H    -0.7492780    3.5308377    1.5619394 
H    -3.3620251   -3.4337711   -1.5298317 
H    -2.6233549    1.1762161   -1.1645140 
H     5.9846588   -0.1512304    0.3404295 
H     0.5043761    5.9704834    1.8334305 
H    -3.9103136   -5.6181948    0.0583689 
H    -3.7417025    1.1422275   -3.6870652 
H     4.4074554   -1.8581987    1.8575627 
H     3.0868398    5.5151022    0.9218898 
H    -2.1432722   -5.3809077    2.1863685 
H    -3.0124823   -1.3289411   -4.7211878 
H     1.1389683   -0.3426095   -6.3470643 
H     0.6995423   -2.0718080   -6.0952604 
H    -0.5678872   -0.7981501   -5.9701555 
H     5.1704962   -0.1329688   -3.8074377 
H     5.4732680   -1.1410542   -2.3455739 
H     4.8386199   -1.9027266   -3.8576671 
