91
Energy =
C    -0.8278495    1.2588829    3.4197503 
C    -2.0814991    1.1158013    2.7805410 
C    -2.5659368   -0.1762595    2.4169301 
H    -2.5990137    2.0093551    2.4097425 
Pd   -0.6069749    0.1885286    1.4215581 
P    -0.8545572   -1.5181999   -0.1537744 
P     1.3787967    1.0003794    0.4926517 
H    -0.4033983    0.3599224    3.8959069 
H    -2.2759967   -1.0191250    3.0607061 
C     1.0012442    4.8968821    4.7824795 
C    -0.3417095    4.9083637    4.3721926 
C    -0.9450603    3.7369756    3.9027337 
C    -0.2188049    2.5251964    3.8514628 
C     1.1312457    2.5269850    4.2735938 
C     1.7375170    3.7024477    4.7256441 
H     1.4714911    5.8148696    5.1497777 
H    -0.9243580    5.8338943    4.4277640 
H    -1.9984380    3.7589176    3.6062056 
H     1.7077688    1.5959668    4.2312441 
H     2.7864428    3.6888350    5.0378359 
C    -5.9828460   -0.9615084   -0.0794867 
C    -5.3062144    0.2648274   -0.1894171 
C    -4.2043441    0.5381315    0.6256800 
C    -3.7557653   -0.4100495    1.5745025 
C    -4.4533116   -1.6344303    1.6821932 
C    -5.5541306   -1.9082310    0.8621039 
H    -6.8402175   -1.1756755   -0.7257898 
H    -5.6331592    1.0061820   -0.9257688 
H    -3.6600753    1.4791204    0.4963453 
H    -4.1233246   -2.3784541    2.4139123 
H    -6.0784653   -2.8644185    0.9602727 
O     0.6134109   -1.0622105   -4.1838900 
O     3.4586687   -0.9941798   -2.8916446 
O     4.0001237    0.2872121    0.0514248 
O     1.0046836    3.6143804    1.1619739 
O    -2.5476264   -3.6922649   -0.3035912 
O    -2.1079884    0.3579202   -1.6516567 
C     1.0562987   -0.0222723   -2.1300651 
C     1.4999894   -1.3704454   -1.6589516 
C     1.0826973    1.1364543   -1.3239352 
C     0.7115108   -2.2026136   -0.8373044 
C     0.6379937    0.0993429   -3.4829295 
C     2.7634165   -1.8478942   -2.1002396 
C     0.7122752    2.3898785   -1.8522585 
C     1.1731211   -3.4727619   -0.4392788 
C     0.2736873    1.3521590   -4.0102428 
C     3.2222421   -3.1192205   -1.7069145 
C     2.8444143   -0.0190512    0.7356960 
C     1.9632283    2.6391914    0.9866517 
C    -1.7122602   -2.9686243    0.5107168 
C    -1.8438885   -0.9921479   -1.5674790 
C     0.3228815    2.4872701   -3.1912436 
C     2.4234095   -3.9190994   -0.8807437 
C     3.0549862   -1.1298860    1.5272996 
C     3.2157867    3.1775328    1.2028802 
C    -1.6277446   -3.5823582    1.7449403 
C    -2.3795817   -1.6386492   -2.6622564 
C     4.4124406   -1.5281682    1.3168963 
C     3.0135456    4.5571753    1.5216278 
C    -2.4652497   -4.7419524    1.6831615 
C    -3.0105916   -0.6307204   -3.4562099 
C     4.9356464   -0.6347394    0.4138485 
C     1.6575014    4.7673627    1.4809827 
C    -3.0035968   -4.7526937    0.4192161 
C    -2.8078986    0.5591795   -2.7967996 
C     0.2061331   -1.0392184   -5.5509276 
C     4.7300286   -1.3927783   -3.3982644 
H     0.7248489    3.2818878   -1.2217723 
H     0.5579089   -4.1094579    0.2022307 
H    -0.0426636    1.4478449   -5.0512952 
H     4.1950801   -3.4880906   -2.0396891 
H     0.0470352    3.4621810   -3.6065934 
H     2.7830432   -4.9089475   -0.5811264 
H     2.3110963   -1.6080513    2.1645243 
H     4.1615995    2.6439676    1.1217493 
H    -1.0327935   -3.2391691    2.5921979 
H    -2.3222788   -2.7076429   -2.8609480 
H     4.9322717   -2.3715318    1.7709602 
H     3.7770081    5.2990746    1.7559886 
H    -2.6516232   -5.4677725    2.4747952 
H    -3.5493038   -0.7689833   -4.3940709 
H     5.9164134   -0.5168771   -0.0450810 
H     1.0228182    5.6326068    1.6617759 
H    -3.6999802   -5.4119213   -0.0972256 
H    -3.0850222    1.5912050   -3.0048838 
H    -0.8340362   -0.6755259   -5.6494724 
H     0.8805337   -0.4088513   -6.1604833 
H     0.2652024   -2.0810144   -5.8972048 
H     4.6456280   -2.2948212   -4.0331295 
H     5.0882821   -0.5484494   -4.0043079 
H     5.4461814   -1.5868825   -2.5769215 
