91
Energy =
C    -0.3793693    0.6065442    3.5078923 
C    -1.7518331    0.6221096    3.1644979 
C    -2.3736513   -0.5649815    2.6586279 
H    -2.2878548    1.5777499    3.1097257 
Pd   -0.6838913   -0.0103353    1.3554614 
P    -1.0451204   -1.4967418   -0.3948307 
P     1.0651099    1.1332440    0.3234800 
H     0.0718005   -0.3802002    3.6994180 
H    -2.0186867   -1.5301644    3.0466909 
C     2.0942907    3.8368512    4.8841480 
C     0.7359350    4.0741952    4.6181827 
C    -0.0852653    3.0414140    4.1562748 
C     0.4365568    1.7425699    3.9613432 
C     1.8071122    1.5175432    4.2324347 
C     2.6287068    2.5547571    4.6848905 
H     2.7321627    4.6489196    5.2480515 
H     0.3145427    5.0725419    4.7731902 
H    -1.1423032    3.2449214    3.9593697 
H     2.2243771    0.5173563    4.0748391 
H     3.6868098    2.3616291    4.8899471 
C    -6.2534634   -0.6887415    0.7948287 
C    -5.4962926    0.4947353    0.7533210 
C    -4.2407639    0.5491305    1.3649711 
C    -3.7141052   -0.5797665    2.0375859 
C    -4.4862034   -1.7606624    2.0704218 
C    -5.7430242   -1.8150752    1.4555966 
H    -7.2346382   -0.7306013    0.3108526 
H    -5.8859507    1.3758239    0.2326098 
H    -3.6463175    1.4678063    1.2966932 
H    -4.0945974   -2.6441679    2.5844466 
H    -6.3240807   -2.7423968    1.4918994 
O     0.9974556   -1.1609315   -4.2768481 
O     3.5941808   -0.8793691   -2.5659436 
O     2.8635969   -0.4877741    1.5532809 
O    -0.0745020    3.5337619    0.8609118 
O    -1.7903627   -3.5509484    1.2351740 
O    -1.9615596   -1.6319991   -2.9841166 
C     1.0591670    0.0018429   -2.2419961 
C     1.4861340   -1.2927002   -1.6251739 
C     0.9097760    1.1993308   -1.5093176 
C     0.6141510   -2.1267006   -0.8909879 
C     0.8279907    0.0263153   -3.6433870 
C     2.8182658   -1.7320336   -1.8481700 
C     0.5171320    2.3924045   -2.1478302 
C     1.0583946   -3.3622158   -0.3779848 
C     0.4394410    1.2193003   -4.2812244 
C     3.2624901   -2.9636626   -1.3325401 
C     2.7356573    0.5270483    0.6285965 
C     1.1360618    2.8695117    0.8343488 
C    -2.0202960   -2.9693775    0.0048740 
C    -1.8721802   -0.8496532   -1.8532573 
C     0.2865740    2.3896620   -3.5278610 
C     2.3764541   -3.7693657   -0.6062207 
C     3.9695215    0.8125861    0.0804201 
C     2.1475922    3.7376527    1.1821350 
C    -2.9972203   -3.6743987   -0.6647167 
C    -2.4851345    0.3659746   -2.0764177 
C     4.9049624   -0.0686926    0.7085001 
C     1.5289632    5.0065078    1.4231131 
C    -3.3842447   -4.7511447    0.1966718 
C    -2.9753694    0.3308008   -3.4192252 
C     4.1774877   -0.8364934    1.5869891 
C     0.1857339    4.8276989    1.2111552 
C    -2.6194976   -4.6331198    1.3296345 
C    -2.6301838   -0.9015029   -3.9200844 
C     0.7920251   -1.2337633   -5.6854943 
C     4.9276679   -1.2650702   -2.8950518 
H     0.3924176    3.3140771   -1.5748914 
H     0.3826340   -3.9978561    0.1990916 
H     0.2545185    1.2412267   -5.3575302 
H     4.2882619   -3.3002131   -1.4986429 
H    -0.0142064    3.3152819   -4.0294991 
H     2.7230592   -4.7309556   -0.2137184 
H     4.1658998    1.5484751   -0.6989948 
H     3.2050018    3.4880477    1.2597322 
H    -3.3793229   -3.4464588   -1.6586331 
H    -2.5576850    1.1818662   -1.3580020 
H     5.9795540   -0.1282691    0.5336051 
H     2.0200999    5.9308641    1.7270226 
H    -4.1346666   -5.5165773   -0.0017781 
H    -3.5117040    1.1185071   -3.9480293 
H     4.4363790   -1.6390906    2.2761277 
H    -0.6812753    5.4834999    1.2759149 
H    -2.5439562   -5.2067725    2.2523826 
H    -2.7882687   -1.3948892   -4.8782601 
H     1.4948983   -0.5751053   -6.2296688 
H     0.9807917   -2.2811150   -5.9611778 
H    -0.2473146   -0.9636518   -5.9532449 
H     5.3385549   -0.4388485   -3.4929058 
H     5.5410692   -1.4021954   -1.9845176 
H     4.9389422   -2.1953365   -3.4932000 
