91
Energy =
C    -0.4861399    0.4524421    3.5274456 
C    -1.8523106    0.2050385    3.1807848 
C    -2.2439394   -1.0423944    2.6436314 
H    -2.5608913    1.0431607    3.1554663 
Pd   -0.5982481   -0.1045622    1.3911882 
P    -1.2778875   -0.6316485   -0.7805113 
P     1.6133374    0.3725032    0.7997417 
H     0.0967901   -0.3893070    3.9276768 
H    -1.5626236   -1.8960397    2.7925041 
C     1.1410997    4.3421208    4.3995759 
C     1.7034508    3.1902236    4.9679801 
C     1.1566188    1.9307669    4.6936608 
C     0.0387922    1.7967280    3.8417167 
C    -0.5206493    2.9685237    3.2785306 
C     0.0230113    4.2257139    3.5564080 
H     1.5697143    5.3271532    4.6105981 
H     2.5718576    3.2704120    5.6300656 
H     1.6006890    1.0367003    5.1413763 
H    -1.3721719    2.8894008    2.5925674 
H    -0.4188879    5.1207820    3.1062037 
C    -6.1320004   -2.1064193    1.1684262 
C    -5.9984773   -1.0100553    2.0342559 
C    -4.7391289   -0.6516481    2.5294095 
C    -3.5919136   -1.3961918    2.1759477 
C    -3.7439092   -2.5133729    1.3211259 
C    -4.9996831   -2.8573486    0.8126651 
H    -7.1173944   -2.3799014    0.7776769 
H    -6.8814409   -0.4336076    2.3290838 
H    -4.6523220    0.1969434    3.2160822 
H    -2.8594432   -3.0954275    1.0386812 
H    -5.0969754   -3.7140427    0.1381630 
O     1.5162148   -1.9490781   -3.7955091 
O     2.9157532    0.8251469   -3.3800492 
O     3.6533434    1.3840959    2.3318734 
O     3.1149996    2.2611278   -0.4984618 
O    -0.3990842   -3.1593923   -0.3302801 
O    -3.6571653   -1.0631544   -2.0932328 
C     1.7226854   -0.9160037   -1.7021458 
C     0.9325524    0.2103711   -2.2898467 
C     2.2235640   -0.9099187   -0.3806770 
C    -0.4396452    0.4166943   -2.0383160 
C     2.0488276   -2.0089803   -2.5488149 
C     1.6033211    1.0972807   -3.1749481 
C     3.0427295   -1.9596798    0.0795861 
C    -1.1282445    1.4981494   -2.6225666 
C     2.8577300   -3.0618991   -2.0826377 
C     0.9143950    2.1748349   -3.7623163 
C     2.7756915    0.3388889    2.1950236 
C     1.8837652    1.9804707    0.0455011 
C    -0.9852921   -2.3416226   -1.2762711 
C    -3.0382147   -0.3637840   -1.0826655 
C     3.3575403   -3.0200482   -0.7756994 
C    -0.4433314    2.3671239   -3.4785368 
C     2.9782070   -0.5693393    3.2173058 
C     1.0450855    3.0658771   -0.1064505 
C    -1.1964379   -3.0537897   -2.4379603 
C    -3.9369789    0.5136404   -0.5111163 
C     4.0508036   -0.0540621    4.0131842 
C     1.8060168    4.0702020   -0.7811571 
C    -0.7110102   -4.3770531   -2.1950110 
C    -5.1747245    0.3408495   -1.2067468 
C     4.4134322    1.1375684    3.4333482 
C     3.0514309    3.5263807   -0.9918275 
C    -0.2351812   -4.3814853   -0.9051101 
C    -4.9472588   -0.6306757   -2.1508130 
C     1.8187562   -2.9838239   -4.7299655 
C     3.6696566    1.6537058   -4.2616647 
H     3.4453142   -1.9419113    1.0948441 
H    -2.1905724    1.6536337   -2.4134298 
H     3.1074970   -3.9033900   -2.7325507 
H     1.4286288    2.8634646   -4.4364128 
H     4.0032118   -3.8297731   -0.4201390 
H    -0.9746814    3.2060900   -3.9397547 
H     2.4244082   -1.4957473    3.3752146 
H     0.0081624    3.1198479    0.2221931 
H    -1.6412680   -2.6606784   -3.3507931 
H    -3.7292444    1.1905985    0.3174240 
H     4.4899619   -0.5045526    4.9034115 
H     1.4741140    5.0656965   -1.0754003 
H    -0.7164859   -5.2213314   -2.8850594 
H    -6.1161728    0.8563260   -1.0189197 
H     5.1565697    1.8966089    3.6732474 
H     3.9659378    3.9007370   -1.4501364 
H     0.2299573   -5.1404383   -0.2779031 
H    -5.5734546   -1.1097598   -2.9023009 
H     1.2944007   -2.7112915   -5.6570534 
H     2.9060899   -3.0431025   -4.9238180 
H     1.4512012   -3.9642320   -4.3725408 
H     4.6888802    1.2417386   -4.2601313 
H     3.2599702    1.6254942   -5.2889474 
H     3.6947184    2.7007081   -3.9041970 
