91
Energy =
C    -0.7089345    1.3762426    3.2025525 
C    -1.9944726    0.7896118    2.9786613 
C    -2.1304958   -0.6169838    2.9224136 
H    -2.8342398    1.4260737    2.6704773 
Pd   -0.6239907    0.1125047    1.3896693 
P    -1.0815589   -1.2039527   -0.4895368 
P     1.4577607    0.8648846    0.6427491 
H    -0.0194229    0.8339887    3.8651067 
H    -1.3131689   -1.2186598    3.3529546 
C     0.2577437    5.5329970    2.6459010 
C    -0.7657004    4.9458022    1.8829865 
C    -1.0993081    3.6012387    2.0679839 
C    -0.4174551    2.8134385    3.0251860 
C     0.6058403    3.4181295    3.7882606 
C     0.9403730    4.7644929    3.5999500 
H     0.5219842    6.5845359    2.4937531 
H    -1.2958881    5.5379484    1.1298031 
H    -1.8659852    3.1432767    1.4334219 
H     1.1449297    2.8227363    4.5316613 
H     1.7376418    5.2139395    4.2010449 
C    -5.6893363   -2.8655914    2.0847492 
C    -5.7980432   -1.5249194    2.4845778 
C    -4.6478925   -0.7753049    2.7594323 
C    -3.3675463   -1.3620784    2.6513542 
C    -3.2730788   -2.7193129    2.2618684 
C    -4.4218995   -3.4605224    1.9720079 
H    -6.5904396   -3.4480508    1.8672287 
H    -6.7849089   -1.0623392    2.5894556 
H    -4.7483489    0.2642721    3.0885435 
H    -2.2835325   -3.1813785    2.1674945 
H    -4.3308259   -4.5056468    1.6594024 
O     1.9979201   -2.4454780   -3.2444389 
O     2.6351477    0.7203412   -3.4813346 
O     3.3228069    2.5274566    1.8140798 
O     0.1422883    2.6947059   -0.8623514 
O     0.4372814   -3.1799725    0.5841763 
O    -3.2259811   -2.6678452   -1.4146726 
C     1.9186144   -0.9189280   -1.4669572 
C     0.8638019   -0.2076400   -2.2568191 
C     2.3912874   -0.4731874   -0.2137822 
C    -0.5207196   -0.3496673   -2.0236002 
C     2.5188913   -2.0665589   -2.0500714 
C     1.2902921    0.6093041   -3.3381118 
C     3.4451380   -1.1420033    0.4400459 
C    -1.4624071    0.2884497   -2.8551815 
C     3.5674844   -2.7380800   -1.3935653 
C     0.3488848    1.2476270   -4.1676396 
C     2.5517308    1.4050422    1.9855707 
C     1.3971995    2.2731257   -0.4794225 
C    -0.3269019   -2.8420456   -0.5147428 
C    -2.8392920   -1.5149981   -0.7713471 
C     4.0287354   -2.2619516   -0.1601965 
C    -1.0190699    1.0707175   -3.9257689 
C     2.8169521    0.8498803    3.2226228 
C     2.3567577    3.0431093   -1.1038329 
C    -0.3059461   -3.8742428   -1.4291768 
C    -3.9488844   -0.7339780   -0.5172402 
C     3.8060718    1.6805428    3.8398886 
C     1.6514350    3.9891192   -1.9107109 
C     0.5164948   -4.8985175   -0.8639064 
C    -5.0763230   -1.4472267   -1.0316389 
C     4.0681523    2.6871475    2.9425405 
C     0.3137360    3.7268409   -1.7273294 
C     0.9428039   -4.4210648    0.3529830 
C    -4.5791801   -2.6144070   -1.5587333 
C     2.5440702   -3.5832178   -3.9103639 
C     3.1566450    1.5239995   -4.5388384 
H     3.8100363   -0.7858053    1.4066487 
H    -2.5329144    0.1714689   -2.6659530 
H     4.0293386   -3.6212390   -1.8403643 
H     0.6750954    1.8738256   -5.0010138 
H     4.8546672   -2.7777786    0.3405856 
H    -1.7482802    1.5580431   -4.5814383 
H     2.3581115   -0.0501980    3.6337207 
H     3.4341829    2.9341289   -0.9898708 
H    -0.8191859   -3.8816251   -2.3895443 
H    -3.9474859    0.2317166   -0.0120925 
H     4.2569325    1.5537724    4.8242401 
H     2.0781911    4.7679648   -2.5432904 
H     0.7587570   -5.8687396   -1.2985931 
H    -6.1223266   -1.1441128   -0.9965596 
H     4.7229234    3.5573307    2.9562229 
H    -0.5995429    4.1643163   -2.1272477 
H     1.5823300   -4.8244249    1.1365940 
H    -5.0370569   -3.4761376   -2.0425654 
H     2.4259402   -4.4974848   -3.2986429 
H     1.9696693   -3.6875906   -4.8419340 
H     3.6132379   -3.4327017   -4.1505890 
H     2.8363565    2.5775949   -4.4326738 
H     4.2506364    1.4614097   -4.4492994 
H     2.8446686    1.1384943   -5.5275864 
