91
Energy =
C     0.1408642    0.7829575    3.5080495 
C    -1.2285264    0.4410076    3.4273838 
C    -1.6103016   -0.9017945    3.1016386 
H    -1.9843078    1.2359285    3.4252153 
Pd   -0.3575230   -0.0879942    1.4815282 
P    -0.5717479   -1.7998208   -0.0870716 
P     0.7518646    1.3902104    0.0669326 
H     0.8519750   -0.0468148    3.6502950 
H    -0.9723859   -1.7149329    3.4762279 
C     1.9394631    4.6174875    4.2142263 
C     0.5417568    4.4924772    4.2660075 
C    -0.0668974    3.2565761    4.0277016 
C     0.7159239    2.1154524    3.7421472 
C     2.1235379    2.2549794    3.6945316 
C     2.7290284    3.4943114    3.9231308 
H     2.4107179    5.5873745    4.4039073 
H    -0.0774428    5.3654864    4.4955414 
H    -1.1570731    3.1765508    4.0801473 
H     2.7387895    1.3790486    3.4627798 
H     3.8194857    3.5840111    3.8812536 
C    -5.5558157   -2.1277713    1.8910845 
C    -5.1763986   -0.7800728    1.7709754 
C    -3.9037335   -0.3671487    2.1755933 
C    -2.9812071   -1.2935186    2.7193560 
C    -3.3809920   -2.6428268    2.8431045 
C    -4.6530277   -3.0559409    2.4296781 
H    -6.5506083   -2.4496782    1.5665775 
H    -5.8758705   -0.0500458    1.3500714 
H    -3.6121284    0.6810985    2.0435555 
H    -2.6821790   -3.3734777    3.2617920 
H    -4.9399104   -4.1077672    2.5314779 
O     0.3350658   -1.2189991   -4.3409340 
O     3.0347167   -0.0273960   -3.3099099 
O     3.1673511    0.4253362    0.8429548 
O    -0.8836029    3.4191195    0.8146717 
O    -1.8882592   -4.2048916    0.0818993 
O    -1.9124959   -2.4539317   -2.3896350 
C     0.4971132    0.0818912   -2.3968985 
C     1.4278808   -0.9741272   -1.8886565 
C     0.1639474    1.2449895   -1.6699391 
C     1.0418495   -1.9735386   -0.9665405 
C    -0.0455712   -0.0867329   -3.6990832 
C     2.7408487   -1.0177540   -2.4285756 
C    -0.7141203    2.2069602   -2.2076868 
C     1.9420618   -2.9902056   -0.5918399 
C    -0.9207871    0.8754055   -4.2366813 
C     3.6429609   -2.0264335   -2.0423580 
C     2.5498216    1.2999206   -0.0264368 
C     0.4301622    3.1160144    0.5145492 
C    -0.9142505   -3.4230284    0.6493430 
C    -1.8595615   -1.5906695   -1.3203513 
C    -1.2486223    2.0107215   -3.4855963 
C     3.2311807   -3.0087984   -1.1337845 
C     3.4949377    1.8834946   -0.8452625 
C     1.1972939    4.2575934    0.5941681 
C    -0.3841000   -4.0727414    1.7483796 
C    -2.8826932   -0.6686640   -1.4086960 
C     4.7598294    1.3434072   -0.4523911 
C     0.3069601    5.3219264    0.9483862 
C    -1.0658976   -5.3275774    1.8476573 
C    -3.6057019   -0.9853414   -2.6003561 
C     4.4990031    0.4620013    0.5700678 
C    -0.9387771    4.7603883    1.0654004 
C    -1.9728836   -5.3479357    0.8154773 
C    -2.9727306   -2.0746118   -3.1518921 
C    -0.1527354   -1.4711305   -5.6564586 
C     4.3063795   -0.0288916   -3.9567024 
H    -0.9790303    3.0988507   -1.6355806 
H     1.6337139   -3.7696949    0.1092657 
H    -1.3479774    0.7448106   -5.2333939 
H     4.6546800   -2.0572676   -2.4528028 
H    -1.9292779    2.7563721   -3.9093469 
H     3.9281948   -3.8033797   -0.8478717 
H     3.2926255    2.5920853   -1.6480603 
H     2.2713551    4.3186672    0.4235799 
H     0.4007851   -3.6930713    2.4038497 
H    -3.0763544    0.1359490   -0.7004234 
H     5.7389135    1.5761192   -0.8719933 
H     0.5633321    6.3694596    1.1064819 
H    -0.9093426   -6.1092718    2.5911639 
H    -4.4803651   -0.4720618   -2.9994971 
H     5.1249551   -0.1884764    1.1792997 
H    -1.9218610    5.1536366    1.3199249 
H    -2.7189654   -6.0680592    0.4824425 
H    -3.1541235   -2.6776851   -4.0406732 
H     0.2842836   -2.4338657   -5.9575304 
H    -1.2566255   -1.5482260   -5.6665065 
H     0.1673815   -0.6817425   -6.3624089 
H     5.1281233    0.0828095   -3.2243222 
H     4.4556147   -0.9546343   -4.5432013 
H     4.2980606    0.8375542   -4.6335241 
