91
Energy =
C    -0.9233097    1.2361108    3.4042532 
C    -2.1606837    1.0513215    2.7441638 
C    -2.5968193   -0.2562204    2.3755320 
H    -2.7009067    1.9269066    2.3629835 
Pd   -0.6335911    0.1704824    1.4124004 
P    -0.8029939   -1.5428097   -0.1664390 
P     1.3422745    1.0414440    0.5169786 
H    -0.4786935    0.3523498    3.8903381 
H    -2.2891540   -1.0883506    3.0250881 
C     0.7626938    4.9328927    4.7932715 
C    -0.5698142    4.9024023    4.3510426 
C    -1.1263870    3.7117505    3.8725574 
C    -0.3631174    2.5221547    3.8437123 
C     0.9760382    2.5663654    4.2971621 
C     1.5357144    3.7610908    4.7586819 
H     1.1960576    5.8658034    5.1682343 
H    -1.1811598    5.8101704    4.3886281 
H    -2.1724568    3.7011567    3.5506844 
H     1.5812405    1.6530657    4.2724262 
H     2.5767771    3.7801078    5.0959333 
C    -5.9479853   -1.1575779   -0.1703128 
C    -5.3105068    0.0901960   -0.2727591 
C    -4.2305982    0.4010500    0.5581547 
C    -3.7651950   -0.5303130    1.5154653 
C    -4.4236500   -1.7767824    1.6153809 
C    -5.5025210   -2.0880534    0.7796520 
H    -6.7880642   -1.4009431   -0.8288710 
H    -5.6506413    0.8191700   -1.0154666 
H    -3.7159442    1.3593650    0.4350753 
H    -4.0803636   -2.5083597    2.3534917 
H    -5.9965947   -3.0607812    0.8722149 
O     0.7107541   -1.0356918   -4.1733921 
O     3.5324584   -0.8840200   -2.8390733 
O     3.9892075    0.4045015    0.1143209 
O     0.8857620    3.6446851    1.1780042 
O    -2.4287698   -3.7657965   -0.3405444 
O    -2.0921309    0.2944496   -1.6822449 
C     1.0906533    0.0136659   -2.1117179 
C     1.5679567   -1.3214085   -1.6361308 
C     1.0694238    1.1713180   -1.3037746 
C     0.7928442   -2.1786896   -0.8276461 
C     0.6890462    0.1247987   -3.4705694 
C     2.8513296   -1.7600052   -2.0598044 
C     0.6683210    2.4136184   -1.8360038 
C     1.2862555   -3.4354503   -0.4253795 
C     0.2942731    1.3667169   -4.0016858 
C     3.3419084   -3.0182054   -1.6625821 
C     2.8327207    0.0639105    0.7807793 
C     1.8730231    2.6951624    1.0218809 
C    -1.6255262   -3.0192033    0.4851302 
C    -1.7864232   -1.0465972   -1.5949838 
C     0.2960891    2.5013332   -3.1805300 
C     2.5554065   -3.8434883   -0.8497070 
C     3.0631929   -1.0420811    1.5736225 
C     3.1062914    3.2660990    1.2638960 
C    -1.5385663   -3.6320451    1.7196229 
C    -2.2831772   -1.7083330   -2.6989541 
C     4.4344026   -1.4010662    1.3826832 
C     2.8613708    4.6397488    1.5785722 
C    -2.3406898   -4.8157053    1.6458359 
C    -2.9332575   -0.7200422   -3.5020860 
C     4.9451958   -0.4911638    0.4890264 
C     1.5014007    4.8142638    1.5102389 
C    -2.8624707   -4.8403194    0.3751613 
C    -2.7795849    0.4747980   -2.8383732 
C     0.3239670   -1.0227097   -5.5464991 
C     4.8218064   -1.2440254   -3.3288717 
H     0.6437580    3.3044670   -1.2042482 
H     0.6811522   -4.0915557    0.2061075 
H    -0.0090956    1.4545214   -5.0472970 
H     4.3299496   -3.3572675   -1.9820295 
H    -0.0035129    3.4680021   -3.5986685 
H     2.9399249   -4.8229982   -0.5470235 
H     2.3239682   -1.5424966    2.1991168 
H     4.0673009    2.7577472    1.2019950 
H    -0.9647163   -3.2727932    2.5747566 
H    -2.1881721   -2.7745970   -2.8977882 
H     4.9712857   -2.2302462    1.8429860 
H     3.6002199    5.4012840    1.8283375 
H    -2.5156443   -5.5479480    2.4341559 
H    -3.4519455   -0.8740543   -4.4487408 
H     5.9288474   -0.3444206    0.0448484 
H     0.8406005    5.6624206    1.6778899 
H    -3.5326994   -5.5187844   -0.1508735 
H    -3.0863807    1.4976820   -3.0499151 
H     0.4202505   -2.0615860   -5.8932239 
H    -0.7252283   -0.6909173   -5.6605482 
H     0.9880312   -0.3708721   -6.1447259 
H     5.5318796   -1.4194486   -2.4981241 
H     4.7724853   -2.1463739   -3.9669799 
H     5.1636323   -0.3879525   -3.9278858 
