91
Energy =
C    -0.6109748    1.4222299    3.4092905 
C    -1.8676835    0.9340691    2.9497664 
C    -2.1231892   -0.4601905    2.9076705 
H    -2.5808242    1.6330897    2.4933709 
Pd   -0.3532733    0.0883281    1.6201864 
P    -0.7473668   -1.4946979   -0.0710854 
P     1.5554399    0.9258993    0.5660313 
H    -0.0697697    0.8051599    4.1427253 
H    -1.5413521   -1.0954700    3.5933287 
C     0.3801911    5.6061485    3.4518965 
C    -0.2552346    5.0509558    2.3287070 
C    -0.5834549    3.6914825    2.3077953 
C    -0.2687245    2.8584202    3.4044221 
C     0.3804593    3.4252096    4.5221417 
C     0.6898219    4.7901003    4.5506977 
H     0.6355827    6.6706276    3.4676223 
H    -0.4888266    5.6813628    1.4642938 
H    -1.0576948    3.2556773    1.4200112 
H     0.6367097    2.7882674    5.3758849 
H     1.1816488    5.2183366    5.4305352 
C    -5.7296071   -2.3014724    1.4627686 
C    -4.9737664   -2.9068070    2.4764869 
C    -3.7958563   -2.3017149    2.9309897 
C    -3.3608543   -1.0724301    2.3906588 
C    -4.1360259   -0.4684648    1.3737397 
C    -5.3041268   -1.0802013    0.9117157 
H    -6.6466679   -2.7777661    1.1008127 
H    -5.2969961   -3.8585380    2.9101723 
H    -3.2041435   -2.7835437    3.7168232 
H    -3.8010224    0.4691491    0.9212889 
H    -5.8856285   -0.6057053    0.1143012 
O     0.1905065   -0.4972913   -4.2088713 
O     3.1467308   -0.5979031   -3.3026237 
O     4.0462591    0.1373276   -0.2423930 
O     2.5986541    2.5976846    2.4190957 
O    -0.9670551   -3.5618576    1.6537031 
O    -2.3752419    0.4135490   -1.1484638 
C     0.8752751    0.2569892   -2.0961160 
C     1.3692979   -1.1381091   -1.8744335 
C     0.9825304    1.2925958   -1.1420273 
C     0.6876347   -2.0735054   -1.0657010 
C     0.2674867    0.5491741   -3.3488007 
C     2.5479509   -1.5526650   -2.5488960 
C     0.4574513    2.5760018   -1.4106456 
C     1.1690530   -3.3880592   -0.9159803 
C    -0.2261904    1.8370827   -3.6254997 
C     3.0277865   -2.8679255   -2.4009608 
C     2.9385124   -0.2322095    0.4852638 
C     2.3923111    2.4489741    1.0682537 
C    -1.5256287   -3.0210959    0.5136944 
C    -1.9006830   -0.8685987   -1.3156390 
C    -0.1288592    2.8388743   -2.6511869 
C     2.3331668   -3.7732543   -1.5897019 
C     3.1772777   -1.4337111    1.1214257 
C     3.0436559    3.4582029    0.3859742 
C    -2.5402494   -3.8368233    0.0632360 
C    -2.3923783   -1.3933535   -2.4934840 
C     4.5003840   -1.8309826    0.7504610 
C     3.6666286    4.2784614    1.3782519 
C    -2.6036374   -4.9434900    0.9699555 
C    -3.2267216   -0.3842267   -3.0697833 
C     4.9774222   -0.8422267   -0.0762685 
C     3.3641587    3.7087867    2.5908759 
C    -1.6291318   -4.7284465    1.9113006 
C    -3.1724582    0.6908010   -2.2148860 
C    -0.3517794   -0.2877468   -5.5118078 
C     4.3530120   -0.9132921   -3.9942345 
H     0.5110563    3.3614935   -0.6523418 
H     0.6419086   -4.1037948   -0.2802222 
H    -0.6915793    2.0602947   -4.5879811 
H     3.9377604   -3.1896327   -2.9124281 
H    -0.5221265    3.8380443   -2.8657977 
H     2.7101334   -4.7955018   -1.4818379 
H     2.4766495   -1.9658296    1.7653299 
H     3.0777025    3.5827784   -0.6959268 
H    -3.1751237   -3.6529613   -0.8021494 
H    -2.1560272   -2.3748503   -2.9040612 
H     5.0305733   -2.7323892    1.0573598 
H     4.2629667    5.1759764    1.2133058 
H    -3.2960711   -5.7845458    0.9337504 
H    -3.7921840   -0.4443637   -4.0000662 
H     5.9230610   -0.6876436   -0.5943410 
H     3.5923444    3.9686928    3.6228681 
H    -1.2958090   -5.2767945    2.7912401 
H    -3.6186150    1.6839835   -2.2257175 
H     0.2352084    0.4630200   -6.0730672 
H    -0.2880972   -1.2599289   -6.0211834 
H    -1.4093568    0.0322947   -5.4576560 
H     4.1948116   -1.7209667   -4.7336150 
H     4.6490584    0.0084596   -4.5150391 
H     5.1518341   -1.2110785   -3.2885592 
