91
Energy =
C    -0.2116300    0.4942426    3.5327043 
C    -1.6009205    0.4299150    3.2718913 
C    -2.1761048   -0.7815795    2.7688054 
H    -2.1990704    1.3496453    3.2775912 
Pd   -0.6074175   -0.0846138    1.3850669 
P    -0.9807484   -1.5435891   -0.3858263 
P     1.0084248    1.1905752    0.2921926 
H     0.3114221   -0.4658537    3.6690765 
H    -1.7374243   -1.7312433    3.1062404 
C     2.1337204    3.8425740    4.8506805 
C     0.7501040    3.9995567    4.6681983 
C    -0.0311866    2.9276417    4.2267648 
C     0.5574949    1.6688435    3.9694164 
C     1.9527209    1.5247639    4.1568302 
C     2.7337271    2.6015029    4.5884926 
H     2.7403806    4.6850746    5.1983926 
H     0.2776259    4.9656690    4.8722799 
H    -1.1083267    3.0687432    4.0945780 
H     2.4209907    0.5565669    3.9505160 
H     3.8118977    2.4710021    4.7280085 
C    -6.1531722   -1.1060480    1.1497834 
C    -5.5369157   -2.2106053    1.7547129 
C    -4.2483198   -2.0917642    2.2895947 
C    -3.5497703   -0.8669014    2.2313219 
C    -4.1828996    0.2393707    1.6152114 
C    -5.4699596    0.1205236    1.0833048 
H    -7.1595234   -1.1979930    0.7285152 
H    -6.0597372   -3.1710487    1.8096404 
H    -3.7741231   -2.9585609    2.7608111 
H    -3.6478604    1.1921776    1.5271003 
H    -5.9427558    0.9851561    0.6055910 
O     0.8366272   -0.9971008   -4.3558874 
O     3.4976126   -0.5968755   -2.7653702 
O     2.9545772   -0.3605843    1.3768111 
O    -0.2390957    3.5059241    0.9492575 
O    -1.5192292   -3.6876170    1.2114683 
O    -2.0205401   -1.6619664   -2.9290082 
C     0.9342903    0.1205228   -2.2973702 
C     1.4671833   -1.1598746   -1.7359599 
C     0.7542092    1.2902153   -1.5278269 
C     0.6840156   -2.0621060   -0.9825412 
C     0.6305432    0.1631102   -3.6843344 
C     2.8104673   -1.5119381   -2.0341649 
C     0.2605999    2.4721624   -2.1147664 
C     1.2258570   -3.2802169   -0.5248242 
C     0.1407688    1.3450877   -4.2709231 
C     3.3523228   -2.7260931   -1.5732353 
C     2.7245443    0.6765346    0.4976719 
C     1.0050293    2.9156052    0.8443942 
C    -1.8515427   -3.0791754    0.0181625 
C    -1.9181217   -0.9070757   -1.7807824 
C    -0.0405916    2.4869837   -3.4810529 
C     2.5528143   -3.6011538   -0.8271024 
C     3.9125334    1.0536996   -0.0946040 
C     1.9810777    3.8345508    1.1617738 
C    -2.8311018   -3.8115353   -0.6174469 
C    -2.6116751    0.2754304   -1.9354323 
C     4.9260514    0.2083548    0.4571247 
C     1.3030402    5.0586430    1.4659046 
C    -3.1111130   -4.9345030    0.2262261 
C    -3.1681906    0.2481021   -3.2523340 
C     4.2864766   -0.6316979    1.3378799 
C    -0.0367524    4.8049320    1.3184367 
C    -2.2860194   -4.8140237    1.3156676 
C    -2.7782820   -0.9471240   -3.8073838 
C     0.5642340   -1.0497999   -5.7540859 
C     4.8341215   -0.8923817   -3.1674722 
H     0.1124238    3.3716175   -1.5127657 
H     0.6186928   -3.9689234    0.0673490 
H    -0.1003887    1.3804120   -5.3356792 
H     4.3869135   -2.9955910   -1.7971756 
H    -0.4200839    3.4042764   -3.9430391 
H     2.9750779   -4.5488989   -0.4773541 
H     4.0291263    1.8268669   -0.8536990 
H     3.0538283    3.6467243    1.1795013 
H    -3.2837908   -3.5714876   -1.5783112 
H    -2.6941251    1.0650997   -1.1893457 
H     5.9928364    0.2190693    0.2318890 
H     1.7546869    6.0036394    1.7675640 
H    -3.8331763   -5.7308658    0.0450751 
H    -3.7761915    1.0166814   -3.7291757 
H     4.6235037   -1.4412691    1.9836933 
H    -0.9359219    5.4063757    1.4437843 
H    -2.1260969   -5.4128605    2.2112397 
H    -2.9569057   -1.4223459   -4.7711118 
H     1.1980215   -0.3373195   -6.3150850 
H     0.8006784   -2.0770970   -6.0660257 
H    -0.5016405   -0.8372382   -5.9628406 
H     4.8718943   -1.8057783   -3.7899833 
H     5.1649344   -0.0286272   -3.7619398 
H     5.4983187   -1.0132191   -2.2909210 
