91
Energy =
C    -0.3715824    1.0737902    3.5221704 
C    -1.7129236    0.8197530    3.1456672 
C    -2.1270819   -0.5011522    2.8068820 
H    -2.3912609    1.6597190    2.9482188 
Pd   -0.4807240    0.1356492    1.4526438 
P    -0.8792454   -1.4688666   -0.1941909 
P     1.3037526    1.1167008    0.3058393 
H     0.2245268    0.2078665    3.8527299 
H    -1.6140030   -1.3345090    3.3089008 
C     1.3242633    4.8301691    4.7294834 
C    -0.0646178    4.7225379    4.5522013 
C    -0.6301729    3.5134383    4.1345507 
C     0.1836724    2.3809856    3.9022710 
C     1.5805540    2.5028974    4.0881550 
C     2.1455631    3.7168832    4.4897237 
H     1.7647694    5.7773719    5.0573111 
H    -0.7112197    5.5840396    4.7495205 
H    -1.7162810    3.4429851    4.0190627 
H     2.2239839    1.6352935    3.9027609 
H     3.2294972    3.7960282    4.6195807 
C    -5.9911356   -1.4927859    1.1932382 
C    -5.3430474   -0.3160326    0.7801462 
C    -4.0918926    0.0196283    1.3052185 
C    -3.4596708   -0.8202530    2.2509123 
C    -4.1182410   -2.0005443    2.6538368 
C    -5.3757886   -2.3312622    2.1334254 
H    -6.9703445   -1.7549709    0.7793338 
H    -5.8125378    0.3364646    0.0364614 
H    -3.5749136    0.9171350    0.9483471 
H    -3.6388610   -2.6631744    3.3820847 
H    -5.8728455   -3.2509619    2.4588672 
O     0.4039200   -0.9543182   -4.3434997 
O     3.2541353   -0.8257173   -3.1899682 
O     3.9259468    0.5724642   -0.3324808 
O     0.7951122    3.6724765    1.0899741 
O    -1.2590371   -3.4857170    1.5856937 
O    -2.4319873    0.3283100   -1.5245842 
C     0.8734842    0.0865787   -2.2955005 
C     1.3817363   -1.2452716   -1.8411425 
C     0.8870496    1.2423323   -1.4853262 
C     0.6705267   -2.0929189   -0.9644329 
C     0.4070540    0.2026704   -3.6327807 
C     2.6327478   -1.6895503   -2.3490445 
C     0.4462848    2.4830687   -1.9887231 
C     1.1981315   -3.3400982   -0.5747743 
C    -0.0296811    1.4416832   -4.1356329 
C     3.1554510   -2.9390782   -1.9668829 
C     2.8467478    0.1942096    0.4351706 
C     1.8043857    2.7931600    0.7618604 
C    -1.7310257   -2.9533033    0.4030627 
C    -1.9154011   -0.9461022   -1.5757876 
C    -0.0005609    2.5726506   -3.3097953 
C     2.4353207   -3.7510043   -1.0819160 
C     3.1847075   -0.9011264    1.2040913 
C     3.0201735    3.4448334    0.8075845 
C    -2.7820099   -3.7150219   -0.0593671 
C    -2.2977981   -1.5559403   -2.7538642 
C     4.5451419   -1.2130858    0.8905260 
C     2.7400220    4.7963661    1.1823643 
C    -2.9566914   -4.7810688    0.8812310 
C    -3.1010074   -0.6045515   -3.4574167 
C     4.9423408   -0.2885580   -0.0448457 
C     1.3784385    4.8780573    1.3401035 
C    -2.0086673   -4.5968387    1.8547923 
C    -3.1424535    0.5197704   -2.6669205 
C    -0.0010961   -0.9272033   -5.7109892 
C     4.5029079   -1.1949639   -3.7696460 
H     0.4522802    3.3715627   -1.3527952 
H     0.6490164   -3.9840050    0.1162203 
H    -0.3886334    1.5305341   -5.1633619 
H     4.1191703   -3.2807558   -2.3511130 
H    -0.3348645    3.5369419   -3.7063523 
H     2.8471468   -4.7220176   -0.7880015 
H     2.5209368   -1.4260868    1.8912806 
H     3.9889494    3.0013132    0.5823321 
H    -3.3684740   -3.5204023   -0.9559400 
H    -2.0082765   -2.5545315   -3.0800454 
H     5.1494306   -2.0219907    1.3006912 
H     3.4579142    5.6042811    1.3243061 
H    -3.7010740   -5.5764460    0.8431610 
H    -3.5847378   -0.7335803   -4.4259620 
H     5.8767260   -0.1088151   -0.5749842 
H     0.7001047    5.6776619    1.6313403 
H    -1.7456015   -5.1349235    2.7644074 
H    -3.6092035    1.4976306   -2.7744143 
H    -1.0543881   -0.6029092   -5.8097344 
H     0.6490829   -0.2608997   -6.3082630 
H     0.0999443   -1.9604121   -6.0731257 
H     4.4057037   -2.1071902   -4.3879907 
H     4.7987659   -0.3487460   -4.4060316 
H     5.2735398   -1.3582306   -2.9921105 
