91
Energy =
C    -0.6820240    1.0385366    3.4849413 
C    -1.9880093    0.8596777    2.9677698 
C    -2.4298523   -0.4329342    2.5608139 
H    -2.5997465    1.7365083    2.7195097 
Pd   -0.6232605    0.1379545    1.3962278 
P    -0.9230633   -1.4238254   -0.3120284 
P     1.3138430    1.0468835    0.4571282 
H    -0.1661619    0.1380206    3.8555474 
H    -2.0146885   -1.2991403    3.0966443 
C     1.0623247    4.6840462    4.9380142 
C    -0.3063782    4.6474456    4.6262170 
C    -0.8844479    3.4754234    4.1277740 
C    -0.1055015    2.3093967    3.9478644 
C     1.2708737    2.3594867    4.2699360 
C     1.8502616    3.5368706    4.7519050 
H     1.5127352    5.6023594    5.3286005 
H    -0.9282970    5.5353561    4.7812951 
H    -1.9564601    3.4596268    3.9075946 
H     1.8881675    1.4653916    4.1264235 
H     2.9190989    3.5610017    4.9864335 
C    -6.1510903   -1.1981042    0.5396101 
C    -5.4068728   -0.0491250    0.2208188 
C    -4.2010947    0.2129219    0.8776138 
C    -3.7116851   -0.6740868    1.8641263 
C    -4.4652024   -1.8261856    2.1712238 
C    -5.6773415   -2.0833033    1.5182637 
H    -7.0944869   -1.4024023    0.0227149 
H    -5.7650485    0.6392168   -0.5519302 
H    -3.6064885    1.0885074    0.5949904 
H    -4.0961703   -2.5249224    2.9293618 
H    -6.2496345   -2.9819487    1.7706540 
O     0.8109581   -0.9168671   -4.2978418 
O     3.5261438   -0.9418032   -2.8516785 
O     3.9615795    0.3878281    0.0871731 
O     0.8385687    3.6087397    1.2400047 
O    -1.5817574   -3.4423508    1.3834359 
O    -2.2429807    0.4630163   -1.7638422 
C     1.1103556    0.0725220   -2.1930161 
C     1.5055711   -1.2881182   -1.7120030 
C     1.0930233    1.2155526   -1.3649977 
C     0.6681959   -2.1116491   -0.9285687 
C     0.7935747    0.2289541   -3.5694991 
C     2.7809719   -1.7852918   -2.0949244 
C     0.7663178    2.4828230   -1.8889410 
C     1.0940137   -3.3875344   -0.5081791 
C     0.4713879    1.4944416   -4.0926041 
C     3.2026924   -3.0629148   -1.6821386 
C     2.7909601    0.0510181    0.7301593 
C     1.8377500    2.6925923    0.9918796 
C    -1.9014731   -2.8725179    0.1677358 
C    -1.7832690   -0.8338612   -1.7842832 
C     0.4661064    2.6116318   -3.2477081 
C     2.3572524   -3.8505782   -0.8910144 
C     2.9954897   -1.0687087    1.5108943 
C     3.0692413    3.2912044    1.1648989 
C    -2.9349099   -3.5744476   -0.4137000 
C    -2.0667595   -1.4085044   -3.0071640 
C     4.3659611   -1.4402347    1.3369521 
C     2.8100323    4.6473435    1.5381611 
C    -3.2583442   -4.6416425    0.4852693 
C    -2.7462195   -0.4101798   -3.7732657 
C     4.9016157   -0.5236512    0.4649858 
C     1.4440355    4.7842841    1.5680421 
C    -2.4087721   -4.5173518    1.5545073 
C    -2.8191469    0.7038757   -2.9706156 
C     0.5543082   -0.8516375   -5.6995020 
C     4.8101401   -1.3630638   -3.3051232 
H     0.7471146    3.3614879   -1.2396830 
H     0.4463643   -4.0133355    0.1104498 
H     0.2279666    1.6143899   -5.1506115 
H     4.1845794   -3.4452838   -1.9699079 
H     0.2212661    3.5962351   -3.6593724 
H     2.6908186   -4.8436503   -0.5726725 
H     2.2394276   -1.5707326    2.1148238 
H     4.0360901    2.8103408    1.0234363 
H    -3.4150798   -3.3394875   -1.3623465 
H    -1.7909431   -2.4152954   -3.3197142 
H     4.8860277   -2.2816765    1.7943686 
H     3.5434284    5.4217606    1.7631813 
H    -4.0327214   -5.3979682    0.3568296 
H    -3.1300895   -0.5025955   -4.7895460 
H     5.8940971   -0.3813866    0.0393521 
H     0.7742019    5.6072650    1.8096869 
H    -2.2682549   -5.0790717    2.4769338 
H    -3.2262323    1.7043403   -3.1082015 
H     0.6439747   -1.8836127   -6.0680719 
H    -0.4661017   -0.4747989   -5.9020927 
H     1.2946985   -0.2100320   -6.2128926 
H     5.4871728   -1.5721172   -2.4548465 
H     4.7359117   -2.2620690   -3.9455849 
H     5.2093697   -0.5242793   -3.8930664 
