91
Energy =
C    -0.1768397    0.5073071    3.5436813 
C    -1.5676223    0.4932895    3.2852621 
C    -2.1884475   -0.6973966    2.7857398 
H    -2.1295478    1.4354753    3.2880917 
Pd   -0.5959651   -0.0659436    1.3990217 
P    -1.0074554   -1.5357059   -0.3547191 
P     1.0410261    1.1634747    0.2861713 
H     0.3113606   -0.4708851    3.6809399 
H    -1.7868077   -1.6622554    3.1256724 
C     2.2975553    3.7733158    4.8312073 
C     2.8509530    2.5113928    4.5658065 
C     2.0282095    1.4619022    4.1448717 
C     0.6369752    1.6546042    3.9718478 
C     0.0953085    2.9334903    4.2330753 
C     0.9184113    3.9783525    4.6632934 
H     2.9370822    4.5947819    5.1702654 
H     3.9253260    2.3435656    4.6942151 
H     2.4601437    0.4776585    3.9351081 
H    -0.9777113    3.1115569    4.1127885 
H     0.4823536    4.9608613    4.8701308 
C    -6.1616599   -0.8777584    1.1348792 
C    -5.5733769   -2.0152966    1.7057029 
C    -4.2866001   -1.9426688    2.2528318 
C    -3.5608804   -0.7319599    2.2403998 
C    -4.1658902    0.4078609    1.6577413 
C    -5.4516604    0.3351090    1.1145827 
H    -7.1669062   -0.9333717    0.7047073 
H    -6.1170425   -2.9655134    1.7247262 
H    -3.8346450   -2.8353633    2.6968273 
H    -3.6114384    1.3520301    1.6054422 
H    -5.9026332    1.2258175    0.6644674 
O     0.7419077   -1.0241974   -4.3566739 
O     3.4400880   -0.6715972   -2.8216466 
O     2.9780503   -0.4208102    1.3399355 
O    -0.1413648    3.5082433    0.9631890 
O    -1.5558666   -3.6364130    1.2937192 
O    -2.0933376   -1.6646867   -2.8786659 
C     0.8988166    0.0927384   -2.3012732 
C     1.4214876   -1.1959819   -1.7494990 
C     0.7520996    1.2653404   -1.5288737 
C     0.6377883   -2.0826658   -0.9785854 
C     0.5668554    0.1391894   -3.6816875 
C     2.7515175   -1.5730141   -2.0750003 
C     0.2630066    2.4539007   -2.1062944 
C     1.1665689   -3.3096063   -0.5294064 
C     0.0818607    1.3277732   -4.2587270 
C     3.2803139   -2.7963379   -1.6232237 
C     2.7499068    0.6147706    0.4586800 
C     1.0865266    2.8888845    0.8360310 
C    -1.8837561   -3.0587377    0.0839426 
C    -1.9631171   -0.9021729   -1.7382403 
C    -0.0668997    2.4723461   -3.4658870 
C     2.4808323   -3.6553488   -0.8585459 
C     3.9323885    0.9651354   -0.1605836 
C     2.0893593    3.7848698    1.1352514 
C    -2.8582441   -3.8093294   -0.5380213 
C    -2.6472697    0.2861428   -1.8895440 
C     4.9405933    0.1036780    0.3756847 
C     1.4458091    5.0246143    1.4506541 
C    -3.1410573   -4.9106158    0.3328233 
C    -3.2273056    0.2545902   -3.1961981 
C     4.3033899   -0.7179235    1.2753674 
C     0.0980256    4.8023627    1.3274874 
C    -2.3219304   -4.7606567    1.4233793 
C    -2.8595163   -0.9486960   -3.7488870 
C     0.4395920   -1.0733219   -5.7488622 
C     4.7622938   -0.9921888   -3.2509137 
H     0.1402743    3.3556650   -1.5020264 
H     0.5590201   -3.9863107    0.0762537 
H    -0.1809990    1.3661718   -5.3182211 
H     4.3047362   -3.0853942   -1.8685127 
H    -0.4433523    3.3946608   -3.9202983 
H     2.8929642   -4.6100996   -0.5158510 
H     4.0479294    1.7309442   -0.9272627 
H     3.1575868    3.5720342    1.1333484 
H    -3.3056779   -3.5943835   -1.5073151 
H    -2.7094710    1.0813043   -1.1474029 
H     6.0024328    0.0920060    0.1282390 
H     1.9248704    5.9589147    1.7432361 
H    -3.8607077   -5.7128387    0.1685302 
H    -3.8362293    1.0255537   -3.6680038 
H     4.6380681   -1.5295673    1.9198043 
H    -0.7844377    5.4247641    1.4682936 
H    -2.1659436   -5.3357449    2.3350731 
H    -3.0602469   -1.4294723   -4.7054875 
H     1.0723196   -0.3708302   -6.3234950 
H     0.6538662   -2.1042371   -6.0649028 
H    -0.6270402   -0.8446526   -5.9354370 
H     4.7702531   -1.9067653   -3.8727846 
H     5.0966294   -0.1353329   -3.8533358 
H     5.4421672   -1.1243949   -2.3881258 
