91
Energy =
C    -0.6850001    1.4214610    3.1880270 
C    -1.9740963    0.8368201    2.9795978 
C    -2.1161313   -0.5697793    2.9434025 
H    -2.8132615    1.4720311    2.6672908 
Pd   -0.6150016    0.1310624    1.3923818 
P    -1.0915406   -1.2033209   -0.4689530 
P     1.4685304    0.8589050    0.6271920 
H     0.0061558    0.8860547    3.8543009 
H    -1.2985089   -1.1689668    3.3768976 
C     0.2977127    5.5642310    2.5594698 
C    -0.7417232    4.9733364    1.8214322 
C    -1.0803705    3.6335006    2.0298203 
C    -0.3879307    2.8541934    2.9864414 
C     0.6514981    3.4626976    3.7244662 
C     0.9912953    4.8041743    3.5124047 
H     0.5654793    6.6120959    2.3892215 
H    -1.2807799    5.5587864    1.0693118 
H    -1.8601509    3.1722463    1.4139543 
H     1.1990582    2.8740025    4.4670111 
H     1.8011116    5.2565605    4.0942075 
C    -5.6889061   -2.8143918    2.1560691 
C    -4.4244812   -3.4152926    2.0411180 
C    -3.2709413   -2.6752234    2.3146652 
C    -3.3577472   -1.3133844    2.6895764 
C    -4.6351075   -0.7206085    2.7999861 
C    -5.7899083   -1.4689586    2.5416402 
H    -6.5936525   -3.3959159    1.9515471 
H    -4.3394341   -4.4641975    1.7396718 
H    -2.2837750   -3.1419586    2.2182691 
H    -4.7293612    0.3229842    3.1180717 
H    -6.7743249   -1.0016118    2.6483743 
O     1.9614485   -2.4890188   -3.2338295 
O     2.6174886    0.6718637   -3.5014421 
O     3.3632741    2.5063856    1.7723930 
O     0.1596204    2.6870743   -0.8849159 
O     0.4218675   -3.1791216    0.6131562 
O    -3.2502726   -2.6629610   -1.3671595 
C     1.9038443   -0.9465458   -1.4693437 
C     0.8483841   -0.2348123   -2.2578598 
C     2.3873036   -0.4931836   -0.2230957 
C    -0.5354231   -0.3657946   -2.0140146 
C     2.4928312   -2.1030296   -2.0463221 
C     1.2729401    0.5713807   -3.3479324 
C     3.4411453   -1.1629839    0.4297577 
C    -1.4784881    0.2729270   -2.8435942 
C     3.5413731   -2.7755644   -1.3907476 
C     0.3301342    1.2105978   -4.1751919 
C     2.5739946    1.3992818    1.9603380 
C     1.4133810    2.2589162   -0.5054846 
C    -0.3467714   -2.8460495   -0.4841045 
C    -2.8528496   -1.5067238   -0.7365850 
C     4.0138360   -2.2916433   -0.1646577 
C    -1.0372746    1.0448212   -3.9225556 
C     2.8344230    0.8548861    3.2031442 
C     2.3753256    3.0170651   -1.1406161 
C    -0.3376961   -3.8863003   -1.3895799 
C    -3.9564861   -0.7178347   -0.4809103 
C     3.8392942    1.6764705    3.8069807 
C     1.6727673    3.9625494   -1.9505355 
C     0.4818748   -4.9106591   -0.8203174 
C    -5.0914260   -1.4296314   -0.9805927 
C     4.1151926    2.6673474    2.8963179 
C     0.3341360    3.7115242   -1.7583178 
C     0.9184504   -4.4252638    0.3897659 
C    -4.6042445   -2.6038016   -1.5014316 
C     2.4956569   -3.6362435   -3.8931470 
C     3.1370770    1.4648959   -4.5678685 
H     3.8142245   -0.8010359    1.3911079 
H    -2.5484102    0.1648429   -2.6459352 
H     3.9944324   -3.6656883   -1.8326976 
H     0.6547811    1.8287195   -5.0151757 
H     4.8398444   -2.8083089    0.3351353 
H    -1.7676694    1.5327281   -4.5764725 
H     2.3624244   -0.0326125    3.6264768 
H     3.4524801    2.9007485   -1.0314954 
H    -0.8567212   -3.8988255   -2.3467729 
H    -3.9462877    0.2521473    0.0158355 
H     4.2913620    1.5543011    4.7913617 
H     2.1019723    4.7337897   -2.5907349 
H     0.7155925   -5.8860967   -1.2479534 
H    -6.1355839   -1.1208783   -0.9401562 
H     4.7848085    3.5262890    2.8969305 
H    -0.5780098    4.1528901   -2.1565259 
H     1.5603024   -4.8255969    1.1730251 
H    -5.0700771   -3.4672399   -1.9745082 
H     3.5642470   -3.4951163   -4.1415015 
H     2.3753108   -4.5442511   -3.2726015 
H     1.9145925   -3.7449123   -4.8200815 
H     2.8153118    1.0752470   -5.5518456 
H     2.8250223    2.5214131   -4.4662652 
H     4.2312118    1.3950924   -4.4857165 
