91
Energy =
C    -0.6282960    1.6193403    3.2157062 
C    -1.8689626    0.9911766    2.8866780 
C    -2.0495138   -0.4040477    3.0371981 
H    -2.6320673    1.5706512    2.3521598 
Pd   -0.3087707    0.0594591    1.6655254 
P    -0.7491399   -1.5141669   -0.0096725 
P     1.6442060    0.8245304    0.6649527 
H    -0.0363774    1.1966036    4.0404395 
H    -1.4056065   -0.9219573    3.7652931 
C     0.1550988    5.7501564    2.2814108 
C    -0.6902643    4.9928837    1.4540548 
C    -0.9437028    3.6489471    1.7472974 
C    -0.3635964    3.0349249    2.8827848 
C     0.4848182    3.8081762    3.7036856 
C     0.7420484    5.1515215    3.4060650 
H     0.3569444    6.8007043    2.0485223 
H    -1.1456239    5.4505680    0.5691770 
H    -1.5702624    3.0568635    1.0703128 
H     0.9442151    3.3463633    4.5838099 
H     1.4042583    5.7340476    4.0546202 
C    -5.5731237   -2.6115363    1.9449645 
C    -4.7048837   -3.0919925    2.9353280 
C    -3.5524437   -2.3707252    3.2691262 
C    -3.2558019   -1.1465011    2.6310737 
C    -4.1375425   -0.6756720    1.6297805 
C    -5.2811935   -1.4025737    1.2899959 
H    -6.4723323   -3.1771378    1.6797558 
H    -4.9214609   -4.0357081    3.4459695 
H    -2.8733772   -2.7533040    4.0388586 
H    -3.9111121    0.2523077    1.0974255 
H    -5.9491754   -1.0269462    0.5078187 
O     0.0610499   -0.2891698   -4.1040238 
O     3.0690855   -0.5122587   -3.3038413 
O     4.0863707   -0.0320642   -0.2130593 
O     2.8512119    2.1147916    2.6779497 
O    -0.9208748   -3.6678383    1.6064269 
O    -2.3697615    0.4948756   -0.8950970 
C     0.8714360    0.3327048   -1.9927890 
C     1.3137270   -1.0931152   -1.8639171 
C     1.0856112    1.3240206   -1.0075617 
C     0.6268983   -2.0616951   -1.0986659 
C     0.2345320    0.7134861   -3.2058251 
C     2.4612708   -1.4972067   -2.5974075 
C     0.6480090    2.6503972   -1.2098869 
C     1.0718861   -3.3968696   -1.0529421 
C    -0.1854881    2.0406019   -3.4132019 
C     2.9051594   -2.8323487   -2.5515263 
C     2.9689328   -0.3908982    0.5054672 
C     2.5513128    2.2397774    1.3390936 
C    -1.5347009   -3.0493759    0.5362979 
C    -1.9376320   -0.7873324   -1.1647084 
C     0.0268030    2.9973136   -2.4126951 
C     2.2044694   -3.7702910   -1.7841529 
C     3.1559997   -1.6360461    1.0704506 
C     3.2125784    3.3323912    0.8173051 
C    -2.6016866   -3.8100251    0.1108589 
C    -2.4769298   -1.2127227   -2.3611532 
C     4.4555381   -2.0727030    0.6622369 
C     3.9442121    3.9175928    1.8999253 
C    -2.6406981   -4.9632098    0.9589489 
C    -3.2942283   -0.1418140   -2.8430170 
C     4.9715599   -1.0621526   -0.1130656 
C     3.6936259    3.1359615    2.9995597 
C    -1.6008204   -4.8278880    1.8435792 
C    -3.1848864    0.8690572   -1.9183950 
C    -0.5123208    0.0083060   -5.3760410 
C     4.2530906   -0.8123572   -4.0392476 
H     0.7763358    3.3989699   -0.4249380 
H     0.5410907   -4.1378388   -0.4500298 
H    -0.6760458    2.3300616   -4.3451495 
H     3.7908926   -3.1441059   -3.1095544 
H    -0.3034575    4.0287993   -2.5747348 
H     2.5519944   -4.8081314   -1.7555483 
H     2.4359851   -2.1710775    1.6901147 
H     3.1923030    3.6617726   -0.2208867 
H    -3.2826908   -3.5612710   -0.7017624 
H    -2.2823022   -2.1699800   -2.8442597 
H     4.9448138   -3.0143240    0.9108082 
H     4.5775879    4.8040345    1.8637158 
H    -3.3599596   -5.7814401    0.9237678 
H    -3.8853633   -0.1204082   -3.7589327 
H     5.9182304   -0.9232809   -0.6336788 
H     4.0131356    3.1753748    4.0399029 
H    -1.2299775   -5.4324818    2.6699991 
H    -3.6015979    1.8726575   -1.8482169 
H     0.0986958    0.7473612   -5.9271449 
H    -0.5245833   -0.9427875   -5.9274179 
H    -1.5465075    0.3867179   -5.2700300 
H     4.0596682   -1.5656642   -4.8261215 
H     4.5635559    0.1337162   -4.5051165 
H     5.0568946   -1.1755261   -3.3707825 
