91
Energy =
C    -0.8815807    1.2463742    3.4125917 
C    -2.1254668    1.0837613    2.7591015 
C    -2.5861560   -0.2156380    2.3910926 
H    -2.6524612    1.9690995    2.3819709 
Pd   -0.6219463    0.1791067    1.4163198 
P    -0.8294335   -1.5298140   -0.1624912 
P     1.3623692    1.0186835    0.5090495 
H    -0.4488463    0.3543750    3.8942742 
H    -2.2899824   -1.0537004    3.0383030 
C     0.8761170    4.9123917    4.7940350 
C    -0.4605799    4.9043494    4.3636572 
C    -1.0406346    3.7237444    3.8880924 
C    -0.2969494    2.5220835    3.8501915 
C     1.0466319    2.5436280    4.2920651 
C     1.6296677    3.7282232    4.7507476 
H     1.3279422    5.8375190    5.1664876 
H    -1.0567004    5.8218686    4.4082159 
H    -2.0896432    3.7305724    3.5757958 
H     1.6366905    1.6206982    4.2601867 
H     2.6738245    3.7297568    5.0788145 
C    -5.9619753   -1.0557375   -0.1431005 
C    -5.3031779    0.1808252   -0.2466165 
C    -4.2152750    0.4720159    0.5809517 
C    -3.7628140   -0.4683173    1.5357542 
C    -4.4425636   -1.7032216    1.6367687 
C    -5.5296115   -1.9947469    0.8045053 
H    -6.8083211   -1.2838194   -0.7990991 
H    -5.6328405    0.9161993   -0.9877153 
H    -3.6843724    1.4213211    0.4570149 
H    -4.1093471   -2.4415130    2.3728078 
H    -6.0401126   -2.9588903    0.8976636 
O     0.6671094   -1.0449625   -4.1781253 
O     3.5004462   -0.9403986   -2.8607220 
O     3.9964750    0.3391931    0.0918109 
O     0.9494404    3.6269071    1.1781817 
O    -2.4876729   -3.7294316   -0.3299333 
O    -2.0900540    0.3332414   -1.6696831 
C     1.0782516   -0.0031111   -2.1186631 
C     1.5360541   -1.3462301   -1.6466294 
C     1.0815436    1.1541893   -1.3100335 
C     0.7515721   -2.1910835   -0.8341885 
C     0.6699178    0.1154488   -3.4748738 
C     2.8095273   -1.8056327   -2.0780718 
C     0.6986066    2.4034834   -1.8392887 
C     1.2264158   -3.4562475   -0.4358114 
C     0.2932962    1.3642452   -4.0030523 
C     3.2815219   -3.0720930   -1.6846228 
C     2.8381027    0.0169932    0.7642089 
C     1.9215427    2.6636985    1.0114950 
C    -1.6716199   -2.9933963    0.4927412 
C    -1.8153983   -1.0145891   -1.5827220 
C     0.3198249    2.4982686   -3.1814916 
C     2.4861323   -3.8849154   -0.8678345 
C     3.0547322   -1.0932834    1.5549457 
C     3.1651808    3.2170272    1.2410698 
C    -1.5897107   -3.6063632    1.7275054 
C    -2.3402383   -1.6664117   -2.6795923 
C     4.4188360   -1.4745067    1.3563582 
C     2.9428698    4.5937166    1.5592115 
C    -2.4087523   -4.7785813    1.6572084 
C    -2.9754297   -0.6644010   -3.4777233 
C     4.9396465   -0.5723384    0.4606501 
C     1.5848442    4.7874103    1.5049241 
C    -2.9344822   -4.7970220    0.3880617 
C    -2.7857446    0.5277440   -2.8185270 
C     0.2688899   -1.0252608   -5.5478683 
C     4.7811612   -1.3208711   -3.3576002 
H     0.6930947    3.2942469   -1.2069465 
H     0.6142372   -4.1027902    0.1987096 
H    -0.0150605    1.4577277   -5.0467069 
H     4.2618724   -3.4272610   -2.0101888 
H     0.0343548    3.4701646   -3.5974067 
H     2.8559942   -4.8709969   -0.5682556 
H     2.3107680   -1.5821902    2.1838940 
H     4.1182362    2.6951932    1.1690264 
H    -1.0081953   -3.2545906    2.5805470 
H    -2.2734753   -2.7351161   -2.8767944 
H     4.9445249   -2.3127735    1.8131002 
H     3.6948400    5.3446259    1.8018890 
H    -2.5916481   -5.5075934    2.4467108 
H    -3.5082155   -0.8079998   -4.4181631 
H     5.9231709   -0.4414278    0.0112655 
H     0.9378501    5.6446970    1.6798156 
H    -3.6155745   -5.4665985   -0.1354030 
H    -3.0701403    1.5572806   -3.0290838 
H    -0.7754445   -0.6755879   -5.6528818 
H     0.9387739   -0.3848366   -6.1519151 
H     0.3444800   -2.0655846   -5.8953612 
H     4.7138913   -2.2218228   -3.9960413 
H     5.1336758   -0.4699922   -3.9578191 
H     5.4926999   -1.5084075   -2.5307412 
