91
Energy =
C    -0.4006818    1.0871420    3.3915131 
C    -1.6810876    0.4676716    3.2431237 
C    -1.7807052   -0.9198878    2.9844267 
H    -2.5731782    1.1003997    3.1455803 
Pd   -0.5106444    0.1082584    1.4133066 
P    -1.1017673   -1.0861566   -0.5095718 
P     1.4219013    1.0205564    0.4856195 
H     0.4013088    0.4954610    3.8553815 
H    -0.9020166   -1.5418453    3.2202395 
C     0.1956713    5.3510220    3.4983900 
C    -0.8075843    4.8057702    2.6790437 
C    -1.0122670    3.4235480    2.6450417 
C    -0.2185259    2.5546059    3.4302879 
C     0.7839016    3.1165947    4.2478890 
C     0.9885081    4.5015979    4.2828135 
H     0.3584479    6.4334814    3.5208243 
H    -1.4249493    5.4629214    2.0576062 
H    -1.7755152    3.0039547    1.9787639 
H     1.4047915    2.4594742    4.8648451 
H     1.7728414    4.9173887    4.9236723 
C    -5.3561685   -3.1507272    2.1612738 
C    -5.4555832   -1.8774314    2.7431109 
C    -4.3009473   -1.1372418    3.0229630 
C    -3.0228905   -1.6664331    2.7363746 
C    -2.9363552   -2.9602513    2.1703704 
C    -4.0915291   -3.6900561    1.8752854 
H    -6.2615129   -3.7244044    1.9382010 
H    -6.4387938   -1.4604256    2.9845667 
H    -4.3950955   -0.1514096    3.4901719 
H    -1.9500407   -3.3796869    1.9433129 
H    -4.0060347   -4.6833053    1.4230247 
O     1.9259981   -2.4590993   -3.2878418 
O     2.5139366    0.5792934   -3.7694234 
O     2.8585878    1.0319779    2.8067713 
O     2.2701250    2.8211950   -1.4073685 
O     0.3964627   -3.1113279    0.5006713 
O    -3.3239003   -2.3882957   -1.4725834 
C     1.8492203   -0.8550419   -1.5803654 
C     0.7818075   -0.1850703   -2.3862299 
C     2.3282495   -0.3483639   -0.3522085 
C    -0.5921102   -0.2685385   -2.0774866 
C     2.4499730   -2.0270214   -2.1128732 
C     1.1783128    0.5490698   -3.5364155 
C     3.3806286   -0.9907420    0.3316102 
C    -1.5535991    0.3825661   -2.8752869 
C     3.4994849   -2.6681377   -1.4289228 
C     0.2169505    1.1939495   -4.3371536 
C     2.6095701    1.7401362    1.6488286 
C     1.1842186    2.3509071   -0.7016694 
C    -0.3923890   -2.7448309   -0.5716510 
C    -2.8788462   -1.3364887   -0.7047555 
C     3.9600943   -2.1387268   -0.2169091 
C    -1.1390452    1.1061260   -3.9985693 
C     3.3665023    2.8918750    1.6388713 
C     0.0514353    3.0457805   -1.0722526 
C    -0.4330684   -3.7724134   -1.4901794 
C    -3.9568575   -0.5926693   -0.2705857 
C     4.1281469    2.8880464    2.8518048 
C     0.4625124    3.9927554   -2.0616917 
C     0.3756968   -4.8243376   -0.9558517 
C    -5.1269013   -1.2248538   -0.7971507 
C     3.7878305    1.7383113    3.5176669 
C     1.8149712    3.8117151   -2.2246780 
C     0.8567186   -4.3664408    0.2480823 
C    -4.6829829   -2.3099946   -1.5128745 
C     2.4838346   -3.6135884   -3.9133770 
C     3.0070099    1.2860099   -4.9049141 
H     3.7405933   -0.6018071    1.2865274 
H    -2.6156570    0.3194668   -2.6213386 
H     3.9612187   -3.5702040   -1.8364145 
H     0.5180397    1.7638571   -5.2190147 
H     4.7828877   -2.6348767    0.3082146 
H    -1.8826496    1.6080046   -4.6263644 
H     3.3784340    3.6405533    0.8484258 
H    -0.9527509    2.8774823   -0.6849295 
H    -0.9765929   -3.7587751   -2.4337190 
H    -3.9072599    0.2934682    0.3619707 
H     4.8386413    3.6443576    3.1856195 
H    -0.1638204    4.7120340   -2.5890213 
H     0.5737376   -5.7991293   -1.4025555 
H    -6.1639228   -0.9252209   -0.6483980 
H     4.0962756    1.2942082    4.4630476 
H     2.5681666    4.2920182   -2.8479918 
H     1.5089595   -4.7926544    1.0087725 
H    -5.1851878   -3.0939453   -2.0782236 
H     2.3758385   -4.5070866   -3.2699602 
H     1.9101824   -3.7572658   -4.8402121 
H     3.5512261   -3.4598916   -4.1593468 
H     2.7489316    2.3609656   -4.8511080 
H     4.0999116    1.1700695   -4.8777410 
H     2.6127210    0.8600541   -5.8467289 
