91
Energy =
C    -0.6945705    1.8032861    3.0230601 
C    -1.3985459    0.6033854    3.3583904 
C    -0.7067157   -0.6210496    3.5003472 
H    -2.4956607    0.5945492    3.3202751 
Pd   -0.3212111    0.2886826    1.4569853 
P    -0.3537719   -1.5866939    0.0657106 
P     0.7846336    1.6616125   -0.0802506 
H     0.3193014    1.9272756    3.4291291 
H     0.3830493   -0.5731404    3.6593220 
C    -2.5744933    5.4557842    1.7328702 
C    -3.2205582    4.2257817    1.5225933 
C    -2.6244836    3.0358011    1.9492861 
C    -1.3687875    3.0480626    2.6024035 
C    -0.7360998    4.2925516    2.8138502 
C    -1.3315205    5.4836024    2.3812841 
H    -3.0400743    6.3861351    1.3919924 
H    -4.1898606    4.1964067    1.0139084 
H    -3.1251178    2.0812696    1.7493238 
H     0.2336423    4.3226411    3.3195518 
H    -0.8215359    6.4370701    2.5537286 
C    -2.4314141   -4.4945992    4.1680553 
C    -1.1196941   -4.3675194    3.6823487 
C    -0.5634376   -3.0992507    3.4930772 
C    -1.3168500   -1.9324200    3.7629416 
C    -2.6335430   -2.0737915    4.2545594 
C    -3.1814341   -3.3452805    4.4613524 
H    -2.8652161   -5.4874282    4.3248148 
H    -0.5289134   -5.2599846    3.4524643 
H     0.4575931   -2.9999806    3.1077600 
H    -3.2249785   -1.1860715    4.5021279 
H    -4.1976904   -3.4401877    4.8576549 
O     2.4704284   -2.1024860   -3.1630884 
O     1.2905871    0.5623835   -4.3111769 
O     1.3908348    4.3349539    0.0782014 
O     0.3606832    3.0089347   -2.4277886 
O     2.1310655   -2.1931221    0.9725448 
O    -1.5729124   -4.0536262    0.0492478 
C     1.8270664   -0.2983015   -1.8129924 
C     0.4574858   -0.4852764   -2.3854825 
C     2.1517961    0.7180586   -0.8863806 
C    -0.5971679   -1.1203610   -1.6974193 
C     2.8657646   -1.1414587   -2.2903785 
C     0.2253796   -0.0218582   -3.7088442 
C     3.4819676    0.8991823   -0.4586686 
C    -1.8663873   -1.2641931   -2.2919504 
C     4.1916292   -0.9652864   -1.8530194 
C    -1.0409606   -0.1702370   -4.3046558 
C     1.5777360    3.1123795    0.6713042 
C    -0.2432625    2.3482984   -1.3838753 
C     1.1318463   -2.6092668    0.1149910 
C    -1.7052963   -2.7333523    0.4135144 
C     4.4885491    0.0624186   -0.9500907 
C    -2.0754429   -0.7867601   -3.5900659 
C     2.3818240    3.2593667    1.7861209 
C    -1.6118428    2.3418485   -1.5614443 
C     1.5347403   -3.7490254   -0.5482785 
C    -2.9602249   -2.5259905    0.9488709 
C     2.7141026    4.6494793    1.8680216 
C    -1.8616433    3.0399304   -2.7834788 
C     2.8518328   -4.0468654   -0.0768895 
C    -3.6325061   -3.7879069    0.9138788 
C     2.0771491    5.2535529    0.8110092 
C    -0.6301474    3.4208055   -3.2626414 
C     3.1634014   -3.0689560    0.8379300 
C    -2.7420570   -4.6773771    0.3635685 
C     3.4492067   -2.9752949   -3.7248610 
C     1.1572525    1.0464628   -5.6453476 
H     3.7330565    1.6985180    0.2423660 
H    -2.6797331   -1.7503942   -1.7454799 
H     4.9904998   -1.6142617   -2.2184478 
H    -1.2251249    0.1917612   -5.3185416 
H     5.5235821    0.2109293   -0.6251459 
H    -3.0581435   -0.9011569   -4.0592496 
H     2.6982273    2.4636041    2.4618906 
H    -2.3380990    1.8808363   -0.8935129 
H     0.9488990   -4.2931449   -1.2874089 
H    -3.3427847   -1.5796997    1.3309610 
H     3.3374964    5.1380755    2.6170212 
H    -2.8277370    3.2330885   -3.2494284 
H     3.4882216   -4.8814002   -0.3727589 
H    -4.6383927   -4.0110785    1.2684155 
H     2.0115453    6.2820230    0.4589940 
H    -0.3057083    3.9762177   -4.1417116 
H     4.0396224   -2.8644278    1.4512398 
H    -2.7824518   -5.7436149    0.1447334 
H     3.9488080   -3.5728801   -2.9391702 
H     2.8987389   -3.6450469   -4.4010421 
H     4.2067452   -2.4105829   -4.2999231 
H     0.3833793    1.8349012   -5.7100394 
H     2.1363200    1.4719531   -5.9078507 
H     0.9085139    0.2282275   -6.3472139 
