91
Energy =
C    -0.1981806    0.6921693    3.5405484 
C    -1.5772900    0.4988926    3.2842753 
C    -2.0487372   -0.7691468    2.8237887 
H    -2.2544827    1.3629516    3.2612159 
Pd   -0.5434915    0.0145149    1.4061001 
P    -0.9627737   -1.4846014   -0.3256729 
P     1.1082850    1.2111154    0.2635596 
H     0.4162300   -0.2110908    3.6862661 
H    -1.5253474   -1.6653384    3.1872696 
C     1.7533188    4.3344132    4.7074714 
C     0.3580661    4.2326635    4.8186420 
C    -0.2958468    3.0534319    4.4424367 
C     0.4397431    1.9481193    3.9601191 
C     1.8475569    2.0586331    3.8686274 
C     2.4965516    3.2430207    4.2291287 
H     2.2610806    5.2596489    4.9983822 
H    -0.2238833    5.0754871    5.2058366 
H    -1.3834001    2.9845661    4.5495100 
H     2.4274859    1.2086999    3.4913716 
H     3.5851649    3.3154055    4.1392696 
C    -6.0473210   -1.4665115    1.3870094 
C    -5.4126985   -2.4085153    2.2087430 
C    -4.1126450   -2.1737703    2.6745904 
C    -3.4284340   -0.9887069    2.3343807 
C    -4.0797243   -0.0454906    1.5054919 
C    -5.3746289   -0.2835500    1.0358287 
H    -7.0605886   -1.6530562    1.0163677 
H    -5.9287496   -3.3340468    2.4842914 
H    -3.6202007   -2.9153235    3.3121368 
H    -3.5457423    0.8603533    1.1950196 
H    -5.8597017    0.4504600    0.3837884 
O     0.6569286   -1.0073312   -4.3568330 
O     3.4368456   -0.6649850   -2.8698395 
O     2.8710705   -0.5892318    1.2732732 
O     2.4704429    3.5769682    0.6099692 
O    -1.4356343   -3.6418201    1.2750909 
O    -2.4565689    0.3555230   -1.6599994 
C     0.9220979    0.1199729   -2.3180130 
C     1.4286894   -1.1806033   -1.7740013 
C     0.8300418    1.3027441   -1.5540014 
C     0.6565833   -2.0623765   -0.9847437 
C     0.5754392    0.1752914   -3.6942704 
C     2.7507734   -1.5674713   -2.1235384 
C     0.4117971    2.5138879   -2.1407976 
C     1.1823309   -3.2977922   -0.5545309 
C     0.1623151    1.3851841   -4.2818098 
C     3.2753221   -2.8003955   -1.6930567 
C     2.7658098    0.5250574    0.4649552 
C     1.2618706    2.9379504    0.7681721 
C    -1.8709707   -2.9825745    0.1439291 
C    -1.9142101   -0.9066912   -1.7437715 
C     0.0923316    2.5460714   -3.5012407 
C     2.4828412   -3.6577178   -0.9198429 
C     4.0061340    0.8474629   -0.0440352 
C     0.3226834    3.8338681    1.2366860 
C    -2.9687900   -3.6348664   -0.3760293 
C    -2.2194319   -1.4644187   -2.9691428 
C     4.9210643   -0.1207509    0.4768404 
C     0.9925550    5.0896514    1.3772046 
C    -3.2084114   -4.7659126    0.4694442 
C    -2.9954654   -0.4905029   -3.6724153 
C     4.1774194   -0.9683323    1.2637652 
C     2.2922388    4.8731297    0.9883765 
C    -2.2506135   -4.7252585    1.4495387 
C    -3.1032905    0.5921158   -2.8317015 
C     0.3519846   -1.0445719   -5.7500832 
C     4.7668674   -0.9737556   -3.2839196 
H     0.3406294    3.4225449   -1.5366871 
H     0.5847447   -3.9680820    0.0668471 
H    -0.1027986    1.4282114   -5.3405389 
H     4.2923749   -3.0963407   -1.9595602 
H    -0.2212633    3.4873373   -3.9645226 
H     2.8916538   -4.6197303   -0.5938107 
H     4.2200197    1.6784022   -0.7146911 
H    -0.7198156    3.6071534    1.4595364 
H    -3.5392654   -3.3297045   -1.2518962 
H    -1.8979041   -2.4439174   -3.3222199 
H     5.9950131   -0.1807262    0.2976942 
H     0.5705700    6.0268171    1.7390746 
H    -3.9990136   -5.5090397    0.3655178 
H    -3.4191804   -0.5776599   -4.6732165 
H     4.4179982   -1.8494099    1.8567111 
H     3.1761362    5.5072593    0.9337171 
H    -2.0196476   -5.3560962    2.3067390 
H    -3.5813206    1.5665621   -2.9192100 
H     1.0306999   -0.3891114   -6.3273107 
H     0.4988236   -2.0891348   -6.0601812 
H    -0.6974121   -0.7475411   -5.9375614 
H     4.7898652   -1.8814188   -3.9156582 
H     5.1044050   -0.1083970   -3.8721112 
H     5.4339817   -1.1108937   -2.4120836 
