91
Energy =
C    -0.2115756    0.4879866    3.5391513 
C    -1.6004891    0.4394341    3.2738783 
C    -2.1876423   -0.7650660    2.7671382 
H    -2.1875874    1.3662212    3.2778733 
Pd   -0.6067023   -0.0856281    1.3898152 
P    -0.9836439   -1.5451322   -0.3803814 
P     1.0154574    1.1819398    0.2976839 
H     0.3004925   -0.4779432    3.6761598 
H    -1.7619859   -1.7202264    3.1055953 
C     2.1710252    3.8113892    4.8531377 
C     0.7889191    3.9831145    4.6725762 
C    -0.0045846    2.9191278    4.2337449 
C     0.5702234    1.6539335    3.9765419 
C     1.9639587    1.4947574    4.1627799 
C     2.7571306    2.5634175    4.5921957 
H     2.7873421    4.6477901    5.1985882 
H     0.3272560    4.9545580    4.8760711 
H    -1.0803466    3.0715513    4.1030442 
H     2.4214807    0.5214173    3.9566200 
H     3.8339358    2.4213022    4.7308875 
C    -6.1569246   -1.0413853    1.1201883 
C    -5.5508229   -2.1583281    1.7125485 
C    -4.2650026   -2.0549921    2.2571820 
C    -3.5588288   -0.8335098    2.2212642 
C    -4.1817602    0.2853837    1.6175226 
C    -5.4661675    0.1819544    1.0761039 
H    -7.1610978   -1.1211955    0.6913209 
H    -6.0795835   -3.1163568    1.7502008 
H    -3.7987638   -2.9316057    2.7181183 
H    -3.6414500    1.2366616    1.5473097 
H    -5.9309389    1.0563584    0.6083976 
O     0.8216438   -0.9959223   -4.3547060 
O     3.4891478   -0.6074179   -2.7737952 
O     2.9659913   -0.3687376    1.3760866 
O    -0.2274257    3.4953924    0.9694466 
O    -1.5247742   -3.6793423    1.2282574 
O    -2.0297890   -1.6652045   -2.9208758 
C     0.9292343    0.1169572   -2.2940772 
C     1.4611762   -1.1657225   -1.7370164 
C     0.7543388    1.2853394   -1.5212867 
C     0.6783340   -2.0666632   -0.9817571 
C     0.6198980    0.1630587   -3.6796962 
C     2.8022552   -1.5212522   -2.0407997 
C     0.2594911    2.4691032   -2.1035230 
C     1.2184046   -3.2867466   -0.5272692 
C     0.1291071    1.3469242   -4.2616044 
C     3.3424479   -2.7373415   -1.5830342 
C     2.7317522    0.6652638    0.4944933 
C     1.0162191    2.9062926    0.8523900 
C    -1.8535609   -3.0796467    0.0295258 
C    -1.9245063   -0.9096078   -1.7733210 
C    -0.0475726    2.4872938   -3.4684602 
C     2.5433716   -3.6109720   -0.8347228 
C     3.9164359    1.0387432   -0.1066971 
C     1.9944776    3.8268799    1.1580291 
C    -2.8290521   -3.8183260   -0.6050175 
C    -2.6185828    0.2727077   -1.9267493 
C     4.9323975    0.1943612    0.4420075 
C     1.3182825    5.0507090    1.4673207 
C    -3.1103411   -4.9360108    0.2452121 
C    -3.1783664    0.2446532   -3.2422684 
C     4.2973601   -0.6413915    1.3300953 
C    -0.0227072    4.7951986    1.3343471 
C    -2.2900450   -4.8063050    1.3373131 
C    -2.7899981   -0.9509375   -3.7976061 
C     0.5437842   -1.0449543   -5.7519656 
C     4.8232266   -0.9063361   -3.1813961 
H     0.1149911    3.3674158   -1.4988646 
H     0.6114085   -3.9744137    0.0663627 
H    -0.1167173    1.3848293   -5.3252019 
H     4.3754405   -3.0094956   -1.8111058 
H    -0.4278842    3.4060645   -3.9268209 
H     2.9643585   -4.5602325   -0.4875615 
H     4.0290706    1.8086680   -0.8696657 
H     3.0676106    3.6403541    1.1643245 
H    -3.2784311   -3.5853794   -1.5691985 
H    -2.6997372    1.0623712   -1.1805478 
H     5.9977724    0.2028750    0.2101079 
H     1.7719084    5.9967964    1.7625596 
H    -3.8299208   -5.7352003    0.0665783 
H    -3.7875149    1.0130207   -3.7179905 
H     4.6375300   -1.4486310    1.9771891 
H    -0.9211814    5.3958274    1.4683375 
H    -2.1327530   -5.3985671    2.2377159 
H    -2.9714113   -1.4268509   -4.7604736 
H     0.7776874   -2.0718156   -6.0672479 
H    -0.5226078   -0.8305160   -5.9560856 
H     1.1763353   -0.3319712   -6.3137220 
H     5.1541679   -0.0429905   -3.7763882 
H     5.4905269   -1.0298531   -2.3075779 
H     4.8559721   -1.8192750   -3.8048606 
