91
Energy =
C    -0.2686749    0.6734786    3.5419147 
C    -1.6403564    0.4618275    3.2613392 
C    -2.0857181   -0.8108013    2.7881438 
H    -2.3288124    1.3166489    3.2302080 
Pd   -0.5656110   -0.0001978    1.3998892 
P    -0.9280984   -1.5019192   -0.3436487 
P     1.0837241    1.2286760    0.2888504 
H     0.3560236   -0.2214699    3.6950109 
H    -1.5554064   -1.7008646    3.1563473 
C     1.6097601    4.3369392    4.7612527 
C     0.2144358    4.2146093    4.8478892 
C    -0.4159233    3.0283887    4.4538455 
C     0.3436498    1.9365136    3.9781503 
C     1.7510503    2.0677913    3.9111497 
C     2.3766798    3.2592032    4.2893429 
H     2.0991124    5.2676156    5.0660299 
H    -0.3860797    5.0466949    5.2299115 
H    -1.5040062    2.9431597    4.5420852 
H     2.3495109    1.2284053    3.5392587 
H     3.4655017    3.3477330    4.2184557 
C    -6.0444332   -1.5629626    1.2717165 
C    -5.4043623   -2.5062607    2.0877439 
C    -4.1177633   -2.2529789    2.5802460 
C    -3.4521114   -1.0486964    2.2718071 
C    -4.1084449   -0.1048793    1.4475709 
C    -5.3903428   -0.3606940    0.9524091 
H    -7.0473926   -1.7633289    0.8808092 
H    -5.9055895   -3.4469110    2.3383130 
H    -3.6215151   -2.9948836    3.2143694 
H    -3.5879500    0.8164092    1.1607584 
H    -5.8796796    0.3747823    0.3052360 
O     0.7368369   -0.9673913   -4.3518377 
O     3.4867558   -0.5838681   -2.8276057 
O     2.8654015   -0.5483791    1.3066535 
O     2.4058385    3.6109716    0.6779910 
O    -1.3787098   -3.6632638    1.2568181 
O    -2.4558718    0.3017890   -1.6895707 
C     0.9503794    0.1507292   -2.3017981 
C     1.4754164   -1.1433150   -1.7597804 
C     0.8237377    1.3260915   -1.5312393 
C     0.7101917   -2.0442623   -0.9856626 
C     0.6200146    0.2082147   -3.6820015 
C     2.8082997   -1.5038587   -2.0959386 
C     0.3855542    2.5316464   -2.1150038 
C     1.2529066   -3.2730807   -0.5577589 
C     0.1865443    1.4124929   -4.2662927 
C     3.3498646   -2.7301837   -1.6676498 
C     2.7502871    0.5699352    0.5053308 
C     1.2031572    2.9545950    0.8062112 
C    -1.8064138   -3.0216882    0.1126319 
C    -1.8735476   -0.9424455   -1.7731147 
C     0.0806570    2.5659002   -3.4787307 
C     2.5639119   -3.6070917   -0.9098887 
C     3.9907208    0.9175923    0.0134469 
C     0.2422923    3.8343077    1.2614969 
C    -2.8700230   -3.7097633   -0.4315553 
C    -2.1419134   -1.5004934   -3.0069571 
C     4.9161145   -0.0386049    0.5379303 
C     0.8917981    5.0980184    1.4244938 
C    -3.0957736   -4.8444359    0.4129106 
C    -2.9365715   -0.5459329   -3.7159680 
C     4.1781315   -0.9047247    1.3098740 
C     2.2021785    4.9017982    1.0616631 
C    -2.1642113   -4.7704913    1.4161893 
C    -3.0912507    0.5266942   -2.8697636 
C     0.4504061   -1.0012783   -5.7490995 
C     4.8266715   -0.8660124   -3.2285526 
H     0.2882488    3.4346184   -1.5060228 
H     0.6599795   -3.9585599    0.0514799 
H    -0.0667170    1.4569990   -5.3278566 
H     4.3751939   -3.0058947   -1.9239205 
H    -0.2492074    3.5029575   -3.9392326 
H     2.9861815   -4.5638599   -0.5855827 
H     4.1980604    1.7571975   -0.6483963 
H    -0.8012920    3.5917605    1.4614638 
H    -3.4273383   -3.4257504   -1.3229134 
H    -1.7843738   -2.4668961   -3.3614586 
H     5.9929497   -0.0787888    0.3709909 
H     0.4496201    6.0268243    1.7837878 
H    -3.8602039   -5.6121279    0.2928925 
H    -3.3415992   -0.6388793   -4.7239543 
H     4.4269917   -1.7858351    1.8993366 
H     3.0783879    5.5480455    1.0301351 
H    -1.9353786   -5.3905395    2.2818065 
H    -3.5982119    1.4863304   -2.9581818 
H     1.1211137   -0.3262033   -6.3129064 
H     0.6251184   -2.0398821   -6.0647141 
H    -0.6030839   -0.7269680   -5.9478219 
H     5.4861593   -0.9978932   -2.3501303 
H     4.8729443   -1.7684077   -3.8665323 
H     5.1554977    0.0095136   -3.8065454 
