91
Energy =
C    -0.6696586    1.6027447    3.2147825 
C    -1.9088148    0.9857213    2.8600747 
C    -2.1015806   -0.4091102    2.9984923 
H    -2.6584529    1.5740253    2.3162406 
Pd   -0.3343469    0.0495674    1.6604799 
P    -0.7601166   -1.5076580   -0.0333591 
P     1.6417455    0.8047444    0.6991699 
H    -0.0954161    1.1703761    4.0469693 
H    -1.4734666   -0.9358823    3.7340079 
C     0.1555907    5.7347460    2.3227518 
C    -0.6770137    4.9874125    1.4737243 
C    -0.9436911    3.6431272    1.7532664 
C    -0.3895914    3.0186288    2.8959902 
C     0.4467925    3.7817762    3.7384092 
C     0.7168922    5.1256478    3.4548730 
H     0.3673755    6.7857489    2.1010127 
H    -1.1115917    5.4530145    0.5825458 
H    -1.5597425    3.0588216    1.0600439 
H     0.8862560    3.3117339    4.6243364 
H     1.3688100    5.7004919    4.1204942 
C    -5.6204513   -2.5873992    1.8350643 
C    -5.3110768   -1.3757334    1.1932962 
C    -4.1688076   -0.6579533    1.5562979 
C    -3.3060280   -1.1408722    2.5682516 
C    -3.6203026   -2.3673269    3.1934189 
C    -4.7713138   -3.0795051    2.8361951 
H    -6.5183691   -3.1460299    1.5513351 
H    -5.9642894   -0.9907911    0.4032198 
H    -3.9284547    0.2722518    1.0340553 
H    -2.9562626   -2.7587761    3.9717498 
H    -5.0018126   -4.0251329    3.3371129 
O     0.1241135   -0.2553593   -4.1032270 
O     3.1181565   -0.5117484   -3.2584069 
O     4.0900107   -0.0664499   -0.1472511 
O     2.8165249    2.0725827    2.7458235 
O    -0.9745854   -3.6700398    1.5652198 
O    -2.3499165    0.5219673   -0.9275276 
C     0.9076164    0.3416960   -1.9747370 
C     1.3352453   -1.0890904   -1.8512317 
C     1.1157898    1.3230838   -0.9782735 
C     0.6280950   -2.0580144   -1.1051946 
C     0.2931897    0.7383206   -3.1942824 
C     2.4906430   -1.4971316   -2.5700653 
C     0.6946609    2.6552977   -1.1768415 
C     1.0607013   -3.3974072   -1.0639106 
C    -0.1109202    2.0710521   -3.3973522 
C     2.9220849   -2.8365057   -2.5287472 
C     2.9584383   -0.4209109    0.5509662 
C     2.5483648    2.2066021    1.4011951 
C    -1.5656361   -3.0408914    0.4885019 
C    -1.9244974   -0.7617466   -1.2007920 
C     0.0952868    3.0177475   -2.3861311 
C     2.2011923   -3.7747215   -1.7806751 
C     3.1253145   -1.6725142    1.1079799 
C     3.2323465    3.2946416    0.8995156 
C    -2.6288482   -3.7926833    0.0386157 
C    -2.4490196   -1.1729954   -2.4086867 
C     4.4267939   -2.1179031    0.7156811 
C     3.9450146    3.8676286    2.0011583 
C    -2.6894325   -4.9514083    0.8778600 
C    -3.2497809   -0.0913566   -2.8943484 
C     4.9640083   -1.1056109   -0.0427707 
C     3.6615715    3.0837447    3.0911989 
C    -1.6648718   -4.8279594    1.7819122 
C    -3.1459899    0.9112551   -1.9601312 
C    -0.4274664    0.0576975   -5.3811434 
C     4.3108823   -0.8161496   -3.9777601 
H     0.8186981    3.3965080   -0.3842738 
H     0.5142081   -4.1386114   -0.4754663 
H    -0.5839820    2.3727231   -4.3344628 
H     3.8138749   -3.1512658   -3.0753170 
H    -0.2222798    4.0537131   -2.5449780 
H     2.5388712   -4.8159088   -1.7560147 
H     2.3911202   -2.2058554    1.7122481 
H     3.2387651    3.6286413   -0.1373962 
H    -3.2937183   -3.5346109   -0.7843883 
H    -2.2552720   -2.1280849   -2.8964076 
H     4.9033634   -3.0662817    0.9632357 
H     4.5878451    4.7478054    1.9834664 
H    -3.4124079   -5.7653532    0.8241824 
H    -3.8268407   -0.0578026   -3.8188301 
H     5.9197897   -0.9711709   -0.5476598 
H     3.9577089    3.1154615    4.1386965 
H    -1.3121767   -5.4403363    2.6105381 
H    -3.5550865    1.9178710   -1.8882904 
H     0.1984531    0.7954661   -5.9170356 
H    -0.4402319   -0.8887616   -5.9404233 
H    -1.4595988    0.4448353   -5.2872948 
H     4.1232891   -1.5612622   -4.7737984 
H     4.6367296    0.1309572   -4.4308489 
H     5.1009868   -1.1918053   -3.2999251 
