91
Energy =
C    -0.5388385    1.0565209    3.3848984 
C    -1.7922024    0.3942646    3.1954792 
C    -1.8367300   -0.9945817    2.9289898 
H    -2.7023055    0.9961263    3.0726564 
Pd   -0.5546191    0.0813665    1.4013000 
P    -1.0540793   -1.1133475   -0.5462317 
P     1.3808993    1.0518619    0.5393160 
H     0.2683926    0.4908352    3.8714821 
H    -0.9449454   -1.5877666    3.1888065 
C    -0.0856666    5.3374510    3.5118252 
C    -1.0588096    4.7620645    2.6768805 
C    -1.2174151    3.3739981    2.6360138 
C    -0.4068675    2.5289396    3.4303729 
C     0.5650809    3.1211891    4.2634739 
C     0.7237509    4.5119806    4.3048888 
H     0.0409483    6.4246123    3.5395988 
H    -1.6887320    5.4005862    2.0486531 
H    -1.9574278    2.9323614    1.9579173 
H     1.1987771    2.4829687    4.8871575 
H     1.4849231    4.9512016    4.9579338 
C    -5.3082779   -3.3386401    1.9848649 
C    -5.4680994   -2.0753029    2.5749467 
C    -4.3480770   -1.2988191    2.8944843 
C    -3.0449591   -1.7811928    2.6400083 
C    -2.8977265   -3.0658282    2.0656826 
C    -4.0181762   -3.8317479    1.7308813 
H    -6.1866187   -3.9405658    1.7304770 
H    -6.4716287   -1.6945657    2.7914543 
H    -4.4892400   -0.3215770    3.3678271 
H    -1.8914155   -3.4489312    1.8632854 
H    -3.8855882   -4.8170113    1.2726043 
O     2.0865762   -2.3674482   -3.2568618 
O     2.5996942    0.6912164   -3.6877311 
O     2.7381246    1.0720860    2.9071780 
O     2.2380613    2.8970966   -1.3063503 
O     0.4784296   -3.1037243    0.4814029 
O    -3.2093308   -2.4716251   -1.5820393 
C     1.9168062   -0.7872335   -1.5339443 
C     0.8531147   -0.1373293   -2.3607916 
C     2.3472468   -0.2822045   -0.2873532 
C    -0.5256946   -0.2620795   -2.0900427 
C     2.5655560   -1.9348625   -2.0630881 
C     1.2596574    0.6213334   -3.4913878 
C     3.3985942   -0.9024781    0.4180351 
C    -1.4832533    0.3722561   -2.9058746 
C     3.6142493   -2.5538582   -1.3577709 
C     0.3024638    1.2492509   -4.3103646 
C     2.5163552    1.7841571    1.7460861 
C     1.1444532    2.3906953   -0.6384671 
C    -0.2945674   -2.7497177   -0.6065193 
C    -2.8168843   -1.4142286   -0.7934599 
C     4.0258773   -2.0265111   -0.1273866 
C    -1.0591141    1.1204302   -4.0092959 
C     3.2554710    2.9472193    1.7681732 
C     0.0054990    3.0613903   -1.0338301 
C    -0.2821442   -3.7685816   -1.5355261 
C    -3.9280912   -0.7067962   -0.3827483 
C     3.9762135    2.9472584    3.0058630 
C     0.4207512    4.0305937   -1.9997372 
C     0.5442396   -4.8015869   -0.9913687 
C    -5.0640044   -1.3684787   -0.9465544 
C     3.6317870    1.7880958    3.6531503 
C     1.7815804    3.8859965   -2.1249437 
C     0.9818496   -4.3420328    0.2284005 
C    -4.5685583   -2.4333205   -1.6589240 
C     2.6941001   -3.4982404   -3.8794486 
C     3.1030853    1.4224431   -4.8030049 
H     3.7212063   -0.5149956    1.3868772 
H    -2.5495584    0.2769055   -2.6814464 
H     4.1130663   -3.4371843   -1.7626376 
H     0.6109708    1.8378972   -5.1772535 
H     4.8480202   -2.5053223    0.4145874 
H    -1.7993601    1.6094320   -4.6510677 
H     3.2820854    3.7008362    0.9827726 
H    -1.0047289    2.8633125   -0.6776259 
H    -0.8027430   -3.7613166   -2.4919548 
H    -3.9221512    0.1745015    0.2584328 
H     4.6634292    3.7121315    3.3677626 
H    -0.2082908    4.7402495   -2.5367975 
H     0.7820541   -5.7654983   -1.4422511 
H    -6.1131988   -1.1011048   -0.8238873 
H     3.9152338    1.3425824    4.6056797 
H     2.5401129    4.3930462   -2.7199744 
H     1.6276445   -4.7563818    1.0010471 
H    -5.0313786   -3.2266885   -2.2443855 
H     2.5944737   -4.4018525   -3.2489173 
H     2.1500635   -3.6473870   -4.8231204 
H     3.7628776   -3.3113665   -4.0944560 
H     2.7449190    0.9959253   -5.7588772 
H     2.8151175    2.4895651   -4.7456732 
H     4.1976145    1.3350816   -4.7482359 
