91
Energy =
C    -0.3140514    1.2762858    3.5015784 
C    -1.5866989    0.7436163    3.1887727 
C    -1.7573114   -0.6573090    2.9854930 
H    -2.4087463    1.4261907    2.9401083 
Pd   -0.2614189    0.1302908    1.5309370 
P    -0.4228206   -1.6967180    0.0870658 
P     1.1524740    1.3594178    0.1354315 
H     0.4441427    0.5717474    3.8800798 
H    -1.0963939   -1.3303506    3.5505220 
C     0.6461231    5.3686491    4.3823195 
C    -0.6975918    4.9909310    4.2254158 
C    -1.0257914    3.6690963    3.9087939 
C    -0.0139870    2.6923618    3.7576702 
C     1.3346710    3.0875992    3.9180899 
C     1.6613710    4.4126768    4.2215196 
H     0.9002765    6.4035011    4.6338241 
H    -1.4943332    5.7298211    4.3613571 
H    -2.0792017    3.3889964    3.8108192 
H     2.1288617    2.3421705    3.7979423 
H     2.7108159    4.7016180    4.3368503 
C    -5.3127519   -2.5463153    1.4646314 
C    -5.0437393   -1.2054631    1.1429334 
C    -3.9001439   -0.5761680    1.6422932 
C    -2.9987268   -1.2751944    2.4784285 
C    -3.2879750   -2.6197295    2.8026607 
C    -4.4325045   -3.2493259    2.2997258 
H    -6.2052100   -3.0386853    1.0648973 
H    -5.7243289   -0.6527210    0.4872012 
H    -3.6806860    0.4546807    1.3464854 
H    -2.6036555   -3.1751642    3.4515649 
H    -4.6360613   -4.2928658    2.5614379 
O    -0.0996450   -1.1864232   -4.1777183 
O     2.8637574   -0.2830159   -3.5943019 
O     3.3041551   -0.1779227    0.7781337 
O     0.2291162    3.8395352    0.7797321 
O    -1.4941789   -4.2209865    0.4077740 
O    -2.4426779   -0.3134237   -1.0753960 
C     0.5126983    0.0921086   -2.3088931 
C     1.3880758   -1.0693999   -1.9508813 
C     0.4075669    1.2803545   -1.5513224 
C     1.0469716   -2.0253070   -0.9712235 
C    -0.2271908   -0.0065534   -3.5196571 
C     2.5832829   -1.2599622   -2.6938120 
C    -0.4021111    2.3473578   -1.9915372 
C     1.8656406   -3.1484816   -0.7370002 
C    -1.0298929    1.0619416   -3.9603698 
C     3.3981586   -2.3837936   -2.4654187 
C     2.8648719    0.8229674   -0.0600122 
C     1.3692195    3.1232856    0.4841302 
C    -0.6859648   -3.2600794    0.9627437 
C    -1.8269889   -1.5458643   -1.0370119 
C    -1.1022365    2.2329442   -3.1959503 
C     3.0272747   -3.3229082   -1.4947197 
C     3.8802819    1.1857530   -0.9219465 
C     2.4650290    3.9621621    0.5333116 
C    -0.1276442   -3.7443645    2.1291467 
C    -2.4238017   -2.3905039   -1.9501265 
C     5.0029569    0.3636813   -0.5917889 
C     1.9659920    5.2633205    0.8571967 
C    -0.6303753   -5.0740441    2.3005427 
C    -3.4654860   -1.6367313   -2.5757627 
C     4.5942539   -0.4452237    0.4418593 
C     0.6073309    5.1318280    0.9941514 
C    -1.4608355   -5.3057556    1.2307980 
C    -3.4251987   -0.3841406   -2.0092171 
C    -0.8158985   -1.3837753   -5.3956746 
C     4.0299641   -0.4027399   -4.4074478 
H    -0.4896593    3.2576482   -1.3946177 
H     1.5917771   -3.8822870    0.0254983 
H    -1.5939847    0.9870377   -4.8926644 
H     4.3162871   -2.5318232   -3.0383128 
H    -1.7218287    3.0656904   -3.5448617 
H     3.6595877   -4.2008933   -1.3265272 
H     3.8086440    1.9311776   -1.7135889 
H     3.5008350    3.6739524    0.3598397 
H     0.5641185   -3.2069586    2.7790537 
H    -2.1423564   -3.4253794   -2.1381019 
H     5.9876661    0.3672953   -1.0598150 
H     2.5443523    6.1784176    0.9839378 
H    -0.4125666   -5.7649612    3.1150936 
H    -4.1591978   -1.9790352   -3.3442418 
H     5.0804652   -1.2302013    1.0190375 
H    -0.1954178    5.8215505    1.2472971 
H    -2.0790040   -6.1489569    0.9257715 
H    -4.0012179    0.5276434   -2.1577841 
H    -0.5063065   -0.6537467   -6.1670226 
H    -0.5615498   -2.3999826   -5.7293864 
H    -1.9073638   -1.3112652   -5.2305209 
H     4.9484536   -0.4143874   -3.7900963 
H     3.9924325   -1.3152305   -5.0314326 
H     4.0347566    0.4852157   -5.0557355 
