197
Energy =
C     0.9212212   -1.8230804   -2.5456895 
C     0.8387707   -2.8792692   -1.5952998 
C    -0.3933634   -3.1932429   -0.9755120 
H     1.7545971   -3.3798350   -1.2598977 
Pd    0.2234840   -1.0256309   -0.5723364 
P    -0.8979844   -0.5021847    1.3948014 
P     0.2617150    1.2844269   -0.8903054 
H    -0.0170901   -1.5764787   -3.0604476 
H    -1.3071157   -2.8380192   -1.4761564 
C     4.3945162   -1.0870924   -4.9716872 
C     3.1496858   -0.5435824   -5.3200096 
C     2.0429707   -0.7482182   -4.4881247 
C     2.1520487   -1.4898595   -3.2889016 
C     3.4266570   -1.9843792   -2.9272465 
C     4.5278890   -1.7991571   -3.7678457 
H     5.2592532   -0.9524169   -5.6300142 
H     3.0246064    0.0161727   -6.2517932 
H     1.0654241   -0.3657388   -4.7982554 
H     3.5600028   -2.5268072   -1.9858752 
H     5.5020845   -2.2071266   -3.4788230 
C    -1.1011975   -6.4333484    1.7718280 
C     0.2183798   -6.1071952    1.4110567 
C     0.4654915   -5.0556130    0.5243784 
C    -0.5993797   -4.2937083   -0.0174702 
C    -1.9191767   -4.6445172    0.3457258 
C    -2.1672851   -5.7005867    1.2306861 
H    -1.2928975   -7.2644179    2.4590203 
H     1.0571351   -6.6820764    1.8170632 
H     1.4993354   -4.8302779    0.2453473 
H    -2.7673225   -4.0995360   -0.0809667 
H    -3.2026114   -5.9424670    1.4870337 
C    -5.5503594   -4.2582043   -0.6206630 
C    -5.2713927   -5.6320184   -0.6774045 
C    -4.4465173   -6.1434585   -1.6892033 
C    -3.8992292   -5.2728623   -2.6444989 
C    -4.1864323   -3.9016429   -2.5960579 
C    -5.0187738   -3.3812838   -1.5830870 
C    -5.3658908   -1.8937878   -1.5364439 
C    -6.3617169   -1.4975925   -2.6417497 
N    -4.1464464   -1.0817759   -1.6360528 
C    -3.6038172   -0.2898300   -0.6955807 
O    -2.4549610    0.1856782   -0.8321454 
C    -4.3389395   -0.0048220    0.5841015 
C    -5.4700455    0.8243054    0.6449759 
C    -6.0437754    1.1363712    1.8860257 
C    -5.4935419    0.6071911    3.0629807 
C    -4.3657882   -0.2236885    3.0025224 
C    -3.7757579   -0.5285383    1.7674674 
C    -2.5472814   -1.4071894    1.6257700 
C    -0.3249894   -0.9363973    3.1628990 
N    -1.2573793   -1.9925029    3.6296019 
N    -2.3247583   -2.3277893    2.7355719 
C    -0.9706221   -2.7857881    4.7187475 
O    -0.1268118   -2.4413930    5.5543620 
C    -1.7079550   -4.1060101    4.7788700 
C    -3.1727336   -3.9655377    4.3616505 
C    -3.3232175   -3.2464559    3.0374768 
O    -4.2633651   -3.4004134    2.2635205 
C     1.1299301   -1.3764184    3.2084406 
C     2.1023653   -0.6944359    3.9732473 
C     3.4529837   -1.0789815    3.8755290 
C     3.8403273   -2.1484658    3.0616714 
C     2.8687972   -2.8486992    2.3306769 
C     1.5285654   -2.4570627    2.4038847 
C     1.7856987    0.4612500    4.8910620 
O     2.4026218    1.5406957    4.8091827 
N     0.8183675    0.2146845    5.8023252 
C     0.3835102    1.1883499    6.8074173 
C    -1.1101292    1.5163907    6.6035822 
C     0.6636506    0.7039060    8.2277652 
C     1.1158459    1.6200972    9.1949792 
C     1.3294882    1.2163031   10.5207478 
C     1.0957742   -0.1148026   10.8955009 
C     0.6481324   -1.0364439    9.9371277 
C     0.4306022   -0.6310057    8.6124612 
C    -1.2116546    1.3042303    1.4886354 
C    -1.8517286    1.8983567    2.5875526 
C    -2.0545759    3.2843904    2.6310193 
C    -1.5863831    4.0857230    1.5837323 
C    -0.9277450    3.5002749    0.4927412 
C    -0.7498684    2.1089786    0.4205740 
C    -0.2585897    1.8321142   -2.6766037 
C    -1.7293182    2.0378145   -2.9917844 
C    -2.3744265    3.1997696   -2.5326972 
C    -3.7375204    3.4212100   -2.7485857 
C    -4.4935157    2.4706902   -3.4471371 
C    -3.8640175    1.3207502   -3.9361500 
C    -2.4884407    1.0969248   -3.7313426 
C    -1.9678768   -0.2244160   -4.2528168 
O    -2.1612277   -1.2809509   -3.6104611 
N    -1.3374971   -0.2702823   -5.4492887 
C    -1.2314191    0.7852258   -6.4828262 
C    -2.4969284    0.8179098   -7.3625115 
C     0.0220415    0.5607288   -7.3252800 
C     0.2901465   -0.6904549   -7.9163689 
C     1.4135059   -0.8737821   -8.7342299 
C     2.2793450    0.2006834   -8.9891840 
C     2.0165361    1.4526557   -8.4136512 
C     0.8985582    1.6313242   -7.5838108 
C     1.7393779    2.4700025   -0.9171179 
N     1.3731029    3.4915486   -1.8844047 
N     0.5621739    3.0341239   -2.9520525 
C     1.5196004    4.8535577   -1.6201249 
O     2.0007244    5.2503970   -0.5671815 
C     1.1047563    5.7336557   -2.7890866 
C     1.3622962    5.0043119   -4.1168456 
C     0.5518730    3.7178178   -4.1489707 
O    -0.1295362    3.3444988   -5.1013196 
C     3.0645734    1.7793504   -1.1493809 
C     3.7017368    1.7971844   -2.3980834 
C     4.9484849    1.1822813   -2.5662060 
C     5.5433577    0.4982275   -1.4981208 
C     4.9138842    0.4741446   -0.2487137 
C     3.6912378    1.1374253   -0.0535281 
C     3.0324725    1.2353033    1.2943986 
O     1.8110812    0.9640115    1.4110246 
N     3.7384666    1.6883551    2.3522311 
C     5.1470747    2.1164597    2.4497321 
C     5.3614156    2.6991156    3.8605473 
C     5.5630625    3.1285965    1.3859637 
C     6.8633755    3.0775902    0.8525073 
C     7.2941168    4.0338878   -0.0770395 
C     6.4229873    5.0541560   -0.4876648 
C     5.1237573    5.1112682    0.0381211 
C     4.6979991    4.1561762    0.9720364 
H    -6.1670062   -3.8625709    0.1925111 
H    -5.6932155   -6.3012661    0.0800135 
H    -4.2211919   -7.2142614   -1.7279742 
H    -3.2440009   -5.6628032   -3.4306685 
H    -3.7400611   -3.2361378   -3.3439652 
H    -5.8133443   -1.6776476   -0.5527727 
H    -5.9267727   -1.6849836   -3.6394171 
H    -7.2855042   -2.0931919   -2.5563878 
H    -6.6159179   -0.4261167   -2.5643282 
H    -3.5012347   -1.2273322   -2.4397951 
H    -5.8907485    1.2306702   -0.2809883 
H    -6.9237040    1.7858196    1.9343058 
H    -5.9470647    0.8376584    4.0323738 
H    -3.9458519   -0.6437386    3.9232376 
H    -2.6599391   -2.0207840    0.7181263 
H    -0.4703964   -0.0300890    3.7692952 
H    -1.1848751   -4.7902142    4.0815409 
H    -1.5971054   -4.5057282    5.7969527 
H    -3.6758614   -4.9400495    4.2717854 
H    -3.7376241   -3.3783727    5.1123444 
H     4.1964848   -0.5330125    4.4641948 
H     4.8934786   -2.4436444    3.0089501 
H     3.1566427   -3.6977485    1.7019787 
H     0.7707242   -2.9976403    1.8285892 
H     0.4478564   -0.7512408    5.8272656 
H     0.9817503    2.0938023    6.6154486 
H    -1.2727012    1.9525356    5.6023241 
H    -1.4511484    2.2391741    7.3633431 
H    -1.7241077    0.6028897    6.7029408 
H     1.3074519    2.6601950    8.9052358 
H     1.6861208    1.9415235   11.2600674 
H     1.2664596   -0.4338909   11.9291284 
H     0.4693726   -2.0793173   10.2206972 
H     0.0895474   -1.3699754    7.8779866 
H    -2.2040716    1.2832974    3.4196390 
H    -2.5638831    3.7327968    3.4898127 
H    -1.7141097    5.1722598    1.6173785 
H    -0.5295248    4.1501288   -0.2885088 
H     0.1420065    1.0060817   -3.2898464 
H    -1.7899610    3.9518738   -1.9979026 
H    -4.2069503    4.3353175   -2.3713465 
H    -5.5627046    2.6266416   -3.6231780 
H    -4.4465898    0.5752123   -4.4873433 
H    -1.1132226   -1.2264191   -5.7382457 
H    -1.1277172    1.7389442   -5.9457097 
H    -2.6437487   -0.1444438   -7.8838275 
H    -3.3889565    1.0325765   -6.7500433 
H    -2.3976430    1.6091720   -8.1238874 
H    -0.3864653   -1.5397669   -7.7545571 
H     1.6073626   -1.8546235   -9.1806689 
H     3.1526518    0.0616371   -9.6350023 
H     2.6859054    2.2973242   -8.6098441 
H     0.6969809    2.6049985   -7.1273686 
H     1.7414862    2.9671731    0.0645216 
H     0.0295553    5.9794897   -2.6884720 
H     1.6655977    6.6766095   -2.7060501 
H     1.0669164    5.6016672   -4.9914678 
H     2.4382714    4.7616095   -4.2114539 
H     3.2278929    2.3102773   -3.2403738 
H     5.4443131    1.2215400   -3.5397201 
H     6.5053040   -0.0056301   -1.6351417 
H     5.3841987   -0.0452882    0.5914128 
H     3.1970425    1.7073513    3.2454830 
H     5.8018004    1.2288073    2.3521682 
H     5.0879380    1.9672639    4.6392542 
H     6.4186490    2.9828713    3.9835739 
H     4.7392094    3.5991443    4.0004439 
H     7.5431586    2.2744189    1.1625381 
H     8.3090101    3.9781974   -0.4855885 
H     6.7563210    5.8008594   -1.2166651 
H     4.4256928    5.8925161   -0.2766952 
H     3.6770426    4.2076249    1.3645564 
