197
Energy =
C     1.7761928   -1.5013696   -2.6453301 
C     1.5854627   -2.6748506   -1.8640804 
C     0.2874460   -3.0512288   -1.4426675 
H     2.4565524   -3.2240865   -1.4882006 
Pd    0.8308517   -0.9730293   -0.6844034 
P    -0.6666392   -0.6491058    1.0665837 
P     0.8999751    1.3476937   -0.7433747 
H     0.9062658   -1.1716961   -3.2334073 
H    -0.5573118   -2.6371751   -2.0143077 
C     5.5062041   -0.3605010   -4.4686712 
C     4.3056377    0.2637239   -4.8369127 
C     3.1098215   -0.0898582   -4.2019282 
C     3.0826844   -1.0637103   -3.1775455 
C     4.3094691   -1.6455539   -2.7832325 
C     5.5011046   -1.3085955   -3.4320140 
H     6.4415154   -0.1063695   -4.9781681 
H     4.2923333    1.0163048   -5.6326680 
H     2.1749693    0.3783259   -4.5228610 
H     4.3360967   -2.3786861   -1.9711506 
H     6.4369980   -1.7855505   -3.1230576 
C    -0.7254178   -6.5895815    0.7906430 
C     0.6089959   -6.1455538    0.7663030 
C     0.9560038   -4.9965393    0.0499980 
C    -0.0252647   -4.2542065   -0.6520659 
C    -1.3592867   -4.7194628   -0.6221066 
C    -1.7064971   -5.8751231    0.0881944 
H    -0.9928378   -7.4949360    1.3457790 
H     1.3830705   -6.7036044    1.3033676 
H     2.0023805   -4.6756732    0.0342353 
H    -2.1340485   -4.1736464   -1.1707146 
H    -2.7497923   -6.2034577    0.0986280 
C    -5.6859506   -2.4675845   -1.1018798 
C    -6.5998429   -3.0367050   -0.2050584 
C    -7.9136856   -2.5496421   -0.1336234 
C    -8.3077752   -1.4875004   -0.9609695 
C    -7.3857083   -0.9102919   -1.8450070 
C    -6.0660376   -1.3910461   -1.9209037 
C    -5.1031679   -0.7588029   -2.9177752 
C    -5.0784952   -1.5561852   -4.2384067 
N    -3.7080872   -0.6438574   -2.4537596 
C    -3.1578684   -0.2362337   -1.2933017 
O    -1.9104570   -0.0783073   -1.2215192 
C    -3.9623593   -0.0729769   -0.0394910 
C    -5.0825483    0.7676894    0.0510075 
C    -5.7958621    0.8697957    1.2516214 
C    -5.3990878    0.1141867    2.3639915 
C    -4.2693262   -0.7116306    2.2855233 
C    -3.5313737   -0.8003571    1.0957168 
C    -2.2709305   -1.6409448    0.9918843 
C    -0.3413624   -1.1874170    2.8737174 
N    -1.2524737   -2.3356731    3.1083133 
N    -2.1256624   -2.6668522    2.0225560 
C    -1.0659101   -3.2047941    4.1608088 
O    -0.3958310   -2.8766109    5.1467562 
C    -1.6719942   -4.5805439    3.9899678 
C    -3.0559882   -4.5225555    3.3428357 
C    -3.0636477   -3.6879672    2.0799839 
O    -3.8528963   -3.8449893    1.1523828 
C     1.1169110   -1.5400706    3.1180468 
C     1.9110622   -0.8683887    4.0743718 
C     3.2842475   -1.1661817    4.1640284 
C     3.8650294   -2.1408101    3.3459326 
C     3.0684211   -2.8332224    2.4211306 
C     1.7087046   -2.5271818    2.3107714 
C     1.3749628    0.1837937    5.0156433 
O     1.9179048    1.3011646    5.1203247 
N     0.2983949   -0.1988408    5.7364398 
C    -0.3666644    0.6563771    6.7230950 
C    -1.8304700    0.8964595    6.2988310 
C    -0.2776020    0.0751535    8.1319932 
C    -0.4564125   -1.3006176    8.3757674 
C    -0.4200215   -1.8001528    9.6855300 
C    -0.2102503   -0.9333994   10.7685831 
C    -0.0325229    0.4378754   10.5343982 
C    -0.0647580    0.9361661    9.2240581 
C    -1.0336746    1.1425633    1.2624278 
C    -1.8853761    1.6342748    2.2660832 
C    -2.0522755    3.0131046    2.4475758 
C    -1.3294020    3.9120320    1.6540207 
C    -0.4627313    3.4308284    0.6633994 
C    -0.3309524    2.0492073    0.4352028 
C     0.5147106    1.8938896   -2.5591258 
C    -0.8797103    2.3377256   -2.9437608 
C    -1.4279448    3.5327835   -2.4424748 
C    -2.7284947    3.9292059   -2.7718763 
C    -3.5055073    3.1327858   -3.6265695 
C    -2.9606698    1.9603749   -4.1624593 
C    -1.6503785    1.5619615   -3.8373103 
C    -1.1446764    0.3076788   -4.5146704 
O    -1.6356930   -0.8143134   -4.2841329 
N    -0.2030028    0.4955638   -5.4661763 
C     0.1683069   -0.5798876   -6.4052188 
C     1.1642305   -0.0224896   -7.4336150 
C    -1.0783605   -1.1575154   -7.0747083 
C    -2.0548827   -0.3030955   -7.6198005 
C    -3.1979461   -0.8294292   -8.2368126 
C    -3.3746721   -2.2195066   -8.3221986 
C    -2.4015791   -3.0765249   -7.7872972 
C    -1.2623281   -2.5463702   -7.1648020 
C     2.3279681    2.6027882   -0.6111034 
N     2.1063795    3.5238348   -1.7153626 
N     1.5524998    2.9044769   -2.8547400 
C     2.1121887    4.9133053   -1.5941703 
O     2.2798391    5.4627080   -0.5141502 
C     1.9815891    5.6128892   -2.9431833 
C     2.5524076    4.7321832   -4.0719554 
C     1.7804093    3.4218477   -4.1080194 
O     1.3078124    2.9075331   -5.1251387 
C     3.6862288    1.9306858   -0.5812235 
C     4.5683482    1.9775424   -1.6687366 
C     5.8190775    1.3503067   -1.5969236 
C     6.1776770    0.6228072   -0.4550186 
C     5.3087617    0.5813008    0.6412929 
C     4.0809318    1.2616973    0.6022939 
C     3.1678879    1.3118597    1.7929078 
O     1.9574942    0.9988562    1.6612565 
N     3.6424891    1.7378732    2.9793072 
C     4.9777775    2.2699550    3.3134500 
C     4.9255662    2.7900373    4.7624727 
C     5.4412687    3.3632956    2.3546946 
C     4.5634777    4.3750351    1.9246301 
C     5.0149292    5.3991272    1.0805698 
C     6.3532679    5.4252440    0.6598757 
C     7.2363681    4.4224262    1.0860474 
C     6.7800704    3.3982681    1.9273533 
H    -4.6587834   -2.8443132   -1.1254887 
H    -6.2655550   -3.8495303    0.4456037 
H    -8.6280245   -2.9933889    0.5682094 
H    -9.3312051   -1.1003018   -0.9111768 
H    -7.6911576   -0.0668578   -2.4766883 
H    -5.4735620    0.2621493   -3.1435245 
H    -4.7369975   -2.5884518   -4.0514389 
H    -6.0934282   -1.5979684   -4.6643861 
H    -4.3980269   -1.0965561   -4.9768237 
H    -2.9744890   -0.7572490   -3.1913639 
H    -5.4000900    1.3387393   -0.8262510 
H    -6.6729820    1.5213920    1.3121732 
H    -5.9687586    0.1684631    3.2972454 
H    -3.9565726   -1.2902337    3.1613835 
H    -2.2440420   -2.1569393    0.0217023 
H    -0.6479802   -0.3467603    3.5133884 
H    -0.9788089   -5.1489730    3.3380243 
H    -1.6880924   -5.0664836    4.9759984 
H    -3.4371582   -5.5218289    3.0841536 
H    -3.7911971   -4.0646557    4.0336796 
H     3.8888476   -0.6297789    4.9017618 
H     4.9316318   -2.3703348    3.4394145 
H     3.5084784   -3.6088027    1.7851626 
H     1.0855262   -3.0631504    1.5872381 
H    -0.0013596   -1.1832893    5.6253628 
H     0.1796093    1.6132353    6.6973722 
H    -1.8667569    1.3980434    5.3160761 
H    -2.3453206    1.5306127    7.0396327 
H    -2.3763432   -0.0620626    6.2331056 
H    -0.6129524   -1.9970345    7.5438158 
H    -0.5535928   -2.8733502    9.8599286 
H    -0.1807082   -1.3259326   11.7905463 
H     0.1388885    1.1215046   11.3728062 
H     0.0821070    2.0081151    9.0455819 
H    -2.4288881    0.9440310    2.9154473 
H    -2.7277138    3.3788477    3.2273994 
H    -1.4201039    4.9909662    1.8143867 
H     0.1368652    4.1523892    0.1008591 
H     0.7719981    0.9956948   -3.1341103 
H    -0.8277183    4.1634917   -1.7830015 
H    -3.1340102    4.8595411   -2.3615210 
H    -4.5234330    3.4355982   -3.8929262 
H    -3.5414696    1.3505239   -4.8622685 
H     0.2293783    1.4297485   -5.5448492 
H     0.6533511   -1.3909818   -5.8294318 
H     0.6971021    0.7798476   -8.0302314 
H     2.0637541    0.3832217   -6.9410198 
H     1.4726032   -0.8263125   -8.1204408 
H    -1.9261471    0.7835018   -7.5452491 
H    -3.9517084   -0.1535619   -8.6554655 
H    -4.2671431   -2.6324489   -8.8041266 
H    -2.5341866   -4.1621756   -7.8465430 
H    -0.5148394   -3.2191087   -6.7283034 
H     2.1676271    3.1721543    0.3175925 
H     0.9123026    5.8303964   -3.1294419 
H     2.5013988    6.5794179   -2.8601896 
H     2.4600416    5.2022277   -5.0616833 
H     3.6243523    4.5280529   -3.8867490 
H     4.2808758    2.5156405   -2.5757146 
H     6.5046169    1.4160725   -2.4457603 
H     7.1410127    0.1046749   -0.4110471 
H     5.5884292    0.0325470    1.5457219 
H     2.9549351    1.6730956    3.7653633 
H     5.7174622    1.4477021    3.2778223 
H     4.6061179    1.9946739    5.4569694 
H     5.9223836    3.1524049    5.0595701 
H     4.2109491    3.6265068    4.8448757 
H     3.5143503    4.3574295    2.2417956 
H     4.3111848    6.1648257    0.7428536 
H     6.7068751    6.2247423   -0.0002332 
H     8.2815496    4.4326754    0.7582636 
H     7.4694533    2.6079629    2.2478543 
