197
Energy =
C     1.6722827   -1.4150522   -3.2439571 
C     1.7925675   -2.5683027   -2.4234945 
C     0.6450843   -3.1240476   -1.8091353 
H     2.7864926   -2.9573492   -2.1734002 
Pd    0.9240028   -0.9552214   -1.1958901 
P    -0.3275526   -0.7419973    0.7421700 
P     0.7768824    1.3557485   -1.2941122 
H     0.6919579   -1.2617125   -3.7201997 
H    -0.3225740   -2.8690173   -2.2629267 
C     4.8747422    0.3440513   -5.5186338 
C     5.1765571   -0.5157898   -4.4490982 
C     4.1550356   -1.0581877   -3.6630680 
C     2.8001991   -0.7789923   -3.9509175 
C     2.5126516    0.0916380   -5.0253044 
C     3.5350487    0.6570791   -5.7958824 
H     5.6795140    0.7647602   -6.1306183 
H     6.2193682   -0.7563219   -4.2187760 
H     4.4178998   -1.7025189   -2.8181916 
H     1.4704954    0.3082409   -5.2734117 
H     3.2774667    1.3236023   -6.6261086 
C     0.4988540   -6.8100323    0.4074987 
C     1.7376664   -6.1778846    0.2018572 
C     1.8055368   -4.9711266   -0.5018363 
C     0.6331178   -4.3585373   -1.0063149 
C    -0.6041249   -5.0039169   -0.7845304 
C    -0.6715975   -6.2182572   -0.0915098 
H     0.4507288   -7.7618998    0.9467522 
H     2.6564156   -6.6343711    0.5843640 
H     2.7827085   -4.5050047   -0.6639749 
H    -1.5271272   -4.5487971   -1.1576573 
H    -1.6451024   -6.6961476    0.0570898 
C    -5.6970029   -2.4774373   -0.3783184 
C    -6.2186174   -3.3579919    0.5796727 
C    -7.4072318   -3.0423622    1.2543122 
C    -8.0694602   -1.8386993    0.9700609 
C    -7.5383426   -0.9555323    0.0204265 
C    -6.3475820   -1.2647088   -0.6617386 
C    -5.8371100   -0.3043337   -1.7318811 
C    -6.3789297   -0.7146236   -3.1160897 
N    -4.3680308   -0.2171792   -1.8409688 
C    -3.4018879   -0.1043703   -0.9053924 
O    -2.1902343   -0.0592636   -1.2408143 
C    -3.7612871   -0.1129694    0.5540667 
C    -4.7454218    0.7311986    1.0935208 
C    -5.0729941    0.6711158    2.4536507 
C    -4.4349787   -0.2627916    3.2810799 
C    -3.4339186   -1.0924515    2.7571908 
C    -3.0685480   -1.0092584    1.4034474 
C    -1.8912443   -1.7925730    0.8568366 
C     0.2221406   -1.3442487    2.4699951 
N    -0.5259814   -2.6013868    2.6958280 
N    -1.4810370   -2.9284201    1.6814919 
C    -0.1822882   -3.4919158    3.6875984 
O     0.5362530   -3.1486439    4.6339852 
C    -0.6771826   -4.9078589    3.4874286 
C    -2.1026999   -4.9553806    2.9342370 
C    -2.3107010   -4.0411580    1.7444690 
O    -3.1777452   -4.2079167    0.8909950 
C     1.7235365   -1.5168604    2.5950866 
C     2.4816761   -0.7566491    3.5119573 
C     3.8859006   -0.8390891    3.4881795 
C     4.5356216   -1.6981133    2.5949443 
C     3.7793010   -2.4874662    1.7146811 
C     2.3848732   -2.3880913    1.7143278 
C     1.8489720    0.1738436    4.5176220 
O     2.1676416    1.3778043    4.5838985 
N     0.9381974   -0.4167756    5.3222951 
C     0.2114433    0.2703341    6.3933874 
C    -1.3066370    0.1015923    6.1811221 
C     0.6435522   -0.2296058    7.7700410 
C     0.8898097    0.6887447    8.8058565 
C     1.2451639    0.2434759   10.0877259 
C     1.3610891   -1.1296906   10.3466892 
C     1.1199522   -2.0534413    9.3179590 
C     0.7615284   -1.6077669    8.0382857 
C    -0.7036359    1.0354237    1.0558924 
C    -1.3325956    1.4840460    2.2292609 
C    -1.4789561    2.8521306    2.4890693 
C    -0.9681180    3.7908276    1.5864269 
C    -0.3345434    3.3552822    0.4157692 
C    -0.2156730    1.9843856    0.1256071 
C     0.0356267    1.9003375   -2.9958403 
C    -1.3462724    2.5169871   -3.0880661 
C    -1.5650624    3.7916424   -2.5303896 
C    -2.8258114    4.3958308   -2.5441291 
C    -3.9088117    3.7200786   -3.1234824 
C    -3.7005909    2.4717469   -3.7173492 
C    -2.4263437    1.8671278   -3.7366044 
C    -2.3614103    0.5711201   -4.5193453 
O    -3.2621420   -0.2818508   -4.3846265 
N    -1.3558703    0.4573116   -5.4162747 
C    -1.2365460   -0.5878468   -6.4664433 
C    -2.5218557   -0.7253628   -7.3041392 
C    -0.7260632   -1.9291918   -5.9390741 
C     0.5253284   -2.4081208   -6.3720333 
C     1.0128648   -3.6507870   -5.9390052 
C     0.2443364   -4.4418773   -5.0744678 
C    -1.0109849   -3.9803460   -4.6471817 
C    -1.4935856   -2.7334542   -5.0690590 
C     2.1650298    2.6671954   -1.3782222 
N     1.8194259    3.4776912   -2.5427440 
N     1.0842834    2.7921828   -3.5313983 
C     2.1896682    4.8116365   -2.6800335 
O     2.7784417    5.3956515   -1.7809538 
C     1.8654706    5.3886785   -4.0510407 
C     2.0814004    4.3174250   -5.1340348 
C     1.1655132    3.1396289   -4.8565598 
O     0.4803991    2.5756327   -5.7177031 
C     3.6011902    2.1748713   -1.3493439 
C     4.4307028    2.2439018   -2.4749451 
C     5.7894921    1.9099697   -2.3829209 
C     6.3311145    1.4877720   -1.1623177 
C     5.5075525    1.4072617   -0.0307140 
C     4.1483247    1.7552420   -0.1133368 
C     3.2476463    1.5681069    1.0743409 
O     2.2279301    0.8519111    0.9406013 
N     3.5803763    2.1161810    2.2573065 
C     4.3458598    3.3625921    2.4653270 
C     5.2032620    3.2353170    3.7303988 
C     3.3398319    4.5156755    2.4857968 
C     2.4756216    4.7157239    3.5812105 
C     1.5059206    5.7267086    3.5407597 
C     1.3761044    6.5408984    2.4031034 
C     2.2176870    6.3323185    1.3008081 
C     3.1959878    5.3270966    1.3466460 
H    -4.7588244   -2.7301232   -0.8830988 
H    -5.6754522   -4.2805354    0.8028538 
H    -7.8148617   -3.7301569    2.0030620 
H    -8.9962481   -1.5821657    1.4945917 
H    -8.0505949   -0.0081772   -0.1885322 
H    -6.2356141    0.7036549   -1.5016820 
H    -6.0511073   -0.0095675   -3.8988955 
H    -6.0181471   -1.7223724   -3.3828582 
H    -7.4798469   -0.7344977   -3.0892148 
H    -3.9867553   -0.2398705   -2.8130959 
H    -5.2597937    1.4431044    0.4415033 
H    -5.8415328    1.3355278    2.8605716 
H    -4.7056860   -0.3399736    4.3389976 
H    -2.9174884   -1.7965493    3.4171991 
H    -2.0922102   -2.1750030   -0.1522747 
H    -0.1357719   -0.5863631    3.1820020 
H     0.0192855   -5.3813911    2.7674378 
H    -0.5844428   -5.4367822    4.4468266 
H    -2.3965561   -5.9719822    2.6326966 
H    -2.8295124   -4.6267690    3.7034389 
H     4.4614551   -0.2259150    4.1883372 
H     5.6287544   -1.7620766    2.5944435 
H     4.2785744   -3.1734218    1.0220678 
H     1.7911844   -2.9875336    1.0175099 
H     0.8054670   -1.4355506    5.1934963 
H     0.4812571    1.3348357    6.2996235 
H    -1.6177500    0.5358501    5.2149409 
H    -1.8637783    0.6039171    6.9891495 
H    -1.5817182   -0.9683394    6.1921887 
H     0.8073875    1.7637153    8.6057266 
H     1.4378284    0.9713636   10.8831661 
H     1.6422819   -1.4795665   11.3455906 
H     1.2134848   -3.1273986    9.5121652 
H     0.5837748   -2.3435274    7.2447052 
H    -1.7158160    0.7662097    2.9574477 
H    -1.9690384    3.1773267    3.4120463 
H    -1.0289618    4.8615828    1.7991205 
H     0.1046744    4.1071646   -0.2450971 
H     0.0684731    0.9709402   -3.5775299 
H    -0.7228662    4.3231319   -2.0813358 
H    -2.9609111    5.3870906   -2.0996465 
H    -4.9051409    4.1735661   -3.1354276 
H    -4.5266965    1.9511019   -4.2109013 
H    -0.7402453    1.2815005   -5.5368441 
H    -0.4477182   -0.1875959   -7.1251478 
H    -2.8121031    0.2560750   -7.7171054 
H    -2.3374777   -1.4203165   -8.1400478 
H    -3.3529030   -1.1119515   -6.6954974 
H     1.1309301   -1.7997368   -7.0536049 
H     1.9926844   -3.9990358   -6.2823621 
H     0.6179153   -5.4135653   -4.7345090 
H    -1.6200488   -4.5989539   -3.9784671 
H    -2.4661958   -2.3692470   -4.7273095 
H     2.0209770    3.3048617   -0.4903436 
H     0.8127362    5.7312149   -4.0601006 
H     2.5062704    6.2707019   -4.1953347 
H     1.8494725    4.6842252   -6.1444111 
H     3.1326660    3.9709871   -5.1316784 
H     4.0161032    2.5656743   -3.4341000 
H     6.4221735    1.9799116   -3.2725440 
H     7.3914878    1.2254445   -1.0888745 
H     5.9112956    1.0712540    0.9302586 
H     2.9565694    1.8645394    3.0559493 
H     5.0017859    3.5011390    1.5906277 
H     5.9489858    2.4317384    3.6026857 
H     5.7306798    4.1816800    3.9333065 
H     4.5804708    2.9848728    4.6057603 
H     2.5407928    4.0647865    4.4593301 
H     0.8454108    5.8782672    4.4017565 
H     0.6206971    7.3344561    2.3784236 
H     2.1254203    6.9448625    0.3984075 
H     3.8381316    5.1693058    0.4739846 
