197
Energy =
C     1.5295316   -3.2011927   -2.2721051 
C     2.0326798   -4.0888173   -1.2887151 
C     1.1552500   -4.6761417   -0.3334172 
H     3.1156128   -4.2261167   -1.1819960 
Pd    1.0398501   -2.4587992   -0.1936382 
P    -0.2783421   -2.2379028    1.6979442 
P     0.6484149   -0.1973894   -0.4830496 
H     0.4505412   -3.2597108   -2.4825364 
H     0.1081749   -4.8033040   -0.6449291 
C     3.7648071   -1.5782291   -5.5704008 
C     2.3617518   -1.5792350   -5.5791728 
C     1.6565076   -2.0732820   -4.4760955 
C     2.3309393   -2.5858524   -3.3445215 
C     3.7461751   -2.5566175   -3.3420148 
C     4.4526481   -2.0598843   -4.4422509 
H     4.3224874   -1.2030876   -6.4347942 
H     1.8089250   -1.1955346   -6.4423153 
H     0.5619936   -2.0806778   -4.4970254 
H     4.3040980   -2.9426329   -2.4828475 
H     5.5473856   -2.0556115   -4.4252200 
C     2.4119265   -7.4639757    2.6918146 
C     1.0834902   -7.4440670    2.2403340 
C     0.6846524   -6.5151770    1.2705231 
C     1.6031791   -5.5799437    0.7437140 
C     2.9297961   -5.5883122    1.2320383 
C     3.3310913   -6.5304131    2.1832326 
H     2.7312593   -8.1998918    3.4373228 
H     0.3548104   -8.1654236    2.6255020 
H    -0.3488037   -6.5267595    0.9092369 
H     3.6497999   -4.8425027    0.8785375 
H     4.3646358   -6.5272925    2.5438084 
C    -5.0108493   -1.4811523   -3.9403191 
C    -5.3902811   -0.2344860   -4.4534421 
C    -4.4334759    0.5962575   -5.0588860 
C    -3.1010749    0.1747915   -5.1449771 
C    -2.7256504   -1.0737290   -4.6254672 
C    -3.6716402   -1.9154644   -4.0182565 
C    -3.2585655   -3.2680204   -3.4337028 
C    -3.7973689   -4.4605703   -4.2361306 
N    -3.7004320   -3.3619011   -2.0305839 
C    -2.9584397   -2.9186350   -0.9815068 
O    -1.7377491   -2.6807762   -1.0865013 
C    -3.7101634   -2.6737659    0.2940270 
C    -5.0045265   -2.1149167    0.2271789 
C    -5.7363450   -1.8378231    1.3864153 
C    -5.1805773   -2.1435533    2.6356197 
C    -3.8935764   -2.6888700    2.7121401 
C    -3.1290297   -2.9399321    1.5589260 
C    -1.7263316   -3.5045030    1.6823627 
C     0.0820945   -2.5520235    3.5507862 
N    -0.9457048   -3.5107948    3.9624754 
N    -1.5037796   -4.2654184    2.9069707 
C    -1.2601911   -3.7553816    5.2922902 
O    -0.7723578   -3.0811772    6.1910615 
C    -2.1714681   -4.9617601    5.4896213 
C    -1.8135599   -6.0789418    4.4935022 
C    -1.9479071   -5.5690453    3.0667978 
O    -2.4464269   -6.1809597    2.1285074 
C     1.4995751   -2.9570655    3.9211077 
C     2.5023993   -1.9595275    3.9691567 
C     3.7919517   -2.2803778    4.4270274 
C     4.0929643   -3.5839500    4.8449746 
C     3.1022364   -4.5722499    4.7903074 
C     1.8169722   -4.2594188    4.3255218 
C     2.2314800   -0.6078586    3.3764327 
O     1.7701434   -0.5620366    2.2129690 
N     2.5510486    0.5083137    4.0579717 
C     2.5237373    0.6627953    5.5268109 
C     3.5693638    1.7000662    5.9514855 
C     1.0824075    0.9923149    5.9225902 
C     0.2458344   -0.0386201    6.3881764 
C    -1.1091034    0.2053044    6.6592798 
C    -1.6406511    1.4901037    6.4743741 
C    -0.8141021    2.5228111    6.0018963 
C     0.5369017    2.2752606    5.7208788 
C    -0.9879831   -0.5380920    1.7387796 
C    -1.8404059   -0.1104411    2.7721666 
C    -2.2078380    1.2367873    2.8730927 
C    -1.7040327    2.1722264    1.9598846 
C    -0.8435871    1.7661629    0.9328212 
C    -0.4963944    0.4090189    0.8088193 
C    -0.0782905    0.3128002   -2.1676281 
C    -1.3170884    1.1970702   -2.0690055 
C    -2.4985224    0.5297462   -1.6916255 
C    -3.6937488    1.2154430   -1.4660154 
C    -3.7341100    2.6078526   -1.6168026 
C    -2.5786240    3.2839446   -2.0180817 
C    -1.3697694    2.5952178   -2.2555164 
C    -0.1645980    3.4289535   -2.5983322 
O     0.8142744    3.4933742   -1.8442160 
N    -0.2251876    4.1457452   -3.7617165 
C    -1.2714364    4.0968566   -4.7979008 
C    -0.6272377    4.1105304   -6.1954489 
C    -2.3066907    5.2097064   -4.6426072 
C    -3.6711522    4.9291690   -4.8384470 
C    -4.6361314    5.9383579   -4.7103622 
C    -4.2466507    7.2456967   -4.3824136 
C    -2.8875399    7.5367338   -4.1890216 
C    -1.9258717    6.5248176   -4.3208571 
C     2.0243356    1.0864147   -0.6369120 
N     2.2268773    1.1705905   -2.0875475 
N     1.0854996    0.8430541   -2.8854408 
C     3.3113031    1.8414063   -2.6161230 
O     4.1194722    2.4321626   -1.8963596 
C     3.4800092    1.6918300   -4.1103880 
C     2.1563853    1.8732482   -4.8520661 
C     0.9942399    1.1215942   -4.2329807 
O    -0.0221110    0.8118036   -4.8596741 
C     3.2823283    0.6626043    0.0917917 
C     3.9063894   -0.5521355   -0.2400746 
C     4.9937543   -1.0240524    0.5000598 
C     5.4691839   -0.2805331    1.5916227 
C     4.8700746    0.9430071    1.9129921 
C     3.7866638    1.4295244    1.1594772 
C     3.2106267    2.7785805    1.5355493 
O     2.6644046    2.9630182    2.6434639 
N     3.4083008    3.7249907    0.5931667 
C     3.1622680    5.1803554    0.6913427 
C     3.5328244    5.7563169    2.0699052 
C     1.7562836    5.5793906    0.2499329 
C     1.5947454    6.4567262   -0.8363028 
C     0.3184198    6.8587461   -1.2536068 
C    -0.8185496    6.3763175   -0.5913269 
C    -0.6646965    5.5057969    0.4993905 
C     0.6118830    5.1114882    0.9235742 
H    -5.7722429   -2.1221956   -3.4783397 
H    -6.4347713    0.0879311   -4.3850877 
H    -4.7314612    1.5700778   -5.4617122 
H    -2.3333930    0.8092226   -5.5946288 
H    -1.6751734   -1.3756303   -4.6856325 
H    -2.1581186   -3.3127047   -3.4005122 
H    -3.4551802   -5.4130404   -3.7967657 
H    -4.9022595   -4.4570068   -4.2570465 
H    -3.4450578   -4.3998338   -5.2784438 
H    -4.6775423   -3.5930686   -1.8570664 
H    -5.4304260   -1.8676087   -0.7514747 
H    -6.7330542   -1.3916463    1.3141740 
H    -5.7452237   -1.9529997    3.5539116 
H    -3.4708313   -2.9245188    3.6924007 
H    -1.5198320   -4.1775619    0.8398726 
H    -0.1355994   -1.5960880    4.0568757 
H    -2.0618308   -5.2802540    6.5367923 
H    -3.2247571   -4.6511262    5.3477060 
H    -0.7728793   -6.4208519    4.6537306 
H    -2.4702099   -6.9556263    4.5931811 
H     4.5586004   -1.4987563    4.4406713 
H     5.0967229   -3.8255430    5.2092619 
H     3.3243539   -5.5949867    5.1089254 
H     1.0538938   -5.0411876    4.2839976 
H     2.4422845    1.3977475    3.5220644 
H     2.7779385   -0.3141162    5.9692054 
H     4.5818893    1.3374462    5.7041434 
H     3.5118229    1.8816977    7.0370965 
H     3.4161966    2.6569806    5.4245283 
H     0.6412557   -1.0500906    6.5305515 
H    -1.7349320   -0.6173945    7.0198998 
H    -2.6946738    1.6892343    6.6987509 
H    -1.2240272    3.5274170    5.8494056 
H     1.1634274    3.0833221    5.3282633 
H    -2.1993409   -0.8162877    3.5257465 
H    -2.8614496    1.5569444    3.6891514 
H    -1.9691026    3.2285934    2.0562966 
H    -0.4422452    2.5089967    0.2362355 
H    -0.3797567   -0.6284478   -2.6549777 
H    -2.4597825   -0.5514393   -1.5578998 
H    -4.5877437    0.6595012   -1.1690297 
H    -4.6577437    3.1661552   -1.4338643 
H    -2.5966313    4.3697661   -2.1452245 
H     0.5431435    4.8094860   -3.8776911 
H    -1.7808151    3.1284103   -4.6676476 
H    -0.0046331    3.2123744   -6.3379356 
H    -1.4141937    4.1178339   -6.9670786 
H    -0.0111092    5.0169385   -6.3381415 
H    -3.9799150    3.9042506   -5.0742587 
H    -5.6951644    5.7022716   -4.8600729 
H    -4.9986668    8.0346613   -4.2773978 
H    -2.5747946    8.5552493   -3.9348367 
H    -0.8692520    6.7628570   -4.1582149 
H     1.6260389    2.0467080   -0.2679560 
H     4.2392008    2.4166976   -4.4369465 
H     3.8766850    0.6746956   -4.2863731 
H     1.8570292    2.9369599   -4.8485059 
H     2.2255709    1.5594770   -5.9049310 
H     3.5235067   -1.1276148   -1.0893573 
H     5.4672699   -1.9748302    0.2324273 
H     6.3155118   -0.6466695    2.1821495 
H     5.2425736    1.5379045    2.7528376 
H     3.7705588    3.3737120   -0.3087014 
H     3.8616802    5.6105424   -0.0460375 
H     4.5623097    5.4662544    2.3421485 
H     3.4766255    6.8565035    2.0211328 
H     2.8500601    5.3960320    2.8528836 
H     2.4819123    6.8290166   -1.3627931 
H     0.2113796    7.5545171   -2.0929378 
H    -1.8173202    6.6854079   -0.9181499 
H    -1.5536912    5.1406777    1.0245594 
H     0.7320361    4.4291936    1.7728275 
