197
Energy =
C    -0.8615797   -3.4872088   -1.7733373 
C     0.1625951   -3.4338148   -2.7568661 
C     1.5074937   -3.7520673   -2.4315394 
H    -0.0645775   -3.0008001   -3.7381315 
Pd    0.7450742   -2.0439189   -1.1973210 
P     2.6362095   -0.7221969   -0.9389516 
P    -0.3100890   -0.3545233    0.0400879 
H    -0.7333124   -4.2077599   -0.9532203 
H     1.6871392   -4.4271003   -1.5812811 
C    -4.9055667   -2.3811612   -2.7486627 
C    -3.8297296   -1.6780814   -3.3171510 
C    -2.5166743   -2.0192693   -2.9809523 
C    -2.2478580   -3.0726328   -2.0756040 
C    -3.3386894   -3.7614621   -1.5012030 
C    -4.6561865   -3.4201681   -1.8393116 
H    -5.9342187   -2.1159943   -3.0137906 
H    -4.0149272   -0.8466420   -4.0028691 
H    -1.6778579   -1.4549271   -3.4044797 
H    -3.1527530   -4.5907520   -0.8092670 
H    -5.4900015   -3.9784827   -1.4001995 
C     4.7003194   -3.5966833   -5.3143507 
C     3.5533084   -2.8086305   -5.5019027 
C     2.5178627   -2.8377210   -4.5643886 
C     2.6037667   -3.6603492   -3.4144755 
C     3.7628334   -4.4467483   -3.2387715 
C     4.8004989   -4.4152728   -4.1799605 
H     5.5152155   -3.5585860   -6.0436828 
H     3.4834327   -2.1434832   -6.3673917 
H     1.6394432   -2.2017655   -4.7102471 
H     3.8380799   -5.0965492   -2.3616940 
H     5.6880896   -5.0397224   -4.0296346 
C    -3.9525808    1.0855256    5.8295860 
C    -5.1855789    1.7071361    6.0753904 
C    -5.2909034    3.1058150    6.0497372 
C    -4.1554534    3.8788318    5.7646568 
C    -2.9272380    3.2554211    5.5045997 
C    -2.8076772    1.8542376    5.5444430 
C    -1.4309067    1.2190850    5.4393624 
C    -0.8787259    0.9589036    6.8603376 
N    -1.4720846   -0.0237534    4.6488839 
C    -0.3593755   -0.7249158    4.3370376 
O     0.7885993   -0.4014473    4.7085281 
C    -0.5942125   -1.9741914    3.5319755 
C    -0.2059208   -3.2054134    4.0908435 
C    -0.4456581   -4.4030073    3.4074940 
C    -1.0916944   -4.3739844    2.1612261 
C    -1.4465721   -3.1479316    1.5909555 
C    -1.1768900   -1.9396927    2.2508143 
C    -1.4290490   -0.6238772    1.5458105 
C    -1.6650790    0.6401157   -0.8410002 
N    -2.9042526    0.1366161   -0.2562782 
N    -2.7806424   -0.5536035    0.9878828 
C    -4.1129845    0.4603899   -0.8459468 
O    -4.1212759    1.1180052   -1.8868269 
C    -5.3654155    0.0404402   -0.1086349 
C    -5.1583382   -1.0402935    0.9571484 
C    -3.8850440   -0.8574691    1.7567585 
O    -3.7786503   -1.0767748    2.9669498 
C    -1.4808997    2.1527270   -0.8511978 
C    -2.1636300    3.0745236   -0.0269892 
C    -1.9216040    4.4563338   -0.1863130 
C    -0.9849473    4.9317966   -1.1098042 
C    -0.2840738    4.0147279   -1.9032541 
C    -0.5460645    2.6473182   -1.7791815 
C    -3.0366730    2.6960125    1.1439659 
O    -2.5911007    2.0449474    2.1020871 
N    -4.2894652    3.2305554    1.1257022 
C    -5.1636530    3.3144786    2.3119418 
C    -5.3847578    4.7909114    2.6820356 
C    -6.4705939    2.5582563    2.1017317 
C    -7.4102310    2.9771811    1.1378245 
C    -8.5953333    2.2572300    0.9347293 
C    -8.8659335    1.1150215    1.7054504 
C    -7.9428257    0.6975588    2.6751522 
C    -6.7498683    1.4112586    2.8671957 
C     0.9294025    0.8918589    0.5683530 
C     0.6183354    1.9362389    1.4598939 
C     1.6076171    2.8546485    1.8306672 
C     2.9103406    2.7363304    1.3258298 
C     3.2271553    1.6962334    0.4448360 
C     2.2399793    0.7719833    0.0533121 
C     3.4904410   -0.2037732   -2.5587456 
C     3.3552426    1.2379603   -3.0114959 
C     4.3165644    2.1951192   -2.6473495 
C     4.2338825    3.5187664   -3.0967810 
C     3.1860896    3.9067453   -3.9429366 
C     2.2354781    2.9582079   -4.3395509 
C     2.3057797    1.6286176   -3.8783799 
C     1.2326871    0.6542665   -4.2706039 
O     0.6688940   -0.0639730   -3.4196797 
N     0.8982386    0.6280609   -5.5851572 
C    -0.2710985   -0.1059738   -6.1141696 
C     0.1090710   -0.8053754   -7.4225452 
C    -1.4804515    0.8304673   -6.1825038 
C    -1.9684398    1.3640363   -7.3885613 
C    -3.0642871    2.2428184   -7.3853010 
C    -3.6873998    2.5945079   -6.1796693 
C    -3.2106298    2.0674355   -4.9683519 
C    -2.1139362    1.1974842   -4.9764530 
C     4.2787170   -1.2542984   -0.1146723 
N     5.3083659   -0.8087746   -1.0543008 
N     4.8744994   -0.6455005   -2.3917343 
C     6.6336763   -0.6252298   -0.6813895 
O     6.9881331   -0.7875219    0.4796082 
C     7.5605038   -0.2962902   -1.8444612 
C     7.1585127   -1.0943242   -3.0960069 
C     5.7281230   -0.7535643   -3.4797861 
O     5.3253289   -0.5162270   -4.6121904 
C     4.3679617   -2.7094570    0.3111145 
C     5.1931805   -3.6255143   -0.3545138 
C     5.3183159   -4.9451934    0.1039012 
C     4.6190070   -5.3618790    1.2445475 
C     3.7992526   -4.4509668    1.9260826 
C     3.6671100   -3.1282522    1.4683548 
C     2.6723673   -2.2131969    2.1349751 
O     1.6841712   -1.8281407    1.4667766 
N     2.8206845   -1.8829222    3.4279008 
C     4.0854037   -1.8391727    4.1875680 
C     3.8284959   -2.2741650    5.6367064 
C     4.6731523   -0.4329504    4.0524271 
C     4.0173410    0.6868603    4.6050372 
C     4.5403195    1.9730486    4.4195027 
C     5.7138821    2.1616117    3.6699012 
C     6.3583594    1.0546876    3.1009498 
C     5.8415948   -0.2358618    3.2977381 
H    -3.8855858   -0.0072385    5.8704333 
H    -6.0662992    1.0956313    6.2984808 
H    -6.2525099    3.5893316    6.2512063 
H    -4.2264186    4.9713719    5.7417954 
H    -2.0435768    3.8636940    5.2798960 
H    -0.7476422    1.9178113    4.9206354 
H     0.1350400    0.5337059    6.8082293 
H    -0.8460468    1.9083211    7.4201690 
H    -1.5418200    0.2611781    7.3999181 
H    -2.3564745   -0.3277438    4.2108758 
H     0.2723553   -3.2132828    5.0754882 
H    -0.1518471   -5.3577270    3.8560030 
H    -1.3130494   -5.3083286    1.6337390 
H    -1.9502566   -3.1060957    0.6229345 
H    -1.2615568    0.2373930    2.2101936 
H    -1.6308606    0.2994563   -1.8879315 
H    -5.7610765    0.9616986    0.3543220 
H    -6.1015079   -0.2699938   -0.8658107 
H    -6.0031347   -1.0790211    1.6575795 
H    -5.0638537   -2.0310898    0.4725431 
H    -2.4591881    5.1616079    0.4574568 
H    -0.8009318    6.0070395   -1.2014665 
H     0.4650897    4.3578341   -2.6228674 
H    -0.0071612    1.9312499   -2.4035062 
H    -4.5802978    3.7079901    0.2723387 
H    -4.5965181    2.8184579    3.1150224 
H    -6.0325888    4.8631558    3.5701880 
H    -5.8712045    5.3439163    1.8582433 
H    -4.4202474    5.2759837    2.9086327 
H    -7.2173038    3.8700754    0.5309993 
H    -9.3127245    2.5909082    0.1774913 
H    -9.7954940    0.5567357    1.5521902 
H    -8.1474036   -0.1909557    3.2825674 
H    -6.0169605    1.0689023    3.6045230 
H    -0.3966146    2.0392209    1.8606914 
H     1.3595022    3.6602036    2.5291232 
H     3.6905472    3.4373031    1.6355744 
H     4.2568570    1.5899450    0.0923768 
H     3.0409169   -0.8631657   -3.3171094 
H     5.1608449    1.8902008   -2.0211471 
H     4.9945291    4.2448396   -2.7924706 
H     3.1121763    4.9396057   -4.2976946 
H     1.4078929    3.2548806   -4.9938422 
H     1.4001542    1.2450227   -6.2234903 
H    -0.4849475   -0.8699736   -5.3483894 
H     0.9276212   -1.5227919   -7.2455939 
H    -0.7566296   -1.3532505   -7.8289056 
H     0.4461789   -0.0850948   -8.1891153 
H    -1.5053282    1.0947876   -8.3432902 
H    -3.4348817    2.6472483   -8.3333540 
H    -4.5471186    3.2730830   -6.1843539 
H    -3.6916850    2.3051467   -4.0150429 
H    -1.7437691    0.7935275   -4.0296779 
H     4.3755885   -0.6340912    0.7931606 
H     7.5056650    0.7897374   -2.0540882 
H     8.5856047   -0.5173504   -1.5125822 
H     7.7973609   -0.8679751   -3.9619658 
H     7.2292748   -2.1818429   -2.8997078 
H     5.7514308   -3.2998916   -1.2365033 
H     5.9708322   -5.6450135   -0.4285884 
H     4.7171294   -6.3895957    1.6086943 
H     3.2451836   -4.7611855    2.8185120 
H     2.0500811   -1.3005508    3.8284590 
H     4.7824800   -2.5477598    3.7107548 
H     3.4597870   -3.3142046    5.6625195 
H     4.7584370   -2.2099496    6.2249213 
H     3.0697948   -1.6284908    6.1109409 
H     3.0804066    0.5598731    5.1574490 
H     4.0250666    2.8349023    4.8580955 
H     6.1207202    3.1694890    3.5296561 
H     7.2636945    1.1795725    2.4985505 
H     6.3467746   -1.0884130    2.8339667 
