197
Energy =
C    -1.4322690   -3.6029393   -1.6001629 
C    -0.3771350   -3.4598753   -2.5441798 
C     0.9528798   -3.7694273   -2.1619053 
H    -0.5758918   -2.9849335   -3.5120746 
Pd    0.0924074   -2.1247732   -0.8997450 
P     1.8952367   -0.6909076   -0.6054216 
P    -1.0602208   -0.6063112    0.4545256 
H    -1.2936829   -4.3632382   -0.8187440 
H     1.0829897   -4.4567412   -1.3118008 
C    -5.5068064   -2.7202069   -2.6560036 
C    -5.2101398   -3.8013538   -1.8127121 
C    -3.8836035   -4.0607125   -1.4411928 
C    -2.8298950   -3.2530985   -1.9246332 
C    -3.1427457   -2.1597789   -2.7672456 
C    -4.4689975   -1.8977090   -3.1247675 
H    -6.5434026   -2.5078298   -2.9363902 
H    -6.0132729   -4.4496537   -1.4458643 
H    -3.6562574   -4.9186911   -0.7980953 
H    -2.3373763   -1.5031556   -3.1184509 
H    -4.7014261   -1.0314810   -3.7508905 
C     4.3759614   -3.5893398   -4.7547518 
C     3.2546357   -2.7917887   -5.0360253 
C     2.1373040   -2.8283217   -4.1976144 
C     2.1190243   -3.6618816   -3.0547206 
C     3.2516436   -4.4618107   -2.7879350 
C     4.3683518   -4.4292319   -3.6314375 
H     5.2475334   -3.5569605   -5.4169924 
H     3.2575038   -2.1280536   -5.9016105 
H     1.2740103   -2.1984236   -4.4362883 
H     3.2486443   -5.1158614   -1.9103931 
H     5.2337802   -5.0630329   -3.4095067 
C    -0.0605097    2.0890043    6.4705429 
C     0.2564712    3.4345252    6.2261731 
C    -0.6025602    4.2303079    5.4528257 
C    -1.7707352    3.6660865    4.9133584 
C    -2.0893870    2.3247796    5.1667587 
C    -1.2424920    1.5254162    5.9571783 
C    -1.6289501    0.0908070    6.3159179 
C    -2.9551143    0.0256969    7.0906882 
N    -1.7213277   -0.8010476    5.1460806 
C    -0.6616988   -1.5287008    4.7292329 
O     0.4825358   -1.3876504    5.2099087 
C    -0.9535855   -2.6229533    3.7333196 
C    -0.4821697   -3.9050318    4.0798113 
C    -0.7771745   -5.0194760    3.2882187 
C    -1.5653151   -4.8627614    2.1374990 
C    -2.0020849   -3.5872985    1.7676199 
C    -1.6820520   -2.4566322    2.5365273 
C    -2.0474523   -1.0890673    1.9977719 
C    -2.5470892    0.3538293   -0.2672058 
N    -3.6966997   -0.2667261    0.3857624 
N    -3.4512441   -1.0187285    1.5760117 
C    -4.9510313   -0.2483598   -0.1950099 
O    -5.1672004    0.4299692   -1.1971972 
C    -5.9690240   -1.0986012    0.5425949 
C    -5.8496479   -0.9153175    2.0598693 
C    -4.4316703   -1.1284231    2.5509730 
O    -4.1485306   -1.4557455    3.7037011 
C    -2.4065576    1.8666194   -0.1865961 
C    -3.1262115    2.7115046    0.6824144 
C    -2.8442996    4.0938892    0.7093109 
C    -1.8536994    4.6418160   -0.1099183 
C    -1.1557369    3.8079923   -0.9944087 
C    -1.4400849    2.4402136   -1.0362146 
C    -4.1207893    2.2058609    1.6911309 
O    -3.7534290    1.5364275    2.6704270 
N    -5.4187076    2.5820715    1.5168801 
C    -6.0037362    3.2449941    0.3355542 
C    -7.4333084    2.7182476    0.1245438 
C    -5.9705434    4.7679967    0.4355055 
C    -5.7258228    5.5340621   -0.7182117 
C    -5.7067952    6.9345258   -0.6554101 
C    -5.9305290    7.5870979    0.5662969 
C    -6.1763774    6.8308398    1.7225091 
C    -6.1975997    5.4302604    1.6557144 
C     0.1096450    0.6701890    1.0577641 
C    -0.2590368    1.6230729    2.0266918 
C     0.6647946    2.5847116    2.4496646 
C     1.9603566    2.6001096    1.9149612 
C     2.3390126    1.6492770    0.9609645 
C     1.4172484    0.6815546    0.5182620 
C     2.5362575    0.0290852   -2.2526052 
C     2.2051720    1.4647936   -2.6055820 
C     3.0065214    2.5261055   -2.1511828 
C     2.7452399    3.8463235   -2.5359964 
C     1.6736089    4.1249137   -3.3963826 
C     0.8767883    3.0752863   -3.8711367 
C     1.1346415    1.7472737   -3.4834552 
C     0.2437853    0.6300323   -3.9620382 
O    -0.4397593   -0.0225557   -3.1492173 
N     0.2048389    0.3744042   -5.2959659 
C     1.0567463    0.9288981   -6.3673825 
C     0.2395344    1.8511025   -7.2930777 
C     1.7418799   -0.1733246   -7.1713170 
C     1.0253213   -1.2797917   -7.6667448 
C     1.6593981   -2.2483542   -8.4576960 
C     3.0180113   -2.1122066   -8.7805908 
C     3.7381347   -1.0089372   -8.2988414 
C     3.1056765   -0.0494300   -7.4946586 
C     3.6623726   -1.0674411    0.0302252 
N     4.5320851   -0.4023900   -0.9406842 
N     3.9721987   -0.2444641   -2.2289684 
C     5.8304476   -0.0041312   -0.6454210 
O     6.2910595   -0.1469285    0.4797447 
C     6.5972905    0.5297797   -1.8498507 
C     6.2293471   -0.2535911   -3.1223345 
C     4.7368128   -0.1266592   -3.3763328 
O     4.2066074    0.1311973   -4.4531639 
C     4.0046833   -2.5203666    0.3137265 
C     4.9773106   -3.2026435   -0.4294265 
C     5.3649456   -4.5054506   -0.0860433 
C     4.7737801   -5.1481096    1.0092258 
C     3.8092826   -4.4710835    1.7685687 
C     3.4246035   -3.1595751    1.4356500 
C     2.3461442   -2.4888408    2.2476115 
O     1.2822944   -2.1339425    1.6883412 
N     2.5327913   -2.3527619    3.5735112 
C     3.8328716   -2.1635810    4.2512902 
C     3.7621145   -2.7527107    5.6662894 
C     4.1789381   -0.6728593    4.2169902 
C     3.3798048    0.2741832    4.8921007 
C     3.6832885    1.6388985    4.8120974 
C     4.7795728    2.0790354    4.0508570 
C     5.5613324    1.1463220    3.3560750 
C     5.2623158   -0.2231347    3.4430919 
H     0.6122997    1.4702097    7.0753806 
H     1.1720060    3.8637593    6.6480398 
H    -0.3617437    5.2831227    5.2688917 
H    -2.4400191    4.2725087    4.2927192 
H    -2.9977463    1.9001704    4.7307047 
H    -0.8167837   -0.3212309    6.9383421 
H    -3.1640966   -1.0093264    7.4108887 
H    -2.9022574    0.6710828    7.9824920 
H    -3.7957585    0.3717577    6.4640356 
H    -2.6462904   -1.0224415    4.7393455 
H     0.1068364   -4.0132603    4.9957660 
H    -0.4151304   -6.0103855    3.5812650 
H    -1.8337791   -5.7331655    1.5285703 
H    -2.6131718   -3.4461953    0.8716980 
H    -1.8608719   -0.2977726    2.7425038 
H    -2.5903011    0.0748452   -1.3332640 
H    -6.9684514   -0.8395942    0.1647648 
H    -5.7693562   -2.1526225    0.2727067 
H    -6.1425251    0.1056207    2.3600469 
H    -6.4956844   -1.6132360    2.6152473 
H    -3.4077200    4.7368842    1.3920645 
H    -1.6380072    5.7138982   -0.0631558 
H    -0.3822629    4.2157665   -1.6506918 
H    -0.8937901    1.7867954   -1.7235714 
H    -6.0402901    2.3457058    2.2924573 
H    -5.3944625    2.9306146   -0.5280581 
H    -7.8836617    3.2087592   -0.7529692 
H    -8.0698901    2.9450828    0.9992582 
H    -7.4168336    1.6305734   -0.0537064 
H    -5.5343235    5.0264806   -1.6709897 
H    -5.5095426    7.5178400   -1.5612742 
H    -5.9118793    8.6807854    0.6181378 
H    -6.3516819    7.3329989    2.6799914 
H    -6.3761962    4.8488516    2.5676521 
H    -1.2683824    1.6291540    2.4527268 
H     0.3691436    3.3061516    3.2156024 
H     2.6909854    3.3364774    2.2606551 
H     3.3688827    1.6467407    0.5923058 
H     2.1051408   -0.6373596   -3.0149829 
H     3.8667701    2.3104455   -1.5106888 
H     3.3837106    4.6566907   -2.1700443 
H     1.4620065    5.1543715   -3.7025147 
H     0.0385770    3.2848851   -4.5426237 
H    -0.4721262   -0.3455474   -5.5577298 
H     1.8400880    1.5114876   -5.8586873 
H    -0.2179870    2.6788530   -6.7255196 
H     0.8925586    2.2743887   -8.0740014 
H    -0.5642539    1.2837646   -7.7943661 
H    -0.0433088   -1.3970611   -7.4457448 
H     1.0895425   -3.1070281   -8.8276078 
H     3.5129873   -2.8655426   -9.4020522 
H     4.8011896   -0.8995938   -8.5378245 
H     3.6825123    0.7872770   -7.0892163 
H     3.7578434   -0.5163746    0.9819487 
H     6.3551890    1.6021236   -1.9827221 
H     7.6677680    0.4610383   -1.6063012 
H     6.7529827    0.1236276   -4.0127062 
H     6.4864680   -1.3241547   -3.0068774 
H     5.4423528   -2.7075055   -1.2854241 
H     6.1298947   -5.0168393   -0.6793203 
H     5.0707019   -6.1661177    1.2812039 
H     3.3466181   -4.9526736    2.6366616 
H     1.7195941   -1.9647480    4.1031094 
H     4.5967595   -2.7038826    3.6686888 
H     3.5661695   -3.8378953    5.6179976 
H     4.7141415   -2.5850342    6.1958411 
H     2.9506090   -2.2816278    6.2463730 
H     2.4988501   -0.0506414    5.4559662 
H     3.0504386    2.3628679    5.3364538 
H     5.0166135    3.1476756    3.9948787 
H     6.4038587    1.4693392    2.7367555 
H     5.8715480   -0.9386964    2.8814591 
