197
Energy =
C    -1.4968380   -3.6641036   -2.2632536 
C    -0.1848390   -3.3864962   -2.7255589 
C     0.9513768   -3.6113718   -1.8994855 
H    -0.0479641   -2.8502696   -3.6727518 
Pd   -0.4391639   -2.1481093   -0.9619539 
P     0.9936504   -0.8119024    0.2764072 
P    -2.0868020   -0.6673118   -0.2164051 
H    -1.6055661   -4.4400928   -1.4916188 
H     0.8878358   -4.3923717   -1.1264212 
C    -5.0503987   -2.8302083   -4.5545325 
C    -3.8913214   -2.0630942   -4.7562703 
C    -2.7332860   -2.3297373   -4.0196583 
C    -2.7067431   -3.3670776   -3.0559727 
C    -3.8772501   -4.1394468   -2.8748624 
C    -5.0358219   -3.8746300   -3.6174460 
H    -5.9575263   -2.6148243   -5.1284664 
H    -3.9012047   -1.2334779   -5.4688293 
H    -1.8409428   -1.7132500   -4.1700499 
H    -3.8705562   -4.9717201   -2.1623038 
H    -5.9268851   -4.4943474   -3.4697271 
C     4.8864514   -2.7340940   -3.3960854 
C     4.6596673   -3.8895246   -2.6331243 
C     3.3826937   -4.1524872   -2.1186228 
C     2.3102365   -3.2704465   -2.3729856 
C     2.5513035   -2.1116365   -3.1470005 
C     3.8290322   -1.8450151   -3.6483533 
H     5.8865788   -2.5167289   -3.7847643 
H     5.4779058   -4.5921366   -2.4407247 
H     3.2020226   -5.0621072   -1.5371066 
H     1.7327830   -1.4047457   -3.3337970 
H     4.0047774   -0.9275853   -4.2136468 
C    -6.2044984    1.6152786    2.0957358 
C    -6.2913458    2.7352941    1.2566455 
C    -5.6478901    3.9332522    1.6079481 
C    -4.9169865    4.0011669    2.8027732 
C    -4.8322419    2.8786733    3.6414129 
C    -5.4729394    1.6740930    3.3000613 
C    -5.4150911    0.4731013    4.2430110 
C    -6.7480840    0.2617548    4.9841885 
N    -5.0328083   -0.7399753    3.5144433 
C    -3.8732653   -1.4089289    3.7269910 
O    -3.0517646   -1.1159932    4.6159330 
C    -3.6699497   -2.5745273    2.7954172 
C    -3.4669112   -3.8480782    3.3557632 
C    -3.3194051   -4.9727846    2.5358195 
C    -3.3801574   -4.8280622    1.1410189 
C    -3.5494654   -3.5580451    0.5816815 
C    -3.6757439   -2.4210872    1.3922992 
C    -3.6974244   -1.0512764    0.7365544 
C    -3.0221805    0.0971488   -1.6746507 
N    -4.4361715   -0.2414095   -1.4664309 
N    -4.7742432   -0.9186212   -0.2567840 
C    -5.3600263    0.0893882   -2.4473169 
O    -4.9830266    0.6064771   -3.4944396 
C    -6.8098651   -0.1799122   -2.0912942 
C    -6.9596593   -1.4284220   -1.2171851 
C    -6.0517521   -1.3666188   -0.0065022 
O    -6.3972137   -1.7144383    1.1295783 
C    -2.8123121    1.5757367   -1.9436460 
C    -1.8752295    2.0208386   -2.9092076 
C    -1.7623202    3.4011699   -3.1777847 
C    -2.5491111    4.3389086   -2.4994748 
C    -3.4737436    3.8953150   -1.5446616 
C    -3.6041407    2.5278088   -1.2816515 
C    -0.9702549    1.0531027   -3.6170782 
O    -0.4588143    0.0784341   -3.0311763 
N    -0.7012164    1.3269062   -4.9211631 
C     0.3071467    0.6093403   -5.7097761 
C    -0.0939836    0.6827450   -7.1913178 
C     1.7350734    1.1049181   -5.4239892 
C     2.0167627    1.9721463   -4.3529261 
C     3.3320516    2.3495341   -4.0503555 
C     4.3954397    1.8880791   -4.8358714 
C     4.1282878    1.0422456   -5.9226932 
C     2.8130412    0.6443381   -6.2063525 
C    -1.3303757    0.6199738    0.8620267 
C    -2.0669803    1.6405098    1.4927894 
C    -1.4470891    2.4807049    2.4270423 
C    -0.1015322    2.2900999    2.7696357 
C     0.6435653    1.2754463    2.1574053 
C     0.0365118    0.4545110    1.1910113 
C     2.3912248    0.2036759   -0.5562538 
C     2.2624646    1.7086876   -0.3550117 
C     1.1440399    2.3102611   -0.9659765 
C     0.8736152    3.6730613   -0.8226029 
C     1.7420092    4.4797894   -0.0741344 
C     2.8665581    3.9032725    0.5210044 
C     3.1326785    2.5218895    0.3978752 
C     4.2742486    1.9924869    1.2279054 
O     4.0623533    1.3130127    2.2422500 
N     5.5301570    2.3789406    0.8540407 
C     5.9172012    3.0454184   -0.4035312 
C     7.3036591    2.5374450   -0.8346351 
C     5.8843156    4.5689591   -0.3131498 
C     5.4819577    5.3200628   -1.4322663 
C     5.4619880    6.7210189   -1.3845087 
C     5.8447853    7.3897661   -0.2119949 
C     6.2503444    6.6489426    0.9086759 
C     6.2710204    5.2476532    0.8565061 
C     2.1725811   -1.6025032    1.5256027 
N     3.5168977   -1.2750556    1.0533828 
N     3.6096956   -0.4556250   -0.1057465 
C     4.6093752   -1.4715527    1.8941017 
O     4.4643207   -2.0015171    2.9879325 
C     5.9497065   -1.1157515    1.2745408 
C     5.9033564   -1.2277855   -0.2551658 
C     4.7863660   -0.3723412   -0.8241135 
O     4.8766684    0.3732683   -1.7988952 
C     1.9576187   -3.0999196    1.7217891 
C     2.8594147   -4.0417414    1.2061487 
C     2.6822060   -5.4131519    1.4352886 
C     1.6020880   -5.8651994    2.2057841 
C     0.6972968   -4.9347937    2.7333532 
C     0.8619202   -3.5591974    2.4881866 
C    -0.2496097   -2.6260666    2.8742840 
O    -0.8747892   -2.0602356    1.9467027 
N    -0.6076846   -2.4850456    4.1611236 
C     0.2949041   -2.6108838    5.3250732 
C    -0.4889287   -3.1439217    6.5297806 
C     0.9522703   -1.2454789    5.5356686 
C     2.2839673   -1.0491331    5.1275387 
C     2.8670364    0.2266080    5.1755324 
C     2.1261363    1.3162097    5.6549153 
C     0.7993608    1.1261140    6.0752109 
C     0.2103903   -0.1439904    6.0067233 
H    -6.7232634    0.6911494    1.8182376 
H    -6.8767015    2.6796041    0.3318559 
H    -5.7305743    4.8135366    0.9617712 
H    -4.4168237    4.9332107    3.0874208 
H    -4.2622643    2.9374495    4.5757373 
H    -4.6087451    0.6361516    4.9762742 
H    -6.6622035   -0.5828120    5.6882664 
H    -7.0198991    1.1702362    5.5471344 
H    -7.5623916    0.0439794    4.2706823 
H    -5.6482012   -1.1071300    2.7691399 
H    -3.4387061   -3.9462306    4.4454269 
H    -3.1745567   -5.9615942    2.9830742 
H    -3.2854644   -5.7052780    0.4916287 
H    -3.5835800   -3.4281177   -0.5025563 
H    -3.7890246   -0.2570524    1.4944197 
H    -2.6638519   -0.4823107   -2.5372213 
H    -7.1885868    0.7145394   -1.5585584 
H    -7.3717783   -0.2605718   -3.0334666 
H    -7.9887745   -1.5689884   -0.8570360 
H    -6.6697814   -2.3266321   -1.7961614 
H    -1.0194918    3.7487509   -3.9042931 
H    -2.4365407    5.4063971   -2.7130444 
H    -4.1004001    4.6115896   -1.0048167 
H    -4.3603079    2.1895784   -0.5666617 
H    -1.1790590    2.1127443   -5.3599477 
H     0.2565678   -0.4435514   -5.3730075 
H     0.5955431    0.0957193   -7.8167243 
H    -0.0682442    1.7266896   -7.5520326 
H    -1.1110505    0.2785689   -7.3313257 
H     1.2071302    2.3566352   -3.7291276 
H     3.5160517    2.9946525   -3.1855651 
H     5.4248218    2.1696986   -4.5933282 
H     4.9492403    0.6722705   -6.5461553 
H     2.6357061   -0.0427514   -7.0405775 
H    -3.1308836    1.7838895    1.2856988 
H    -2.0337836    3.2724055    2.9011288 
H     0.3766377    2.9258819    3.5200082 
H     1.7001936    1.1481785    2.4230500 
H     2.3054402    0.0097328   -1.6391923 
H     0.4590093    1.6763655   -1.5354606 
H    -0.0205009    4.0970635   -1.2872688 
H     1.5471346    5.5499219    0.0479628 
H     3.5500672    4.5224697    1.1090777 
H     6.2680523    2.1387302    1.5185941 
H     5.1875620    2.7179875   -1.1621276 
H     7.2750301    1.4491573   -1.0047329 
H     7.6038149    3.0297005   -1.7735625 
H     8.0664493    2.7780048   -0.0717155 
H     5.1714263    4.8015297   -2.3473354 
H     5.1408224    7.2917284   -2.2625212 
H     5.8263676    8.4839202   -0.1709060 
H     6.5511185    7.1639579    1.8273618 
H     6.5738632    4.6771395    1.7419883 
H     2.0023095   -1.0902152    2.4918217 
H     6.2008584   -0.0888431    1.5876503 
H     6.6978104   -1.7901793    1.7184105 
H     6.8448503   -0.9178469   -0.7309676 
H     5.7050145   -2.2744278   -0.5561040 
H     3.7172424   -3.6930574    0.6268213 
H     3.4029858   -6.1280622    1.0244091 
H     1.4665152   -6.9343791    2.3983063 
H    -0.1633637   -5.2660527    3.3239026 
H    -1.4549062   -1.8955958    4.3161642 
H     1.0833575   -3.3318790    5.0521615 
H    -0.8773412   -4.1541492    6.3139128 
H     0.1634707   -3.1950438    7.4166518 
H    -1.3470966   -2.4914370    6.7649692 
H     2.8710966   -1.8866585    4.7364573 
H     3.8897586    0.3649396    4.8142151 
H     2.5790511    2.3130622    5.6935682 
H     0.2142776    1.9747497    6.4471456 
H    -0.8395642   -0.2683832    6.2939735 
