197
Energy =
C    -1.2369826   -3.1548800   -2.0493502 
C     0.1042441   -3.3805747   -2.4429121 
C     1.0638905   -3.9628997   -1.5699407 
H     0.4435222   -2.9712999   -3.4028995 
Pd    0.2104325   -2.0570126   -0.7109581 
P     1.9403007   -1.3885754    0.6717394 
P    -0.7746606   -0.0407817   -0.0340312 
H    -1.6472697   -3.7952712   -1.2545759 
H     0.7086547   -4.6408650   -0.7794395 
C    -4.0946193   -1.5737514   -4.8517521 
C    -2.7932488   -1.0472819   -4.8108531 
C    -1.8664688   -1.5256466   -3.8791201 
C    -2.2211169   -2.5511924   -2.9730344 
C    -3.5404338   -3.0577493   -3.0107289 
C    -4.4681285   -2.5757400   -3.9433632 
H    -4.8176290   -1.1938898   -5.5809600 
H    -2.5056863   -0.2359232   -5.4827282 
H    -0.8630529   -1.0853355   -3.8411466 
H    -3.8292374   -3.8592394   -2.3220914 
H    -5.4814233   -2.9905509   -3.9656452 
C     5.1384278   -4.5452408   -2.8576884 
C     4.5348711   -5.4495043   -1.9724853 
C     3.2163196   -5.2483043   -1.5442544 
C     2.4692507   -4.1388507   -1.9954061 
C     3.0881947   -3.2444921   -2.9016003 
C     4.4056623   -3.4435703   -3.3241808 
H     6.1770850   -4.6877204   -3.1698682 
H     5.0941442   -6.3201666   -1.6134205 
H     2.7447969   -5.9674049   -0.8703705 
H     2.5320225   -2.3689578   -3.2461104 
H     4.8724898   -2.7203344   -4.0003834 
C    -2.9300569    3.7028880    3.1345453 
C    -2.1806623    4.8572901    2.8670560 
C    -1.3280094    5.3897357    3.8474535 
C    -1.2168223    4.7482862    5.0913849 
C    -1.9560943    3.5838717    5.3505775 
C    -2.8252506    3.0546374    4.3790491 
C    -3.6912188    1.8401112    4.7030772 
C    -5.1528345    2.2462633    4.9674851 
N    -3.6552641    0.8201309    3.6439167 
C    -3.0131791   -0.3590991    3.8017127 
O    -2.3407691   -0.6414059    4.8139340 
C    -3.2353923   -1.3818492    2.7135885 
C    -3.6696334   -2.6506980    3.1478837 
C    -3.9565217   -3.6705670    2.2356046 
C    -3.8173366   -3.4247750    0.8610139 
C    -3.3658458   -2.1761878    0.4233837 
C    -3.0491758   -1.1528607    1.3328278 
C    -2.4796667    0.1425108    0.7808091 
C    -1.2143135    1.2414272   -1.3940291 
N    -2.6669510    1.1277974   -1.4603501 
N    -3.3314406    0.6911035   -0.2810433 
C    -3.3726645    1.3387913   -2.6297991 
O    -2.8050197    1.7572531   -3.6365461 
C    -4.8547697    1.0378721   -2.5029481 
C    -5.4248807    1.5719997   -1.1815789 
C    -4.6216954    1.0907438    0.0109105 
O    -5.0840016    0.9591133    1.1459887 
C    -0.5966363    2.6281737   -1.2277224 
C    -1.3051756    3.8420264   -1.1060589 
C    -0.5940317    5.0567726   -0.9886811 
C     0.8033585    5.0825782   -0.9803533 
C     1.5100838    3.8793444   -1.1114434 
C     0.8119871    2.6767611   -1.2428450 
C    -2.8037388    3.9356602   -0.9742033 
O    -3.3780150    3.5491457    0.0532996 
N    -3.4797995    4.5359220   -1.9962865 
C    -2.9431336    4.9663041   -3.2964396 
C    -4.0060696    4.7289529   -4.3844282 
C    -2.4584032    6.4159852   -3.2931488 
C    -1.4436047    6.8064451   -4.1868674 
C    -0.9920256    8.1327528   -4.2241610 
C    -1.5523465    9.0910462   -3.3656817 
C    -2.5673954    8.7131300   -2.4746456 
C    -3.0170376    7.3845449   -2.4402422 
C     0.3411753    0.8327560    1.1320844 
C    -0.0335410    2.0307743    1.7665231 
C     0.8256419    2.6309726    2.6941711 
C     2.0599179    2.0367912    2.9957375 
C     2.4429875    0.8465716    2.3641481 
C     1.5926134    0.2454415    1.4184352 
C     3.6797532   -1.3511078   -0.1143906 
C     4.3003945    0.0142195   -0.3562070 
C     5.1916652    0.5712009    0.5757778 
C     5.8007699    1.8128008    0.3592436 
C     5.5401322    2.5236441   -0.8197213 
C     4.6746156    1.9734946   -1.7720932 
C     4.0452285    0.7311909   -1.5516698 
C     3.0654492    0.2150219   -2.5638132 
O     1.9495873   -0.2259694   -2.2315820 
N     3.4448700    0.2962155   -3.8667818 
C     2.5474757   -0.0175156   -4.9847560 
C     3.3957335   -0.2320751   -6.2491274 
C     1.4555024    1.0375580   -5.1865145 
C     0.3829704    0.7460575   -6.0534033 
C    -0.6168933    1.6951324   -6.2957698 
C    -0.5755763    2.9428411   -5.6560812 
C     0.4748316    3.2352348   -4.7790320 
C     1.4892389    2.2911734   -4.5567791 
C     2.5307024   -2.4247166    2.1552724 
N     3.9823459   -2.3704955    2.0712695 
N     4.4750799   -2.2258353    0.7544435 
C     4.8138985   -2.3168043    3.1847493 
O     4.3544543   -2.2416724    4.3170041 
C     6.2921543   -2.4589699    2.8335617 
C     6.4795790   -3.3178343    1.5686469 
C     5.7381865   -2.6788972    0.4010327 
O     6.1894519   -2.4802117   -0.7189440 
C     1.9256756   -3.8179611    2.1299262 
C     2.6640489   -4.9372625    1.7254444 
C     2.0652487   -6.2047983    1.6616478 
C     0.7064250   -6.3579846    1.9649485 
C    -0.0326156   -5.2513835    2.4046542 
C     0.5740981   -3.9912175    2.5197642 
C    -0.1705414   -2.8006283    3.0497962 
O    -0.2159797   -1.7542476    2.3551703 
N    -0.7213491   -2.8379764    4.2769507 
C    -0.8010097   -3.9462547    5.2486049 
C    -1.3753622   -3.3737448    6.5592176 
C     0.5301313   -4.6448217    5.5070346 
C     0.5546548   -6.0386210    5.6928831 
C     1.7527823   -6.6997202    5.9958506 
C     2.9452026   -5.9700125    6.1120592 
C     2.9308708   -4.5795584    5.9263575 
C     1.7292581   -3.9209568    5.6299778 
H    -3.5895921    3.3124546    2.3542176 
H    -2.2699171    5.3347544    1.8861804 
H    -0.7508169    6.2981351    3.6428172 
H    -0.5505467    5.1525741    5.8613063 
H    -1.8612336    3.0824159    6.3207723 
H    -3.2736628    1.3462314    5.5953977 
H    -5.7516238    1.3670377    5.2609885 
H    -5.1967182    2.9944663    5.7760248 
H    -5.6019101    2.6930168    4.0627609 
H    -4.2569254    0.9253191    2.8084355 
H    -3.7993775   -2.8169609    4.2217221 
H    -4.3094224   -4.6434925    2.5933003 
H    -4.0659106   -4.2048586    0.1334098 
H    -3.2638246   -1.9723811   -0.6459517 
H    -2.3600667    0.8928537    1.5788871 
H    -0.8225354    0.8245185   -2.3376681 
H    -5.3625809    1.4632077   -3.3803016 
H    -4.9697172   -0.0621600   -2.5492382 
H    -5.4140161    2.6747046   -1.1507892 
H    -6.4655529    1.2490207   -1.0222195 
H    -1.1562489    5.9906026   -0.8956019 
H     1.3311898    6.0355910   -0.8739697 
H     2.6045299    3.8692059   -1.1043781 
H     1.3626282    1.7394887   -1.3457601 
H    -4.4702228    4.7029062   -1.8091674 
H    -2.0867284    4.3046816   -3.5059782 
H    -3.6247079    5.0729644   -5.3596143 
H    -4.9238679    5.3049662   -4.1668748 
H    -4.2381518    3.6541848   -4.4549533 
H    -0.9982636    6.0641303   -4.8595526 
H    -0.1976039    8.4178756   -4.9221769 
H    -1.1990809   10.1271758   -3.3908206 
H    -3.0115514    9.4545184   -1.8018197 
H    -3.7988490    7.0978071   -1.7281303 
H    -0.9911059    2.5113177    1.5420166 
H     0.5117558    3.5544399    3.1889085 
H     2.7234255    2.4937004    3.7369344 
H     3.3907224    0.3733849    2.6351660 
H     3.5639487   -1.8747157   -1.0767789 
H     5.4276294    0.0116726    1.4850764 
H     6.4850501    2.2205132    1.1100940 
H     6.0101753    3.4954323   -0.9996593 
H     4.4623419    2.5265661   -2.6938921 
H     4.3907689    0.6118472   -4.0767327 
H     2.0397131   -0.9659891   -4.7282442 
H     4.1262602   -1.0458371   -6.0974159 
H     2.7502115   -0.4993507   -7.0999332 
H     3.9344366    0.6946634   -6.5158858 
H     0.3279333   -0.2340815   -6.5428132 
H    -1.4396868    1.4583133   -6.9782928 
H    -1.3731166    3.6703779   -5.8330609 
H     0.5103783    4.1935801   -4.2497309 
H     2.3042160    2.5359310   -3.8701442 
H     2.2323469   -1.8870636    3.0688342 
H     6.7287219   -1.4526270    2.6838992 
H     6.7899638   -2.8942780    3.7133801 
H     7.5363305   -3.4116868    1.2794866 
H     6.0829933   -4.3364884    1.7432311 
H     3.7167647   -4.8164995    1.4563744 
H     2.6626055   -7.0729520    1.3641597 
H     0.2311744   -7.3412816    1.8923034 
H    -1.0859121   -5.3663842    2.6788558 
H    -1.2537775   -1.9708674    4.5261564 
H    -1.5163376   -4.7015573    4.8677019 
H    -2.3429637   -2.8736405    6.3839358 
H    -1.5135164   -4.1884946    7.2874768 
H    -0.6780621   -2.6352335    6.9897709 
H    -0.3741712   -6.6132229    5.5911009 
H     1.7555132   -7.7863087    6.1347006 
H     3.8837065   -6.4847481    6.3449872 
H     3.8530721   -3.9959829    5.9969852 
H     1.7345371   -2.8361652    5.4776315 
