197
Energy =
C    -1.3893762   -3.0448070   -1.8270305 
C    -0.1418568   -3.4193496   -2.3872779 
C     0.8605250   -4.0594696   -1.6103670 
H     0.1033769   -3.0825554   -3.4022900 
Pd    0.3093154   -2.0261818   -0.7703549 
P     2.2720761   -1.3901273    0.2723133 
P    -0.4544647    0.0725120   -0.0838328 
H    -1.7432331   -3.6211261   -0.9591289 
H     0.5416034   -4.6382629   -0.7298830 
C    -4.4650758   -1.1994936   -4.2043280 
C    -3.1258429   -0.8122426   -4.3753209 
C    -2.1181554   -1.3898203   -3.5961612 
C    -2.4338168   -2.3646547   -2.6219143 
C    -3.7876983   -2.7315204   -2.4467982 
C    -4.7941875   -2.1592489   -3.2353942 
H    -5.2497435   -0.7428270   -4.8163516 
H    -2.8626104   -0.0362033   -5.0966325 
H    -1.0779036   -1.0707430   -3.7346374 
H    -4.0475097   -3.4939642   -1.7038563 
H    -5.8356839   -2.4671530   -3.0948490 
C     4.6669789   -5.2034987   -3.2789089 
C     3.9876575   -4.0857380   -3.7869541 
C     2.7553290   -3.7057583   -3.2483266 
C     2.1729568   -4.4280000   -2.1794812 
C     2.8604000   -5.5601297   -1.6912869 
C     4.0924748   -5.9439798   -2.2359701 
H     5.6424143   -5.4861517   -3.6856588 
H     4.4330210   -3.4917601   -4.5913375 
H     2.2433326   -2.8202207   -3.6316175 
H     2.4094198   -6.1500403   -0.8897344 
H     4.6058175   -6.8289941   -1.8445586 
C    -4.0536289    4.0977304    3.6263634 
C    -4.4727930    5.3350464    3.1218023 
C    -3.5477939    6.3757405    2.9437842 
C    -2.1961044    6.1612938    3.2472123 
C    -1.7803862    4.9220322    3.7556208 
C    -2.7034621    3.8829244    3.9659964 
C    -2.2598172    2.5890949    4.6314932 
C    -2.8422558    2.4529598    6.0544277 
N    -2.6189536    1.4266901    3.8006632 
C    -2.0455743    0.2194397    3.9894465 
O    -1.2010192    0.0066048    4.8853615 
C    -2.5179048   -0.8871297    3.0811407 
C    -2.9351001   -2.0813878    3.7003368 
C    -3.4182867   -3.1556528    2.9456136 
C    -3.4963091   -3.0383959    1.5490558 
C    -3.0644101   -1.8630321    0.9264809 
C    -2.5535478   -0.7889966    1.6727040 
C    -2.0119059    0.4177127    0.9296567 
C    -0.9857422    1.3185333   -1.4355447 
N    -2.4325665    1.4013750   -1.2759660 
N    -2.9814230    0.9407978   -0.0398392 
C    -3.2594275    1.7568552   -2.3280204 
O    -2.7825328    2.1889402   -3.3755647 
C    -4.7330034    1.5766523   -2.0210270 
C    -5.0667594    2.0783687   -0.6126369 
C    -4.1723743    1.4665960    0.4378142 
O    -4.4804815    1.3587754    1.6269483 
C    -0.1703281    2.6061224   -1.4508081 
C    -0.6292557    3.8888885   -1.0907291 
C     0.2479252    4.9930601   -1.1797317 
C     1.5780549    4.8355494   -1.5795723 
C     2.0407038    3.5560238   -1.9161108 
C     1.1685172    2.4657156   -1.8645979 
C    -1.9809476    4.1540535   -0.4839685 
O    -2.3463629    3.6058981    0.5652149 
N    -2.6964924    5.1165839   -1.1336700 
C    -3.8938197    5.7659116   -0.6021652 
C    -3.6489321    7.2851476   -0.5031239 
C    -5.1502478    5.4563614   -1.4153250 
C    -5.0950262    4.9724153   -2.7349879 
C    -6.2758351    4.7286361   -3.4545041 
C    -7.5256522    4.9599798   -2.8639607 
C    -7.5902004    5.4369474   -1.5448388 
C    -6.4118549    5.6850589   -0.8298555 
C     0.8735169    0.9423735    0.8437301 
C     0.6574267    2.1870875    1.4651060 
C     1.6998661    2.8048307    2.1663813 
C     2.9508038    2.1782196    2.2718131 
C     3.1655863    0.9322846    1.6690917 
C     2.1351966    0.3147569    0.9360831 
C     3.8538794   -1.5472010   -0.7875675 
C     4.5097520   -0.2680948   -1.2794971 
C     5.5414332    0.3318110   -0.5373788 
C     6.1995324    1.4823771   -0.9862952 
C     5.8463143    2.0539592   -2.2156888 
C     4.8378899    1.4575937   -2.9808887 
C     4.1582128    0.3087751   -2.5253321 
C     3.0383296   -0.2554138   -3.3510516 
O     1.9535941   -0.5972610   -2.8455476 
N     3.2639205   -0.3264508   -4.6904811 
C     2.2379704   -0.7017207   -5.6715090 
C     2.9353320   -0.9972623   -7.0096880 
C     1.1255391    0.3434145   -5.8052992 
C    -0.0204395    0.0179801   -6.5565813 
C    -1.0595409    0.9451717   -6.7136333 
C    -0.9893688    2.1986068   -6.0875825 
C     0.1421424    2.5268626   -5.3308582 
C     1.1984337    1.6125943   -5.2082828 
C     3.0454580   -2.3368822    1.7331135 
N     4.4648464   -2.3751542    1.4149145 
N     4.7384075   -2.3886662    0.0290776 
C     5.4714696   -2.2612583    2.3679550 
O     5.2109035   -2.0454614    3.5445729 
C     6.8630518   -2.5264156    1.8000153 
C     6.7998958   -3.5162742    0.6212467 
C     5.9030289   -2.9513827   -0.4733293 
O     6.1696084   -2.8911754   -1.6662124 
C     2.3870870   -3.6899119    1.9422735 
C     3.0080203   -4.8815310    1.5470260 
C     2.3659985   -6.1165212    1.7243172 
C     1.0742052   -6.1676799    2.2626066 
C     0.4561315   -4.9848084    2.6899552 
C     1.1145267   -3.7520325    2.5636226 
C     0.5088527   -2.4769665    3.0731748 
O     0.3918477   -1.5039589    2.2861049 
N     0.1597018   -2.3589410    4.3671302 
C     0.1958641   -3.3542025    5.4559758 
C    -0.1424396   -2.6193295    6.7678438 
C     1.5253625   -4.0916415    5.5816042 
C     1.5289730   -5.4568292    5.9193464 
C     2.7355064   -6.1453348    6.1051069 
C     3.9567067   -5.4728620    5.9494233 
C     3.9630793   -4.1115974    5.6104281 
C     2.7540238   -3.4247296    5.4319691 
H    -4.7890339    3.2970010    3.7606827 
H    -5.5298293    5.4908330    2.8787565 
H    -3.8801984    7.3504469    2.5719686 
H    -1.4658125    6.9652422    3.1031700 
H    -0.7259645    4.7629628    4.0113899 
H    -1.1582076    2.5803859    4.7131549 
H    -2.4665585    1.5286520    6.5222909 
H    -2.5365130    3.3159882    6.6693415 
H    -3.9448501    2.4224503    6.0204221 
H    -3.3597295    1.5006918    3.0808019 
H    -2.8941859   -2.1463248    4.7921043 
H    -3.7539956   -4.0702505    3.4455469 
H    -3.8986699   -3.8610116    0.9476556 
H    -3.1339813   -1.7536277   -0.1586050 
H    -1.7389793    1.2240818    1.6278552 
H    -0.7988492    0.8164215   -2.4003284 
H    -5.3087576    2.1055735   -2.7923627 
H    -4.9529969    0.4951625   -2.1026890 
H    -4.9446890    3.1730169   -0.5502412 
H    -6.1083556    1.8608177   -0.3297677 
H    -0.1213023    5.9831399   -0.8897317 
H     2.2477648    5.7007477   -1.6168067 
H     3.0818519    3.4013744   -2.2140511 
H     1.5269331    1.4680272   -2.1308167 
H    -2.3006365    5.4749990   -2.0018570 
H    -4.0130278    5.3534115    0.4144743 
H    -4.5264157    7.7889823   -0.0659907 
H    -3.4795254    7.7167032   -1.5060186 
H    -2.7706731    7.4895851    0.1321183 
H    -4.1314120    4.7385952   -3.1993483 
H    -6.2134269    4.3491618   -4.4802691 
H    -8.4458567    4.7671239   -3.4252932 
H    -8.5618454    5.6130038   -1.0712301 
H    -6.4697738    6.0500376    0.2026149 
H    -0.3171420    2.6853687    1.3952863 
H     1.5269666    3.7761084    2.6407341 
H     3.7588082    2.6516354    2.8386913 
H     4.1282378    0.4314426    1.7992180 
H     3.5422953   -2.1538194   -1.6522802 
H     5.8527416   -0.1262439    0.4054934 
H     6.9946329    1.9258132   -0.3784771 
H     6.3538906    2.9529877   -2.5787874 
H     4.5516291    1.9040831   -3.9397798 
H     4.1948010   -0.0947542   -5.0339357 
H     1.7648062   -1.6317142   -5.3036492 
H     3.6828278   -1.8015634   -6.8923544 
H     2.1985637   -1.3172312   -7.7622911 
H     3.4347597   -0.0900348   -7.3939151 
H    -0.1061521   -0.9709999   -7.0227175 
H    -1.9355905    0.6788486   -7.3147934 
H    -1.8209369    2.9042222   -6.1693790 
H     0.2030274    3.4925944   -4.8189492 
H     2.0786871    1.8906746   -4.6221417 
H     2.9254865   -1.7055925    2.6274140 
H     7.3110419   -1.5680573    1.4738849 
H     7.4814593   -2.9014560    2.6297030 
H     7.7887142   -3.7017812    0.1774138 
H     6.3942257   -4.4867311    0.9659387 
H     4.0031277   -4.8444711    1.0958364 
H     2.8757456   -7.0397565    1.4297874 
H     0.5614234   -7.1275739    2.3797516 
H    -0.5394270   -5.0168416    3.1431471 
H    -0.2818293   -1.4363743    4.5979588 
H    -0.5974740   -4.1063976    5.2766596 
H    -1.1105391   -2.0956970    6.6914502 
H    -0.1867597   -3.3447349    7.5955138 
H     0.6368018   -1.8733440    6.9985954 
H     0.5757006   -5.9882167    6.0296435 
H     2.7212445   -7.2093461    6.3651458 
H     4.9012357   -6.0095955    6.0900987 
H     4.9051410   -3.5746351    5.4687360 
H     2.7736672   -2.3643800    5.1574430 
