197
Energy =
C     1.9330745   -1.7272669   -2.6160836 
C     1.6718963   -2.8725482   -1.8004353 
C     0.3343770   -3.1211315   -1.4097574 
H     2.5005524   -3.4589557   -1.3847547 
Pd    1.0443430   -1.0804293   -0.7112613 
P    -0.2226363   -0.6250340    1.1974636 
P     1.0968840    1.2267044   -0.9725974 
H     1.1073419   -1.4242298   -3.2756084 
H    -0.4454291   -2.6422022   -2.0221735 
C     5.7898803   -0.6131147   -4.1548456 
C     4.6135583   -0.1884890   -4.7894126 
C     3.3667076   -0.5268309   -4.2499746 
C     3.2692649   -1.3014816   -3.0718180 
C     4.4632601   -1.6743979   -2.4129676 
C     5.7075619   -1.3414295   -2.9557094 
H     6.7675066   -0.3666960   -4.5819569 
H     4.6634441    0.3954783   -5.7149107 
H     2.4510009   -0.2066048   -4.7572226 
H     4.4161983   -2.2220440   -1.4659904 
H     6.6227610   -1.6449164   -2.4372363 
C    -1.2237454   -6.3028842    1.0211073 
C     0.1681923   -6.1105760    0.9527229 
C     0.7014170   -5.0749123    0.1788428 
C    -0.1494691   -4.2127196   -0.5534401 
C    -1.5474056   -4.4256751   -0.4800188 
C    -2.0810969   -5.4543839    0.3045451 
H    -1.6359898   -7.1176983    1.6256432 
H     0.8410806   -6.7767298    1.5029274 
H     1.7880793   -4.9508077    0.1295958 
H    -2.2150893   -3.7798643   -1.0619161 
H    -3.1653404   -5.5879072    0.3596979 
C    -5.5293583   -2.4819364   -0.1515276 
C    -6.4177848   -2.7752134    0.8916026 
C    -7.6961067   -2.1974714    0.9126191 
C    -8.0799698   -1.3197314   -0.1119378 
C    -7.1818756   -1.0154673   -1.1441417 
C    -5.8978967   -1.5894584   -1.1721300 
C    -4.9680751   -1.2550843   -2.3295057 
C    -5.0398689   -2.3356741   -3.4280775 
N    -3.5445310   -1.0934222   -1.9764408 
C    -2.9125074   -0.4675012   -0.9614038 
O    -1.6700437   -0.2816044   -1.0290853 
C    -3.6017101   -0.0768614    0.3064506 
C    -4.6838317    0.8162639    0.3374213 
C    -5.2746274    1.1658731    1.5569965 
C    -4.7848865    0.6110131    2.7474294 
C    -3.6914883   -0.2643560    2.7241599 
C    -3.0793438   -0.6075768    1.5099780 
C    -1.8694490   -1.5265615    1.4422152 
C     0.3971660   -1.1398924    2.9407095 
N    -0.4172125   -2.3250022    3.2692739 
N    -1.6958652   -2.3676974    2.6313782 
C    -0.0406476   -3.2823741    4.1900143 
O     0.9676063   -3.1554606    4.8925016 
C    -0.9398785   -4.4982625    4.2757176 
C    -2.4134665   -4.0913833    4.2162104 
C    -2.6746474   -3.2947682    2.9556657 
O    -3.6705435   -3.4107139    2.2480070 
C     1.8876833   -1.4306062    2.9136730 
C     2.7734206   -0.7348728    3.7614608 
C     4.1610864   -0.8831187    3.6002072 
C     4.6731803   -1.7474891    2.6244930 
C     3.7931503   -2.4930622    1.8252142 
C     2.4113599   -2.3307784    1.9696897 
C     2.2414513    0.1235430    4.8900005 
O     2.3441548    1.3663993    4.9029527 
N     1.6779275   -0.6268297    5.8607553 
C     0.9575502   -0.1652482    7.0643763 
C     1.6887031    0.9553518    7.8179475 
C    -0.4991636    0.1493969    6.7182016 
C    -0.8773923    1.3767072    6.1372921 
C    -2.2278471    1.6434749    5.8667251 
C    -3.2143085    0.6862464    6.1502243 
C    -2.8428997   -0.5523883    6.6930932 
C    -1.4939885   -0.8137978    6.9757816 
C    -0.5224497    1.1834566    1.3128466 
C    -1.1689784    1.7685550    2.4134122 
C    -1.3439886    3.1569571    2.4786613 
C    -0.8552367    3.9735803    1.4529257 
C    -0.1861483    3.3998991    0.3639724 
C    -0.0205938    2.0063750    0.2746622 
C     0.5413911    1.5723024   -2.7868941 
C    -0.9072740    1.8730528   -3.1012180 
C    -1.4968129    3.0847465   -2.6974640 
C    -2.8427836    3.3591641   -2.9621509 
C    -3.6232847    2.4206868   -3.6543457 
C    -3.0419317    1.2235977   -4.0874222 
C    -1.6882574    0.9430291   -3.8226226 
C    -1.1653716   -0.3739010   -4.3514869 
O    -1.6133275   -1.4656656   -3.9478323 
N    -0.2632368   -0.2967560   -5.3552997 
C     0.1145096   -1.4800114   -6.1518691 
C     1.0338509   -1.0348113   -7.3000474 
C    -1.1293122   -2.2007547   -6.6700737 
C    -2.1685864   -1.4776047   -7.2842975 
C    -3.3067955   -2.1376534   -7.7669645 
C    -3.4156952   -3.5321527   -7.6471263 
C    -2.3801183   -4.2593803   -7.0420574 
C    -1.2457122   -3.5950358   -6.5541730 
C     2.4495798    2.5750194   -1.0634045 
N     2.1059093    3.3479922   -2.2542926 
N     1.4698135    2.6066515   -3.2698474 
C     2.4135282    4.6933662   -2.4174486 
O     2.9309179    5.3381802   -1.5154091 
C     2.1171795    5.2032381   -3.8220160 
C     2.4864147    4.1282873   -4.8600494 
C     1.6760610    2.8671618   -4.6031015 
O     1.1651254    2.1718982   -5.4870096 
C     3.8916490    2.1157763   -0.9808243 
C     4.7524085    2.1476906   -2.0846693 
C     6.1098846    1.8280345   -1.9401912 
C     6.6183003    1.4595844   -0.6878747 
C     5.7638973    1.4189954    0.4220602 
C     4.4050006    1.7523445    0.2869517 
C     3.4696144    1.6241442    1.4543769 
O     2.4126408    0.9661913    1.3129327 
N     3.8108269    2.1602567    2.6428916 
C     4.5742346    3.4095159    2.8504200 
C     5.4048300    3.2985377    4.1339132 
C     3.5618544    4.5572600    2.8286188 
C     3.3812791    5.2933300    1.6438115 
C     2.3835233    6.2754621    1.5543819 
C     1.5548692    6.5343585    2.6559349 
C     1.7214039    5.7974309    3.8397299 
C     2.7147571    4.8120126    3.9253286 
H    -4.5261650   -2.9180340   -0.1327080 
H    -6.0896011   -3.4413300    1.6939021 
H    -8.3898375   -2.4259147    1.7289092 
H    -9.0752410   -0.8623668   -0.1026199 
H    -7.4768823   -0.3125744   -1.9332346 
H    -5.3153704   -0.2981796   -2.7700848 
H    -4.7278296   -3.3121625   -3.0192911 
H    -6.0757126   -2.4274764   -3.7915757 
H    -4.3808334   -2.0882863   -4.2792571 
H    -2.8741141   -1.3008794   -2.7510320 
H    -5.0662019    1.2309282   -0.5997978 
H    -6.1255545    1.8537764    1.5759553 
H    -5.2572799    0.8604871    3.7025553 
H    -3.3096089   -0.6822179    3.6604613 
H    -1.9579478   -2.1896048    0.5657149 
H     0.1650943   -0.3166129    3.6398376 
H    -0.6965587   -5.1589035    3.4224771 
H    -0.6815531   -5.0265319    5.2044961 
H    -3.0906101   -4.9577239    4.2090822 
H    -2.6765733   -3.4579911    5.0857237 
H     4.8368374   -0.3231736    4.2542046 
H     5.7558985   -1.8590012    2.5056782 
H     4.1856758   -3.2000851    1.0861715 
H     1.7203798   -2.9122650    1.3500167 
H     1.5572946   -1.6252665    5.6157441 
H     0.9433904   -1.0524802    7.7203234 
H     2.7142740    0.6317266    8.0632390 
H     1.1517955    1.1688849    8.7572108 
H     1.7556240    1.8755698    7.2204285 
H    -0.1119775    2.1225945    5.9003018 
H    -2.5170478    2.6116776    5.4443816 
H    -4.2686404    0.9087291    5.9572623 
H    -3.6059010   -1.3057484    6.9183866 
H    -1.2070274   -1.7744331    7.4205903 
H    -1.5316242    1.1508148    3.2383991 
H    -1.8462513    3.6002602    3.3434711 
H    -0.9584563    5.0608250    1.5118734 
H     0.2438080    4.0616437   -0.3945162 
H     0.8265991    0.6403691   -3.2924557 
H    -0.8899890    3.8249520   -2.1706198 
H    -3.2808254    4.3063235   -2.6314031 
H    -4.6757004    2.6289908   -3.8733037 
H    -3.6308790    0.4972306   -4.6573158 
H     0.1336473    0.6297605   -5.5828620 
H     0.6642357   -2.1813987   -5.4954408 
H     0.5000211   -0.3483274   -7.9792894 
H     1.9337001   -0.5214332   -6.9207690 
H     1.3505596   -1.9157535   -7.8802508 
H    -2.0923636   -0.3868956   -7.3702653 
H    -4.1099915   -1.5632314   -8.2414537 
H    -4.3042174   -4.0493424   -8.0244178 
H    -2.4594409   -5.3471730   -6.9414092 
H    -0.4480984   -4.1642593   -6.0624750 
H     2.2583334    3.2277011   -0.1963560 
H     1.0400254    5.4474242   -3.8983312 
H     2.6845603    6.1350414   -3.9600247 
H     2.2770099    4.4481328   -5.8915079 
H     3.5655135    3.8881498   -4.7987820 
H     4.3641524    2.4360653   -3.0651957 
H     6.7690274    1.8663562   -2.8122071 
H     7.6773485    1.2063742   -0.5747688 
H     6.1419823    1.1246385    1.4066799 
H     3.1498791    1.9334510    3.4191677 
H     5.2488241    3.5363072    1.9881969 
H     6.1594843    2.5002853    4.0277322 
H     5.9204683    4.2501487    4.3426939 
H     4.7667935    3.0474632    4.9981930 
H     4.0104372    5.0942433    0.7695553 
H     2.2641787    6.8276949    0.6170475 
H     0.7813005    7.3081486    2.5948956 
H     1.0738096    5.9907997    4.7021959 
H     2.8151791    4.2258668    4.8448736 
