197
Energy =
C    -1.7962118   -3.3859581   -2.6675774 
C    -0.3803013   -3.4389364   -2.7892734 
C     0.4630820   -3.6835499   -1.6767461 
H     0.0788218   -3.1497377   -3.7431823 
Pd   -0.8032886   -1.8523059   -1.3589067 
P     0.4484937   -0.3077423   -0.1119911 
P    -2.5014119   -0.2762201   -1.1769371 
H    -2.2749655   -3.9721563   -1.8691539 
H     0.0417402   -4.2512686   -0.8337722 
C    -4.2838508   -2.4391639   -6.0601045 
C    -3.0056734   -1.8715389   -5.9474658 
C    -2.1964865   -2.1690473   -4.8464582 
C    -2.6476371   -3.0416939   -3.8259163 
C    -3.9317952   -3.6133885   -3.9604950 
C    -4.7391491   -3.3163717   -5.0659374 
H    -4.9265332   -2.1854461   -6.9080242 
H    -2.6463047   -1.1713727   -6.7083749 
H    -1.2173515   -1.6915805   -4.7493866 
H    -4.2837752   -4.3159150   -3.2001072 
H    -5.7309609   -3.7728845   -5.1513335 
C     4.7131416   -4.0164406   -2.2656642 
C     4.0560678   -4.8481339   -1.3458681 
C     2.6798361   -4.7036920   -1.1236644 
C     1.9336891   -3.7305297   -1.8259583 
C     2.6164340   -2.8806654   -2.7258066 
C     3.9894994   -3.0241745   -2.9480047 
H     5.7879303   -4.1296670   -2.4406590 
H     4.6145449   -5.6196356   -0.8054506 
H     2.1683215   -5.3747121   -0.4245270 
H     2.0587407   -2.0940094   -3.2468112 
H     4.5030793   -2.3447257   -3.6338899 
C    -3.0172359   -1.7388572    6.3493640 
C    -2.3895190   -2.2777748    7.4806509 
C    -2.3357489   -3.6692745    7.6614536 
C    -2.9173317   -4.5179180    6.7074772 
C    -3.5353715   -3.9752751    5.5702235 
C    -3.5863904   -2.5831257    5.3748140 
C    -4.1544375   -2.0106451    4.0790831 
C    -5.2349968   -0.9327715    4.2747038 
N    -3.0333077   -1.4595405    3.2935710 
C    -2.7101422   -1.6956511    2.0175182 
O    -1.7809310   -1.0711504    1.4456324 
C    -3.4939120   -2.6796809    1.1998457 
C    -3.4835399   -4.0579838    1.4709116 
C    -4.1787902   -4.9434595    0.6348622 
C    -4.8927383   -4.4446746   -0.4646875 
C    -4.8847682   -3.0707050   -0.7491122 
C    -4.1794712   -2.1782298    0.0712488 
C    -4.0895276   -0.6894616   -0.2253063 
C    -3.4788892    0.2106294   -2.7345706 
N    -4.8689640   -0.1796235   -2.4466673 
N    -5.1859606   -0.1670510   -1.0479588 
C    -5.8289348   -0.0126845   -3.4405981 
O    -5.4881744    0.0844358   -4.6135616 
C    -7.2576958    0.1714428   -2.9580306 
C    -7.5741900   -0.4773954   -1.6088602 
C    -6.4858505   -0.3299876   -0.5618585 
O    -6.6727586   -0.4432891    0.6431365 
C    -3.3358674    1.6502576   -3.2025181 
C    -2.2359432    2.0395553   -4.0036712 
C    -2.1284915    3.3706210   -4.4548503 
C    -3.0990328    4.3223472   -4.1230008 
C    -4.1969417    3.9368389   -3.3423200 
C    -4.3098934    2.6148192   -2.8943048 
C    -1.1247127    1.0788129   -4.2848404 
O    -0.6671920    0.3437640   -3.3869971 
N    -0.6025795    1.0850122   -5.5397486 
C     0.7085551    0.4841016   -5.8490109 
C     0.7626735    0.0892656   -7.3307678 
C     1.8364548    1.4305900   -5.4343407 
C     2.8893568    0.9819728   -4.6196507 
C     3.9102810    1.8567229   -4.2162566 
C     3.8871099    3.1949836   -4.6287749 
C     2.8456474    3.6538812   -5.4506113 
C     1.8289671    2.7770697   -5.8498178 
C    -1.8889012    1.2204700   -0.3100933 
C    -2.7228276    2.3137599   -0.0143547 
C    -2.2467816    3.3727295    0.7695945 
C    -0.9437261    3.3340987    1.2858805 
C    -0.1148397    2.2351681    1.0271173 
C    -0.5808536    1.1771872    0.2251165 
C     2.0543385    0.3812354   -0.8991419 
C     2.1364319    1.8952655   -1.0462750 
C     1.3114299    2.4614918   -2.0355161 
C     1.2923063    3.8367551   -2.2760124 
C     2.1269321    4.6845895   -1.5356364 
C     2.9631176    4.1377845   -0.5581509 
C     2.9686870    2.7502340   -0.2958388 
C     3.7564218    2.2918488    0.9002174 
O     3.1777129    1.8785786    1.9181418 
N     5.1127336    2.4335760    0.8450393 
C     5.9243465    2.7536096   -0.3410184 
C     7.2086854    1.9048173   -0.3233747 
C     6.2451279    4.2418389   -0.4721908 
C     6.5036735    4.7750874   -1.7486277 
C     6.8249488    6.1296281   -1.9076494 
C     6.8931193    6.9719168   -0.7870359 
C     6.6412725    6.4487134    0.4894565 
C     6.3203457    5.0914946    0.6451565 
C     1.3486496   -0.6589370    1.5217840 
N     2.7602702   -0.8102162    1.1386993 
N     3.1110773   -0.2864782   -0.1430228 
C     3.7273088   -0.9403752    2.1240833 
O     3.4304329   -1.0662238    3.3111820 
C     5.1502926   -1.0256169    1.6046533 
C     5.1892905   -1.4971869    0.1476537 
C     4.3208883   -0.6126115   -0.7247712 
O     4.6265537   -0.1754246   -1.8336519 
C     0.8569096   -1.8729839    2.2834290 
C     1.0204178   -3.1481013    1.7202980 
C     0.5223146   -4.2875353    2.3616969 
C    -0.1476960   -4.1595584    3.5885569 
C    -0.2939372   -2.8949453    4.1715155 
C     0.2139437   -1.7488676    3.5331468 
C     0.0397211   -0.4260581    4.2374105 
O    -1.0824726    0.0255122    4.5409426 
N     1.1840991    0.2102244    4.5633482 
C     1.1691784    1.4364880    5.3732488 
C     2.5768707    2.0501645    5.3772989 
C     0.6432149    1.1387522    6.7782457 
C     1.2010655    0.0952868    7.5405126 
C     0.7231923   -0.1824405    8.8282172 
C    -0.3233458    0.5807074    9.3706343 
C    -0.8889662    1.6185389    8.6147788 
C    -0.4079440    1.8923241    7.3258693 
H    -3.0185564   -0.6533256    6.2113740 
H    -1.9276318   -1.6050047    8.2107083 
H    -1.8427561   -4.0905080    8.5440749 
H    -2.8876198   -5.6041712    6.8464418 
H    -3.9784215   -4.6420560    4.8205834 
H    -4.5935876   -2.8350308    3.4958442 
H    -5.6410259   -0.6271360    3.2949739 
H    -6.0576494   -1.3306186    4.8926344 
H    -4.8209348   -0.0434844    4.7804147 
H    -2.3748058   -0.8054810    3.7891902 
H    -2.9241710   -4.4274347    2.3366535 
H    -4.1746067   -6.0172862    0.8479861 
H    -5.4565129   -5.1292625   -1.1073104 
H    -5.4217776   -2.6936214   -1.6240283 
H    -4.0677516   -0.1143272    0.7117191 
H    -3.1110885   -0.4666164   -3.5212669 
H    -7.3977906    1.2690043   -2.8950663 
H    -7.9293931   -0.1812701   -3.7556328 
H    -8.5160476   -0.1048859   -1.1774226 
H    -7.6978756   -1.5717433   -1.7316903 
H    -1.2543368    3.6671032   -5.0453204 
H    -2.9983230    5.3555557   -4.4694094 
H    -4.9704926    4.6658816   -3.0805544 
H    -5.1781673    2.3270289   -2.2932964 
H    -1.0383721    1.6850758   -6.2388230 
H     0.7780575   -0.4218204   -5.2241492 
H     1.7349312   -0.3766115   -7.5573966 
H     0.6582465    0.9761891   -7.9816226 
H    -0.0401511   -0.6280097   -7.5747322 
H     2.9122334   -0.0580327   -4.2765060 
H     4.6975975    1.4791009   -3.5591120 
H     4.6692554    3.8873945   -4.3019494 
H     2.8230322    4.6991670   -5.7768231 
H     1.0199232    3.1496522   -6.4901933 
H    -3.7531471    2.3313687   -0.3777364 
H    -2.9025555    4.2216053    0.9883460 
H    -0.5703350    4.1560071    1.9049351 
H     0.8965966    2.2101188    1.4493900 
H     2.0830539   -0.0397186   -1.9175071 
H     0.6694616    1.7974623   -2.6147180 
H     0.6314492    4.2401220   -3.0489368 
H     2.1318899    5.7643635   -1.7153439 
H     3.6143129    4.7909157    0.0301635 
H     5.5959599    2.2568554    1.7278864 
H     5.3221983    2.4497053   -1.2137826 
H     6.9649078    0.8305324   -0.3535853 
H     7.8274088    2.1443785   -1.2028266 
H     7.8095823    2.1227000    0.5779424 
H     6.4485732    4.1211052   -2.6271993 
H     7.0183652    6.5301061   -2.9085835 
H     7.1405942    8.0315786   -0.9087161 
H     6.6930668    7.0989708    1.3692473 
H     6.1089518    4.6976547    1.6455303 
H     1.2450493    0.2578790    2.1243185 
H     5.6043201   -0.0244474    1.7039085 
H     5.6997168   -1.7012587    2.2781473 
H     6.2049431   -1.5020993   -0.2729310 
H     4.7892300   -2.5261759    0.0737386 
H     1.5619461   -3.2348448    0.7749986 
H     0.6614333   -5.2756628    1.9090257 
H    -0.5431184   -5.0408060    4.1042070 
H    -0.7964157   -2.7885652    5.1371410 
H     2.0758048   -0.2223872    4.2737767 
H     0.4615072    2.1353768    4.8908282 
H     2.9176278    2.2399187    4.3454800 
H     2.5687109    2.9963349    5.9423374 
H     3.2953063    1.3684011    5.8662025 
H     2.0063824   -0.5155192    7.1154567 
H     1.1668699   -0.9977379    9.4101161 
H    -0.6982094    0.3650112   10.3769757 
H    -1.7117571    2.2124995    9.0274072 
H    -0.8646821    2.6902708    6.7291487 
