197
Energy =
C    -1.5128319   -3.6653555   -2.2136615 
C    -0.2216002   -3.3602030   -2.7126563 
C     0.9483864   -3.5509013   -1.9241842 
H    -0.1277902   -2.8210312   -3.6633544 
Pd   -0.4465653   -2.1281112   -0.9401621 
P     0.9991557   -0.7910909    0.2779316 
P    -2.0879960   -0.6516620   -0.1629465 
H    -1.5866318   -4.4395194   -1.4360907 
H     0.9392520   -4.3381277   -1.1551473 
C    -5.1452895   -2.8794066   -4.3968413 
C    -5.0854532   -3.9301321   -3.4685369 
C    -3.9009438   -4.1811711   -2.7629799 
C    -2.7491995   -3.3881822   -2.9725216 
C    -2.8215220   -2.3455094   -3.9281128 
C    -4.0052238   -2.0921682   -4.6278101 
H    -6.0727316   -2.6750470   -4.9416685 
H    -5.9618989   -4.5645537   -3.2978798 
H    -3.8598808   -5.0168195   -2.0556570 
H    -1.9436380   -1.7146869   -4.1013247 
H    -4.0498919   -1.2573062   -5.3329692 
C     4.7753223   -2.5421678   -3.6107164 
C     4.6282721   -3.6992323   -2.8307834 
C     3.3893509   -4.0054313   -2.2499729 
C     2.2752346   -3.1628612   -2.4523741 
C     2.4387867   -1.9972272   -3.2374639 
C     3.6769203   -1.6900569   -3.8097332 
H     5.7453838   -2.2940077   -4.0530022 
H     5.4795162   -4.3719578   -2.6789106 
H     3.2707258   -4.9202326   -1.6603138 
H     1.5892157   -1.3168876   -3.3749698 
H     3.7920678   -0.7715360   -4.3900748 
C    -6.1430692    1.6172726    2.2185068 
C    -6.2366668    2.7329928    1.3745217 
C    -5.5871330    3.9315252    1.7125297 
C    -4.8456939    4.0047751    2.9005482 
C    -4.7534876    2.8861965    3.7437157 
C    -5.3978488    1.6803409    3.4141917 
C    -5.3274002    0.4815216    4.3593530 
C    -6.6488414    0.2743615    5.1220099 
N    -4.9589589   -0.7335051    3.6269492 
C    -3.7953688   -1.4024444    3.8174981 
O    -2.9577310   -1.1113226    4.6916514 
C    -3.6086636   -2.5655853    2.8794796 
C    -3.3952972   -3.8405056    3.4328333 
C    -3.2613450   -4.9630232    2.6076452 
C    -3.3456889   -4.8144153    1.2145285 
C    -3.5256597   -3.5431046    0.6614727 
C    -3.6397279   -2.4083236    1.4770458 
C    -3.6778817   -1.0372653    0.8243399 
C    -3.0558657    0.1115899   -1.6020755 
N    -4.4681948   -0.2036495   -1.3504306 
N    -4.7741875   -0.9084795   -0.1478718 
C    -5.4114657    0.1108427   -2.3183892 
O    -5.0566604    0.6207598   -3.3767643 
C    -6.8528662   -0.1645190   -1.9336694 
C    -6.9781200   -1.4201156   -1.0656815 
C    -6.0454092   -1.3615445    0.1263361 
O    -6.3664501   -1.7171941    1.2669780 
C    -2.8343838    1.5849380   -1.8953425 
C    -1.9047384    2.0064497   -2.8792637 
C    -1.7777161    3.3797488   -3.1725799 
C    -2.5468570    4.3365234   -2.5002532 
C    -3.4635317    3.9181831   -1.5262895 
C    -3.6057189    2.5566375   -1.2380546 
C    -1.0168367    1.0149357   -3.5700152 
O    -0.5134312    0.0532451   -2.9537319 
N    -0.7498928    1.2392186   -4.8827481 
C     0.2050546    0.4317504   -5.6562018 
C    -0.3300934    0.2577726   -7.0839439 
C     1.6348449    0.9877850   -5.5561145 
C     2.5933876    0.7339504   -6.5564991 
C     3.9188010    1.1736887   -6.4086822 
C     4.3135008    1.8665580   -5.2552025 
C     3.3667881    2.1294192   -4.2552550 
C     2.0433327    1.6998418   -4.4109164 
C    -1.3139892    0.6400085    0.8975353 
C    -2.0399564    1.6653305    1.5327585 
C    -1.4056363    2.5074719    2.4557188 
C    -0.0570757    2.3128492    2.7840581 
C     0.6778129    1.2939121    2.1666549 
C     0.0567360    0.4729898    1.2094108 
C     2.3771287    0.2277777   -0.5807211 
C     2.2519241    1.7319313   -0.3722731 
C     1.1240661    2.3375394   -0.9623526 
C     0.8536641    3.6988858   -0.8042026 
C     1.7301674    4.4997513   -0.0593144 
C     2.8636228    3.9197173    0.5153975 
C     3.1314261    2.5404336    0.3752274 
C     4.2855159    2.0062692    1.1849603 
O     4.0892456    1.3180560    2.1965079 
N     5.5350477    2.3991162    0.7972274 
C     5.9035411    3.0704995   -0.4641277 
C     7.2926713    2.5799629   -0.9052447 
C     5.8493011    4.5929598   -0.3735565 
C     6.2923585    5.2784234    0.7720763 
C     6.2468584    6.6788005    0.8277546 
C     5.7598467    7.4116731   -0.2656469 
C     5.3203251    6.7360746   -1.4140022 
C     5.3646852    5.3357053   -1.4650085 
C     2.2044851   -1.5870766    1.4969280 
N     3.5383682   -1.2607113    0.9946947 
N     3.6059882   -0.4312990   -0.1593577 
C     4.6496875   -1.4647374    1.8085216 
O     4.5298264   -2.0056775    2.8999973 
C     5.9753970   -1.0997491    1.1633980 
C     5.8970934   -1.1990780   -0.3658359 
C     4.7664406   -0.3413484   -0.9031654 
O     4.8344918    0.4114278   -1.8741373 
C     1.9895737   -3.0854205    1.6857082 
C     2.8729367   -4.0247371    1.1345316 
C     2.6952076   -5.3981361    1.3507744 
C     1.6342630   -5.8546525    2.1451180 
C     0.7484649   -4.9268759    2.7083228 
C     0.9120628   -3.5489705    2.4750403 
C    -0.1883475   -2.6172555    2.8955049 
O    -0.8261898   -2.0336450    1.9881071 
N    -0.5267376   -2.4976452    4.1904126 
C     0.4003654   -2.6289727    5.3348232 
C    -0.3620500   -3.1529994    6.5569605 
C     1.0732923   -1.2687305    5.5283072 
C     0.3484760   -0.1586216    6.0058097 
C     0.9482775    1.1072588    6.0558098 
C     2.2687358    1.2844381    5.6107409 
C     2.9928039    0.1860073    5.1259524 
C     2.3990391   -1.0853004    5.0956740 
H    -6.6663941    0.6927516    1.9513053 
H    -6.8318447    2.6735537    0.4562697 
H    -5.6729367    4.8078777    1.0614451 
H    -4.3417137    4.9376477    3.1756221 
H    -4.1733509    2.9488272    4.6714980 
H    -4.5091354    0.6447894    5.0793039 
H    -6.5535915   -0.5689894    5.8263384 
H    -6.9099665    1.1845292    5.6872791 
H    -7.4747424    0.0568749    4.4218395 
H    -5.5879413   -1.1017320    2.8938327 
H    -3.3481180   -3.9413795    4.5215761 
H    -3.1085161   -5.9529452    3.0497527 
H    -3.2612615   -5.6897330    0.5611873 
H    -3.5788388   -3.4111144   -0.4217903 
H    -3.7556979   -0.2434762    1.5842860 
H    -2.7299279   -0.4825342   -2.4678949 
H    -7.2239427    0.7241259   -1.3862257 
H    -7.4340304   -0.2411743   -2.8643786 
H    -7.9987256   -1.5682647   -0.6849639 
H    -6.6960862   -2.3129305   -1.6567998 
H    -1.0358146    3.7048213   -3.9103253 
H    -2.4257417    5.3992922   -2.7320095 
H    -4.0751069    4.6504549   -0.9903118 
H    -4.3550373    2.2384434   -0.5070926 
H    -1.2099014    2.0189501   -5.3509483 
H     0.2077986   -0.5549092   -5.1564198 
H     0.2806672   -0.4628244   -7.6495538 
H    -0.3224368    1.2157655   -7.6339863 
H    -1.3627279   -0.1285822   -7.0516474 
H     2.3192479    0.1819491   -7.4603195 
H     4.6462446    0.9645645   -7.2002097 
H     5.3516582    2.1913635   -5.1323846 
H     3.6549763    2.6503757   -3.3375816 
H     1.3286795    1.9181798   -3.6151458 
H    -3.1059908    1.8107405    1.3378929 
H    -1.9834838    3.3036517    2.9329874 
H     0.4316046    2.9497115    3.5268213 
H     1.7369679    1.1634258    2.4202304 
H     2.2674861    0.0337674   -1.6615978 
H     0.4257352    1.7065329   -1.5190309 
H    -0.0473354    4.1248711   -1.2534670 
H     1.5354326    5.5683816    0.0752377 
H     3.5534880    4.5345760    1.1006735 
H     6.2824330    2.1566379    1.4502607 
H     5.1721950    2.7336840   -1.2167682 
H     7.2783191    1.4905823   -1.0709486 
H     7.5780861    3.0727554   -1.8483566 
H     8.0587339    2.8329323   -0.1495884 
H     6.6602851    4.7136284    1.6364801 
H     6.5919941    7.1996116    1.7273758 
H     5.7222861    8.5052416   -0.2217449 
H     4.9348578    7.3007201   -2.2697756 
H     5.0058934    4.8103313   -2.3582483 
H     2.0581057   -1.0803335    2.4700202 
H     6.2298906   -0.0742955    1.4787945 
H     6.7349867   -1.7749889    1.5859565 
H     6.8274121   -0.8823959   -0.8588743 
H     5.6949580   -2.2434871   -0.6717587 
H     3.7165106   -3.6719072    0.5369354 
H     3.4006877   -6.1112281    0.9111841 
H     1.4986665   -6.9255133    2.3280407 
H    -0.0980162   -5.2616699    3.3170595 
H    -1.3671870   -1.9042633    4.3654560 
H     1.1765715   -3.3572882    5.0464905 
H    -0.7659109   -4.1591745    6.3507722 
H     0.3093582   -3.2103531    7.4291186 
H    -1.2077077   -2.4911759    6.8108131 
H    -0.6973373   -0.2728701    6.3118879 
H     0.3761953    1.9627510    6.4322420 
H     2.7297594    2.2780025    5.6338022 
H     4.0097202    0.3143839    4.7453971 
H     2.9720375   -1.9293992    4.6979336 
