197
Energy =
C    -1.3973607   -3.3802332   -1.5577305 
C    -0.2591395   -3.4432108   -2.3911576 
C     1.0103468   -3.8875095   -1.9175174 
H    -0.3304978   -3.0401406   -3.4092606 
Pd    0.3555785   -2.1025569   -0.7899491 
P     2.4421792   -1.3339123   -0.1253933 
P    -0.3960947   -0.1356902    0.3160242 
H    -1.4154859   -4.0216820   -0.6648682 
H     1.0364000   -4.6116213   -1.0899869 
C    -5.2260234   -2.4135316   -3.2742180 
C    -5.1237483   -3.3724504   -2.2544666 
C    -3.8808127   -3.6458268   -1.6691287 
C    -2.7127469   -2.9702961   -2.0951540 
C    -2.8388600   -1.9901760   -3.1045831 
C    -4.0796813   -1.7191885   -3.6908588 
H    -6.1978878   -2.1898279   -3.7259199 
H    -6.0131763   -3.9141438   -1.9162430 
H    -3.8044415   -4.4170368   -0.8955270 
H    -1.9629340   -1.4065078   -3.4061278 
H    -4.1563265   -0.9313551   -4.4449643 
C     4.2997265   -4.0709215   -4.6939597 
C     4.1703450   -5.0306281   -3.6800983 
C     3.1190931   -4.9466823   -2.7567370 
C     2.1729192   -3.9023348   -2.8331287 
C     2.3224104   -2.9346816   -3.8569811 
C     3.3715328   -3.0214122   -4.7767632 
H     5.1297998   -4.1258221   -5.4043311 
H     4.8864697   -5.8569628   -3.6130072 
H     3.0031253   -5.7148800   -1.9863819 
H     1.6156400   -2.0986590   -3.9133276 
H     3.4851830   -2.2525503   -5.5475088 
C    -2.1528945    3.2835054    3.6592105 
C    -1.6884806    4.4342001    3.0075861 
C    -0.5876231    5.1405098    3.5157975 
C     0.0435743    4.6922678    4.6860258 
C    -0.4168897    3.5350437    5.3337012 
C    -1.5180894    2.8197388    4.8290433 
C    -2.0406108    1.5925281    5.5716955 
C    -3.3468990    1.8958380    6.3263961 
N    -2.2527661    0.4601232    4.6618513 
C    -1.3915524   -0.5754361    4.5483208 
O    -0.3387163   -0.6885316    5.2089580 
C    -1.8369820   -1.6482380    3.5905767 
C    -1.9854289   -2.9497611    4.1037903 
C    -2.4742010   -3.9813498    3.2957176 
C    -2.8289473   -3.7085766    1.9656304 
C    -2.6431868   -2.4254855    1.4407870 
C    -2.1215654   -1.3910701    2.2332884 
C    -1.7962773   -0.0526208    1.5957501 
C    -1.2428753    1.2009505   -0.7647367 
N    -2.6386780    0.8907450   -0.4972913 
N    -2.9202614    0.5022083    0.8353912 
C    -3.5835183    0.7307251   -1.5012373 
O    -3.3031774    1.0212134   -2.6608432 
C    -4.9162361    0.2285244   -0.9774991 
C    -5.2750819    0.8691743    0.3743151 
C    -4.1749540    0.6449115    1.3907671 
O    -4.3456764    0.4895687    2.6035345 
C    -0.8110256    2.6595874   -0.6253831 
C    -1.7100670    3.7452035   -0.5493864 
C    -1.2110238    5.0663055   -0.5444812 
C     0.1598725    5.3327327   -0.5943165 
C     1.0552146    4.2592609   -0.6894033 
C     0.5669275    2.9503758   -0.7195274 
C    -3.2188079    3.6631951   -0.4310721 
O    -3.7786215    3.5269923    0.6647557 
N    -3.8798677    3.9264790   -1.5932222 
C    -5.3110372    4.2594027   -1.6533683 
C    -5.4951812    5.6004845   -2.3893897 
C    -6.1683596    3.1620861   -2.2788253 
C    -7.3757560    2.7785740   -1.6659150 
C    -8.1914813    1.7933199   -2.2422172 
C    -7.8105018    1.1832363   -3.4474616 
C    -6.6127419    1.5671317   -4.0705478 
C    -5.7995798    2.5502866   -3.4908793 
C     1.0106793    0.6544141    1.1957058 
C     0.8535036    1.7298899    2.0895380 
C     1.9714633    2.2861698    2.7238983 
C     3.2528138    1.7778719    2.4737644 
C     3.4196866    0.7095902    1.5849142 
C     2.3036822    0.1499476    0.9370143 
C     3.7487594   -0.9766477   -1.4592679 
C     4.1796917    0.4709131   -1.6382570 
C     5.3860185    0.9278497   -1.0835266 
C     5.8181512    2.2481079   -1.2599951 
C     5.0493934    3.1428102   -2.0168048 
C     3.8555284    2.6994589   -2.5970425 
C     3.4092879    1.3750186   -2.4146854 
C     2.0844547    0.9444531   -2.9618943 
O     1.3262484    0.2222964   -2.2843739 
N     1.7279496    1.3960232   -4.1917696 
C     0.4331176    1.0889832   -4.8109943 
C     0.6763603    0.5149268   -6.2188154 
C    -0.5217303    2.2900099   -4.7930750 
C    -0.2089839    3.4746963   -4.1039413 
C    -1.0954922    4.5628377   -4.0985692 
C    -2.3116378    4.4835490   -4.7918001 
C    -2.6419999    3.2981190   -5.4690368 
C    -1.7606759    2.2107185   -5.4599606 
C     3.6342847   -2.4030549    0.9196911 
N     4.9158408   -2.3007745    0.2181426 
N     4.8365787   -1.8947275   -1.1373986 
C     6.1218982   -2.6372264    0.8185862 
O     6.1623628   -2.9911249    1.9904809 
C     7.3155976   -2.5997707   -0.1272182 
C     6.9144245   -3.0980961   -1.5258197 
C     5.8015182   -2.2244285   -2.0791481 
O     5.7437456   -1.7656656   -3.2131401 
C     3.1604861   -3.8178776    1.2052721 
C     3.7448433   -4.9297079    0.5837486 
C     3.3307997   -6.2321223    0.8981670 
C     2.3286258   -6.4378194    1.8561503 
C     1.7482920   -5.3348563    2.4980585 
C     2.1527332   -4.0262432    2.1784779 
C     1.3898859   -2.8666399    2.7660778 
O     0.7230007   -2.1480634    1.9857988 
N     1.3707101   -2.6732165    4.0950842 
C     2.4303759   -3.0578534    5.0487732 
C     1.7960419   -3.4253108    6.3966782 
C     3.4375764   -1.9085430    5.1247394 
C     4.7304421   -2.0776136    4.6014947 
C     5.6451377   -1.0122472    4.5956401 
C     5.2755532    0.2316167    5.1256044 
C     3.9809285    0.4101720    5.6423901 
C     3.0636300   -0.6484054    5.6367220 
H    -3.0164048    2.7552596    3.2403128 
H    -2.2023880    4.7632298    2.1017309 
H    -0.2262629    6.0380982    3.0025131 
H     0.8992362    5.2410819    5.0953455 
H     0.0842990    3.1815272    6.2424427 
H    -1.2664558    1.2596580    6.2819681 
H    -3.6786196    1.0105149    6.8951650 
H    -3.1935325    2.7338790    7.0260698 
H    -4.1458051    2.1815508    5.6195510 
H    -3.0895189    0.4517249    4.0524239 
H    -1.7314101   -3.1348292    5.1522453 
H    -2.6033593   -4.9875810    3.7076666 
H    -3.2470284   -4.5025762    1.3383916 
H    -2.9039530   -2.2131818    0.4001371 
H    -1.4805163    0.6731605    2.3609249 
H    -1.0525696    0.8927991   -1.8060306 
H    -5.6811993    0.4202914   -1.7410244 
H    -4.8256045   -0.8698395   -0.8657969 
H    -5.4213214    1.9573386    0.2728253 
H    -6.2004383    0.4444838    0.7920704 
H    -1.9269954    5.8939403   -0.4923353 
H     0.5216542    6.3658312   -0.5693889 
H     2.1351041    4.4311519   -0.7419802 
H     1.2742847    2.1269651   -0.8153178 
H    -3.3290718    3.9486698   -2.4544394 
H    -5.6138590    4.3790759   -0.5997900 
H    -6.5585228    5.8911951   -2.3873183 
H    -5.1730149    5.5136312   -3.4423946 
H    -4.9062137    6.3957925   -1.9009024 
H    -7.6753788    3.2486661   -0.7217904 
H    -9.1244848    1.5013574   -1.7486235 
H    -8.4450829    0.4130111   -3.8988190 
H    -6.3034664    1.0913486   -5.0075781 
H    -4.8519996    2.8118616   -3.9683620 
H    -0.1312384    2.1593014    2.2955379 
H     1.8246248    3.1157179    3.4200335 
H     4.1243549    2.1966771    2.9845084 
H     4.4203019    0.2989371    1.4223791 
H     3.2994322   -1.3407182   -2.3966084 
H     6.0054483    0.2302648   -0.5119080 
H     6.7600584    2.5760000   -0.8087662 
H     5.3771572    4.1775831   -2.1564533 
H     3.2426322    3.3999120   -3.1748413 
H     2.4121779    1.9178862   -4.7386195 
H    -0.0028972    0.3014642   -4.1698287 
H     1.3408090   -0.3638512   -6.1594634 
H    -0.2689371    0.1988997   -6.6870453 
H     1.1411494    1.2706066   -6.8767868 
H     0.7319177    3.5526683   -3.5532354 
H    -0.8248819    5.4730009   -3.5546904 
H    -2.9933341    5.3406167   -4.8143071 
H    -3.5886068    3.2223569   -6.0141583 
H    -2.0483409    1.2905301   -5.9787157 
H     3.7456144   -1.8839751    1.8875919 
H     7.6966185   -1.5616717   -0.1883200 
H     8.1067017   -3.2129094    0.3290818 
H     7.7499401   -3.0637633   -2.2398825 
H     6.5567657   -4.1446490   -1.4744343 
H     4.5420676   -4.7728641   -0.1478679 
H     3.8024606   -7.0868694    0.4021166 
H     2.0060943   -7.4525664    2.1103354 
H     0.9632464   -5.4776605    3.2484364 
H     0.7516416   -1.8993101    4.4255219 
H     2.9465073   -3.9389683    4.6326620 
H     1.1264605   -4.2946787    6.2781428 
H     2.5791193   -3.6746652    7.1310894 
H     1.2010226   -2.5839512    6.7908156 
H     5.0276789   -3.0378839    4.1693806 
H     6.6427739   -1.1687277    4.1728754 
H     5.9905966    1.0620987    5.1346220 
H     3.6804776    1.3835966    6.0458486 
H     2.0452022   -0.4828576    6.0043516 
