197
Energy =
C     1.5495760   -3.1851750   -2.2736458 
C     2.0449656   -4.0777824   -1.2907638 
C     1.1599848   -4.6695758   -0.3453865 
H     3.1270116   -4.2159311   -1.1764596 
Pd    1.0441532   -2.4526784   -0.1954963 
P    -0.2865387   -2.2407175    1.6885298 
P     0.6521808   -0.1903939   -0.4780400 
H     0.4722578   -3.2426007   -2.4928108 
H     0.1151276   -4.7937080   -0.6655108 
C     3.8116379   -1.5476835   -5.5465145 
C     2.4086936   -1.5486108   -5.5666965 
C     1.6944646   -2.0474516   -4.4715826 
C     2.3596343   -2.5651739   -3.3368768 
C     3.7748142   -2.5361358   -3.3228115 
C     4.4902466   -2.0344614   -4.4149939 
H     4.3763417   -1.1687261   -6.4046608 
H     1.8628844   -1.1611355   -6.4326176 
H     0.6001673   -2.0544037   -4.5014299 
H     4.3257125   -2.9260612   -2.4608855 
H     5.5848099   -2.0303851   -4.3890478 
C     2.3884428   -7.4747912    2.6753752 
C     1.0631077   -7.4488095    2.2151794 
C     0.6736403   -6.5143881    1.2468991 
C     1.5983970   -5.5795020    0.7304516 
C     2.9217403   -5.5941999    1.2274484 
C     3.3138295   -6.5418747    2.1769626 
H     2.7006018   -8.2150071    3.4196670 
H     0.3295945   -8.1695616    2.5922044 
H    -0.3574369   -6.5213897    0.8787311 
H     3.6464622   -4.8492092    0.8819893 
H     4.3450548   -6.5437856    2.5441355 
C    -4.9807320   -1.4842874   -3.9833322 
C    -5.3586837   -0.2364345   -4.4946056 
C    -4.3986098    0.5990873   -5.0881234 
C    -3.0644773    0.1812517   -5.1643283 
C    -2.6905752   -1.0684744   -4.6466049 
C    -3.6398116   -1.9150016   -4.0512531 
C    -3.2287558   -3.2686488   -3.4678784 
C    -3.7609141   -4.4598454   -4.2766261 
N    -3.6797090   -3.3664622   -2.0678649 
C    -2.9465101   -2.9210194   -1.0135780 
O    -1.7259098   -2.6790848   -1.1100659 
C    -3.7078391   -2.6789468    0.2567792 
C    -5.0025936   -2.1221707    0.1810475 
C    -5.7431291   -1.8472685    1.3352715 
C    -5.1958491   -2.1532323    2.5881728 
C    -3.9086319   -2.6967549    2.6734651 
C    -3.1354775   -2.9455919    1.5255297 
C    -1.7330926   -3.5086872    1.6582913 
C     0.0622276   -2.5620925    3.5422734 
N    -0.9684150   -3.5219653    3.9439528 
N    -1.5193612   -4.2732195    2.8823019 
C    -1.2921614   -3.7703825    5.2708480 
O    -0.8101924   -3.0990921    6.1749398 
C    -2.2054814   -4.9767413    5.4583984 
C    -1.8415993   -6.0911462    4.4613612 
C    -1.9661007   -5.5767478    3.0353872 
O    -2.4593264   -6.1852104    2.0920541 
C     1.4773870   -2.9692617    3.9188625 
C     2.4802129   -1.9722500    3.9767025 
C     3.7673697   -2.2956965    4.4394643 
C     4.0659167   -3.6013840    4.8525629 
C     3.0751364   -4.5890763    4.7883957 
C     1.7922823   -4.2736277    4.3187230 
C     2.2125397   -0.6175388    3.3894430 
O     1.7567091   -0.5655012    2.2240431 
N     2.5292425    0.4949950    4.0782143 
C     2.4932370    0.6423440    5.5476166 
C     3.5377036    1.6760027    5.9837992 
C     1.0499046    0.9722049    5.9357392 
C     0.2090408   -0.0594041    6.3919616 
C    -1.1473488    0.1852105    6.6550934 
C    -1.6761390    1.4713107    6.4713288 
C    -0.8452487    2.5047341    6.0081169 
C     0.5072977    2.2565794    5.7352045 
C    -0.9983597   -0.5418785    1.7316174 
C    -1.8575194   -0.1191255    2.7614486 
C    -2.2277332    1.2271494    2.8647845 
C    -1.7204513    2.1664531    1.9574706 
C    -0.8531909    1.7653504    0.9341890 
C    -0.5026352    0.4092622    0.8079987 
C    -0.0634209    0.3245842   -2.1658175 
C    -1.3054505    1.2049585   -2.0735672 
C    -2.4878845    0.5329522   -1.7078906 
C    -3.6870522    1.2145006   -1.4906541 
C    -3.7305209    2.6071249   -1.6385499 
C    -2.5737121    3.2879476   -2.0279172 
C    -1.3606551    2.6035164   -2.2563277 
C    -0.1546560    3.4414954   -2.5857556 
O     0.8173318    3.5060424   -1.8228584 
N    -0.2072266    4.1617293   -3.7475202 
C    -1.2434610    4.1102818   -4.7932879 
C    -0.5864688    4.1396534   -6.1847215 
C    -2.2910981    5.2120884   -4.6416776 
C    -3.6470319    4.9256373   -4.8831910 
C    -4.6235004    5.9243257   -4.7611351 
C    -4.2544576    7.2270458   -4.3932596 
C    -2.9040406    7.5238327   -4.1538689 
C    -1.9306043    6.5223449   -4.2798248 
C     2.0273183    1.0961533   -0.6168870 
N     2.2390287    1.1877260   -2.0657832 
N     1.1042195    0.8605456   -2.8730555 
C     3.3265356    1.8613483   -2.5841988 
O     4.1290601    2.4501170   -1.8564987 
C     3.5060940    1.7173437   -4.0777360 
C     2.1875046    1.8994134   -4.8281636 
C     1.0223390    1.1432334   -4.2203307 
O     0.0113861    0.8331637   -4.8555751 
C     3.2814318    0.6698694    0.1172628 
C     3.9086908   -0.5423875   -0.2176300 
C     4.9927244   -1.0169594    0.5256657 
C     5.4615464   -0.2786956    1.6236235 
C     4.8592072    0.9423647    1.9483178 
C     3.7791944    1.4316237    1.1916881 
C     3.2002094    2.7782946    1.5716219 
O     2.6477800    2.9566803    2.6774380 
N     3.4026779    3.7296377    0.6352758 
C     3.1548107    5.1842350    0.7392786 
C     3.5140836    5.7535033    2.1235925 
C     1.7519233    5.5841243    0.2889942 
C     1.5979672    6.4679380   -0.7930401 
C     0.3244828    6.8710027   -1.2179416 
C    -0.8171615    6.3827454   -0.5680629 
C    -0.6708605    5.5056677    0.5184174 
C     0.6027928    5.1106052    0.9505477 
H    -5.7445553   -2.1291692   -3.5307973 
H    -6.4044933    0.0832491   -4.4340539 
H    -4.6954920    1.5740151   -5.4889826 
H    -2.2944328    0.8194164   -5.6045453 
H    -1.6389505   -1.3678873   -4.6987275 
H    -2.1284957   -3.3120621   -3.4277376 
H    -3.4204168   -5.4129625   -3.8373540 
H    -4.8656500   -4.4576331   -4.3047098 
H    -3.4019116   -4.3961783   -5.3164759 
H    -4.6574962   -3.5999709   -1.9013400 
H    -5.4218077   -1.8747719   -0.8004718 
H    -6.7400355   -1.4026790    1.2562919 
H    -5.7673912   -1.9643837    3.5025426 
H    -3.4926643   -2.9329207    3.6565193 
H    -1.5191984   -4.1788866    0.8153995 
H    -0.1580780   -1.6080783    4.0508328 
H    -2.1030949   -5.2984360    6.5053253 
H    -3.2575691   -4.6649439    5.3103062 
H    -0.8022114   -6.4341532    4.6275401 
H    -2.4994492   -6.9677079    4.5539852 
H     4.5341492   -1.5143678    4.4607098 
H     5.0678205   -3.8450841    5.2205359 
H     3.2953481   -5.6133643    5.1033292 
H     1.0291652   -5.0549421    4.2695996 
H     2.4228873    1.3871518    3.5463194 
H     2.7432441   -0.3371064    5.9868013 
H     4.5512070    1.3132094    5.7407557 
H     3.4738506    1.8522728    7.0699439 
H     3.3889910    2.6357694    5.4607604 
H     0.6022114   -1.0719461    6.5329348 
H    -1.7765239   -0.6380347    7.0085746 
H    -2.7313898    1.6709022    6.6894453 
H    -1.2529600    3.5103782    5.8565446 
H     1.1373335    3.0652683    5.3495748 
H    -2.2196370   -0.8280949    3.5105532 
H    -2.8865288    1.5435196    3.6781624 
H    -1.9881170    3.2219894    2.0558112 
H    -0.4490235    2.5110722    0.2423127 
H    -0.3586725   -0.6156272   -2.6589468 
H    -2.4470725   -0.5485504   -1.5770227 
H    -4.5818454    0.6550871   -1.2027216 
H    -4.6575490    3.1620131   -1.4625789 
H    -2.5941735    4.3740799   -2.1524484 
H     0.5606890    4.8272038   -3.8558544 
H    -1.7448917    3.1361499   -4.6745450 
H     0.0454974    3.2482115   -6.3280510 
H    -1.3662469    4.1454257   -6.9635820 
H     0.0224941    5.0527236   -6.3150532 
H    -3.9405113    3.9041289   -5.1511275 
H    -5.6757763    5.6835997   -4.9467754 
H    -5.0157128    8.0076808   -4.2926695 
H    -2.6070530    8.5386749   -3.8680073 
H    -0.8813940    6.7637716   -4.0796724 
H     1.6256025    2.0540577   -0.2454431 
H     4.2664770    2.4444954   -4.3963513 
H     3.9056068    0.7014352   -4.2544557 
H     1.8863834    2.9626025   -4.8224378 
H     2.2647409    1.5899909   -5.8817522 
H     3.5311718   -1.1136863   -1.0720912 
H     5.4687994   -1.9657201    0.2554118 
H     6.3052894   -0.6468706    2.2165778 
H     5.2266420    1.5333189    2.7931643 
H     3.7702442    3.3831846   -0.2663298 
H     3.8595387    5.6189120    0.0096195 
H     4.5415126    5.4626073    2.4026209 
H     3.4577467    6.8538914    2.0796869 
H     2.8253013    5.3891084    2.8993524 
H     2.4887919    6.8447599   -1.3100357 
H     0.2238229    7.5726725   -2.0532223 
H    -1.8138043    6.6921012   -0.9010439 
H    -1.5635786    5.1359251    1.0339147 
H     0.7170168    4.4234642    1.7967229 
