197
Energy =
C     1.8093247   -1.9426762   -2.5279530 
C     1.5345871   -3.0096765   -1.6199872 
C     0.2161333   -3.1653173   -1.1261558 
H     2.3554354   -3.6150457   -1.2167292 
Pd    1.0439970   -1.1191513   -0.6311881 
P    -0.1738592   -0.4515281    1.2348237 
P     1.2365765    1.1549451   -1.0851301 
H     0.9676102   -1.6318971   -3.1645716 
H    -0.5859981   -2.6941623   -1.7162354 
C     5.6329344   -1.1842743   -4.3434700 
C     4.4508223   -0.7168742   -4.9357702 
C     3.2192823   -0.9384521   -4.3079183 
C     3.1418317   -1.6349366   -3.0810138 
C     4.3462457   -2.0516570   -2.4688828 
C     5.5748285   -1.8370117   -3.1001741 
H     6.5973349   -1.0300799   -4.8385630 
H     4.4812959   -0.1916522   -5.8966418 
H     2.2983218   -0.5877593   -4.7837313 
H     4.3218418   -2.5435424   -1.4906456 
H     6.4973781   -2.1743443   -2.6169088 
C    -1.2457452   -6.3691977    1.3337686 
C    -2.1326342   -5.5127150    0.6652075 
C    -1.6341810   -4.4551216   -0.1050218 
C    -0.2429102   -4.2235312   -0.2124288 
C     0.6373302   -5.0722706    0.5009555 
C     0.1406427   -6.1398285    1.2544819 
H    -1.6294552   -7.2098740    1.9211986 
H    -3.2136543   -5.6634842    0.7397375 
H    -2.3290720   -3.8106469   -0.6551161 
H     1.7194166   -4.9130452    0.4484235 
H     0.8358835   -6.7990894    1.7844939 
C    -5.7164531   -1.7231168    0.1269446 
C    -6.5517895   -1.9060621    1.2366376 
C    -7.7346150   -1.1610499    1.3591184 
C    -8.0756134   -0.2290004    0.3676900 
C    -7.2275771   -0.0356511   -0.7317129 
C    -6.0382681   -0.7755256   -0.8588526 
C    -5.1548094   -0.5580508   -2.0794527 
C    -5.4492013   -1.6159507   -3.1628609 
N    -3.7016728   -0.5918288   -1.8242091 
C    -2.9231254   -0.0518277   -0.8641074 
O    -1.6719610   -0.0538693   -1.0033643 
C    -3.4866417    0.4262483    0.4379090 
C    -4.4479970    1.4434283    0.5376117 
C    -4.9502169    1.8200995    1.7893340 
C    -4.5015888    1.1625964    2.9437726 
C    -3.5243977    0.1628171    2.8520166 
C    -2.9929284   -0.2002628    1.6062680 
C    -1.8839134   -1.2281904    1.4756686 
C     0.2987679   -0.8980496    3.0407062 
N    -0.4782682   -2.1214784    3.2871601 
N    -1.7520551   -2.1068944    2.6411512 
C    -0.1198333   -3.1345230    4.1667221 
O     0.9193473   -3.0884348    4.8220560 
C    -1.0887273   -4.2973227    4.2486588 
C    -2.5465335   -3.8433143    4.1649736 
C    -2.7682392   -3.0027411    2.9300822 
O    -3.7640933   -3.0531124    2.2119567 
C     1.7907139   -1.0663937    3.2131380 
C     2.5357715   -0.1923660    4.0350850 
C     3.9396173   -0.3149812    4.0815412 
C     4.5978885   -1.3008771    3.3415459 
C     3.8549153   -2.1702626    2.5263756 
C     2.4668179   -2.0463123    2.4628041 
C     1.9401194    0.9768646    4.7816366 
O     2.2806235    2.1411086    4.5039910 
N     1.0351927    0.7468089    5.7739293 
C     0.8220297   -0.5152898    6.4914601 
C     1.5835162   -0.4817603    7.8334203 
C    -0.6629987   -0.8241564    6.6720206 
C    -1.0376441   -2.0434363    7.2757362 
C    -2.3853997   -2.3512006    7.4994505 
C    -3.3918498   -1.4492397    7.1144642 
C    -3.0328307   -0.2447110    6.4963959 
C    -1.6797928    0.0620937    6.2732217 
C    -0.3233125    1.3821566    1.2365428 
C    -0.8999332    2.0880643    2.3055871 
C    -0.9429062    3.4883034    2.2994949 
C    -0.3931191    4.1981779    1.2265454 
C     0.1978691    3.5049669    0.1616702 
C     0.2335029    2.0993680    0.1469607 
C     0.6375789    1.4004126   -2.9069053 
C    -0.7695627    1.8590118   -3.2157871 
C    -1.1860421    3.1630014   -2.8905322 
C    -2.4859068    3.5992455   -3.1680117 
C    -3.3937387    2.7304883   -3.7925401 
C    -2.9852695    1.4387319   -4.1426857 
C    -1.6777626    0.9942901   -3.8672510 
C    -1.3584082   -0.4209861   -4.3005561 
O    -1.9766060   -1.3977928   -3.8342391 
N    -0.4517513   -0.5612649   -5.2937528 
C    -0.2941370   -1.8433007   -6.0067257 
C     0.7198999   -1.6667156   -7.1476238 
C    -1.6434266   -2.3396985   -6.5266636 
C    -2.5069999   -1.4669538   -7.2142896 
C    -3.7389545   -1.9225986   -7.7031466 
C    -4.1195224   -3.2605850   -7.5146975 
C    -3.2609050   -4.1368691   -6.8346587 
C    -2.0317820   -3.6760787   -6.3414995 
C     2.6921184    2.3768794   -1.3350063 
N     2.3779484    3.0547856   -2.5897092 
N     1.6670491    2.2640186   -3.5125739 
C     2.7963250    4.3445317   -2.8974973 
O     3.3928619    5.0278822   -2.0772018 
C     2.5090677    4.7355490   -4.3407433 
C     2.7653461    3.5327274   -5.2652573 
C     1.8510603    2.3849299   -4.8686033 
O     1.2489679    1.6681689   -5.6748013 
C     4.0993871    1.8198248   -1.2358751 
C     4.9383998    1.6863659   -2.3482936 
C     6.2733390    1.2873046   -2.1889712 
C     6.7795396    1.0077318   -0.9130269 
C     5.9462692    1.1348608    0.2073510 
C     4.6116540    1.5445067    0.0536347 
C     3.6765302    1.6028158    1.2272245 
O     2.6233341    0.9253537    1.1843033 
N     3.9923559    2.3454449    2.3031467 
C     4.8503110    3.5458211    2.3407858 
C     5.6960808    3.5403534    3.6209061 
C     3.9425374    4.7680971    2.1855466 
C     3.0683727    5.1679758    3.2169847 
C     2.1877450    6.2401215    3.0217490 
C     2.1585176    6.9195951    1.7924034 
C     3.0117003    6.5150735    0.7560954 
C     3.9007109    5.4478133    0.9562787 
H    -4.7853181   -2.2938585    0.0648864 
H    -6.2551631   -2.6240788    2.0064385 
H    -8.3877430   -1.3031340    2.2269930 
H    -8.9970806    0.3568411    0.4550949 
H    -7.4854397    0.7095909   -1.4945805 
H    -5.4002946    0.4389230   -2.4994018 
H    -5.2444256   -2.6264750   -2.7698283 
H    -6.5108817   -1.5647190   -3.4520644 
H    -4.8240675   -1.4606037   -4.0599783 
H    -3.1188635   -0.9422219   -2.6189571 
H    -4.8121701    1.9317196   -0.3711285 
H    -5.7084988    2.6060051    1.8598652 
H    -4.9156613    1.4284007    3.9221720 
H    -3.1699637   -0.3435956    3.7547690 
H    -2.0504664   -1.8552763    0.5859354 
H    -0.0834944   -0.0882558    3.6869866 
H    -0.8556463   -4.9817205    3.4131966 
H    -0.8678782   -4.8242637    5.1881706 
H    -3.2468853   -4.6902146    4.1217854 
H    -2.8079518   -3.2273368    5.0461372 
H     4.5114471    0.3815992    4.7024482 
H     5.6877375   -1.3897307    3.3969907 
H     4.3620188   -2.9433349    1.9394357 
H     1.8814919   -2.7217790    1.8287999 
H     0.7549513    1.6067015    6.2541901 
H     1.2510745   -1.3157814    5.8626265 
H     2.6582137   -0.3135507    7.6493730 
H     1.4709537   -1.4354148    8.3735949 
H     1.2010052    0.3262363    8.4823604 
H    -0.2639922   -2.7625575    7.5640571 
H    -2.6527643   -3.3008429    7.9752066 
H    -4.4454356   -1.6859313    7.2947700 
H    -3.8068127    0.4682649    6.1927250 
H    -1.4196759    1.0069807    5.7844323 
H    -1.3222829    1.5487235    3.1566649 
H    -1.3910474    4.0209953    3.1439143 
H    -0.3884044    5.2917880    1.2263614 
H     0.6697121    4.0833310   -0.6389862 
H     0.7840396    0.3996005   -3.3317558 
H    -0.4780534    3.8467349   -2.4155885 
H    -2.7882135    4.6167354   -2.9000515 
H    -4.4115201    3.0632349   -4.0209927 
H    -3.6763425    0.7609037   -4.6543613 
H     0.0675140    0.2765668   -5.6044578 
H     0.0885927   -2.5928203   -5.2884137 
H     0.3612304   -0.9155810   -7.8721611 
H     1.7049158   -1.3474001   -6.7681537 
H     0.8438951   -2.6237254   -7.6785870 
H    -2.2186579   -0.4181206   -7.3541099 
H    -4.4030861   -1.2328187   -8.2354637 
H    -5.0817620   -3.6181398   -7.8962071 
H    -3.5529780   -5.1810573   -6.6794673 
H    -1.3725975   -4.3583800   -5.7920793 
H     2.5781847    3.1260017   -0.5348513 
H     1.4540578    5.0600482   -4.4263546 
H     3.1482393    5.5974258   -4.5811814 
H     2.5635522    3.7607170   -6.3221744 
H     3.8201669    3.2053082   -5.1894283 
H     4.5525248    1.9049249   -3.3474859 
H     6.9171481    1.1951766   -3.0684599 
H     7.8216089    0.6958027   -0.7890652 
H     6.3242201    0.9164357    1.2118073 
H     3.2945918    2.2847758    3.0769160 
H     5.5170435    3.5040345    1.4644117 
H     6.3647873    2.6622639    3.6303367 
H     6.3080152    4.4553101    3.6810257 
H     5.0550873    3.4919750    4.5178874 
H     3.0504431    4.6239282    4.1667864 
H     1.5171402    6.5447242    3.8329414 
H     1.4710648    7.7601983    1.6449670 
H     2.9929621    7.0177180   -0.2157873 
H     4.5497238    5.1332439    0.1330700 
