197
Energy =
C    -0.9981008   -3.5435640   -2.2849047 
C     0.3378824   -3.7360874   -2.7257196 
C     1.2970796   -4.3599332   -1.8834084 
H     0.6662666   -3.2750422   -3.6649047 
Pd    0.4584830   -2.5011184   -0.9430056 
P     2.2594935   -1.7100435    0.2889972 
P    -0.6421678   -0.5880090   -0.1634357 
H    -1.3843789   -4.2638500   -1.5493580 
H     0.9278072   -5.0479359   -1.1077227 
C    -3.9753677   -1.5981531   -4.7121173 
C    -4.3336824   -2.6435229   -3.8478039 
C    -3.3642741   -3.2542555   -3.0399485 
C    -2.0145111   -2.8414833   -3.0951077 
C    -1.6692884   -1.7841757   -3.9698672 
C    -2.6384994   -1.1696833   -4.7684013 
H    -4.7317889   -1.1171846   -5.3406800 
H    -5.3705785   -2.9943125   -3.8091881 
H    -3.6502159   -4.0804511   -2.3794326 
H    -0.6295587   -1.4373374   -4.0030496 
H    -2.3613601   -0.3407813   -5.4258831 
C     5.3522030   -5.0710990   -3.1316041 
C     4.6304712   -4.0024181   -3.6865513 
C     3.3217806   -3.7435898   -3.2710897 
C     2.7011230   -4.5555726   -2.2902619 
C     3.4421152   -5.6212081   -1.7335296 
C     4.7544317   -5.8772245   -2.1521933 
H     6.3823655   -5.2588506   -3.4484919 
H     5.1028771   -3.3503675   -4.4272849 
H     2.7798006   -2.8903152   -3.6917685 
H     2.9699631   -6.2637721   -0.9835119 
H     5.3095129   -6.7157994   -1.7175753 
C    -4.2019418    3.8435847    3.3767844 
C    -4.8962998    4.8433369    2.6830575 
C    -6.0357269    4.5160852    1.9296257 
C    -6.4748992    3.1826111    1.8882098 
C    -5.7869756    2.1888071    2.5996556 
C    -4.6361590    2.5064345    3.3448808 
C    -3.8883519    1.4567630    4.1554252 
C    -4.5854291    1.1798085    5.5053150 
N    -3.7282004    0.2105386    3.3915778 
C    -2.7895149   -0.7134738    3.6882709 
O    -1.9708757   -0.5983999    4.6247589 
C    -2.8194977   -1.9388182    2.8112949 
C    -3.0044031   -3.1891350    3.4282327 
C    -3.0972344   -4.3562193    2.6609782 
C    -3.0184805   -4.2750790    1.2616674 
C    -2.8063254   -3.0363935    0.6495632 
C    -2.6753521   -1.8657085    1.4109876 
C    -2.3173712   -0.5614622    0.7274568 
C    -1.2733490    0.6392965   -1.4786067 
N    -2.7293462    0.4653904   -1.4608507 
N    -3.2715696   -0.2292997   -0.3373123 
C    -3.5080099    1.0799224   -2.4203678 
O    -2.9759525    1.6937037   -3.3471242 
C    -5.0095105    1.0081049   -2.2207186 
C    -5.4649534   -0.1909621   -1.3913814 
C    -4.6310778   -0.3376089   -0.1394945 
O    -5.1027046   -0.6117296    0.9685203 
C    -0.7289121    2.0561375   -1.3276848 
C    -1.4122408    3.1658718   -0.7852961 
C    -0.7382592    4.3985654   -0.6511610 
C     0.5935334    4.5461198   -1.0500267 
C     1.2662041    3.4507955   -1.6051792 
C     0.6044060    2.2280211   -1.7421381 
C    -2.7852198    3.0688310   -0.1779981 
O    -2.9902673    2.3243651    0.7944992 
N    -3.7650311    3.8720606   -0.6830737 
C    -3.6945938    4.7208327   -1.8863408 
C    -5.0617966    4.7322040   -2.5944078 
C    -3.2331732    6.1481593   -1.5969241 
C    -2.4414563    6.8252345   -2.5422263 
C    -2.0271883    8.1447155   -2.3140714 
C    -2.4010456    8.8048932   -1.1334568 
C    -3.1927311    8.1376993   -0.1866038 
C    -3.6068754    6.8179239   -0.4187409 
C     0.4960511    0.3670267    0.9179607 
C     0.0694720    1.4975562    1.6394096 
C     0.9606125    2.1598023    2.4925612 
C     2.2734233    1.6931682    2.6457093 
C     2.6999893    0.5616689    1.9405901 
C     1.8225005   -0.1033189    1.0642212 
C     3.9189316   -1.5545392   -0.6393053 
C     4.4739339   -0.1613815   -0.8595537 
C     5.3964104    0.3880990    0.0467871 
C     5.9340022    1.6666165   -0.1425890 
C     5.5620363    2.4222804   -1.2627098 
C     4.6719202    1.8751045   -2.1930525 
C     4.1245550    0.5879951   -2.0084972 
C     3.1282386    0.0654495   -3.0004991 
O     2.1019499   -0.5461304   -2.6437097 
N     3.3840157    0.3440950   -4.3083093 
C     2.3259417    0.3512856   -5.3374364 
C     2.9281218    0.0342386   -6.7119181 
C     1.5790806    1.6859077   -5.2850090 
C     2.2738724    2.9021148   -5.4468435 
C     1.6032609    4.1278637   -5.3438482 
C     0.2242768    4.1551346   -5.0798367 
C    -0.4787797    2.9543769   -4.9212482 
C     0.1999945    1.7300144   -5.0223666 
C     3.0605121   -2.6352106    1.7613078 
N     4.4942244   -2.6051356    1.4710391 
N     4.8177339   -2.4356152    0.1039988 
C     5.4561422   -2.8498450    2.4419500 
O     5.1360773   -3.0316403    3.6102121 
C     6.8771921   -2.9356592    1.9002134 
C     6.8926289   -3.6342596    0.5305373 
C     6.0195193   -2.8618802   -0.4442712 
O     6.3215425   -2.5596513   -1.5920199 
C     2.4997611   -4.0166495    2.0458059 
C     3.1816622   -5.1832004    1.6745191 
C     2.6710942   -6.4473357    2.0049842 
C     1.4733571   -6.5557469    2.7255442 
C     0.7867112   -5.3949587    3.1091258 
C     1.2879662   -4.1267855    2.7674883 
C     0.4493731   -2.9018879    3.0079695 
O     0.0925400   -2.2423170    2.0040598 
N     0.0457850   -2.5826313    4.2490140 
C     0.7706082   -2.8651791    5.5040589 
C    -0.2357248   -3.1282127    6.6316200 
C     1.7140101   -1.6885842    5.7630666 
C     3.1020637   -1.8672778    5.6420720 
C     3.9781159   -0.7789711    5.7802337 
C     3.4710762    0.4993046    6.0519703 
C     2.0832500    0.6859757    6.1704023 
C     1.2077600   -0.3974731    6.0213060 
H    -3.3047918    4.1042617    3.9499084 
H    -4.5475625    5.8805001    2.7327993 
H    -6.5861558    5.2971540    1.3927434 
H    -7.3682855    2.9160738    1.3124528 
H    -6.1509721    1.1570571    2.5514184 
H    -2.8683580    1.8246617    4.3659392 
H    -3.9998910    0.4442194    6.0812711 
H    -4.6633666    2.1115743    6.0903454 
H    -5.6028001    0.7862243    5.3384814 
H    -4.3476769   -0.0011272    2.5920262 
H    -3.0877408   -3.2325551    4.5186691 
H    -3.2532058   -5.3229479    3.1509844 
H    -3.1181756   -5.1789844    0.6508001 
H    -2.7448806   -2.9545274   -0.4371393 
H    -2.2653304    0.2749596    1.4404864 
H    -0.9067884    0.2504157   -2.4419032 
H    -5.2890846    1.9466822   -1.7090210 
H    -5.4723506    1.0258544   -3.2190417 
H    -6.5182815   -0.1085753   -1.0879793 
H    -5.3408526   -1.1233606   -1.9728913 
H    -1.2691222    5.2455616   -0.2080018 
H     1.0952496    5.5113600   -0.9286710 
H     2.3050689    3.5423915   -1.9339588 
H     1.1274167    1.3709424   -2.1679615 
H    -4.6191057    3.8882701   -0.1152416 
H    -2.9606117    4.2436614   -2.5573055 
H    -5.0230078    5.4095684   -3.4625199 
H    -5.8503796    5.1027375   -1.9148089 
H    -5.3295838    3.7256235   -2.9522411 
H    -2.1358909    6.3068042   -3.4589520 
H    -1.4057886    8.6572399   -3.0563331 
H    -2.0754463    9.8344441   -0.9515937 
H    -3.4885226    8.6465830    0.7372914 
H    -4.2092300    6.2961836    0.3317242 
H    -0.9595084    1.8612752    1.5398034 
H     0.6179837    3.0354192    3.0530327 
H     2.9617518    2.1898856    3.3356199 
H     3.7110934    0.1805062    2.1048203 
H     3.7361980   -2.0375639   -1.6106767 
H     5.7098978   -0.2040048    0.9121563 
H     6.6447453    2.0710646    0.5852138 
H     5.9654956    3.4283369   -1.4137353 
H     4.3696978    2.4661118   -3.0649027 
H     4.2551400    0.8260874   -4.5269522 
H     1.6262033   -0.4495666   -5.0490990 
H     3.4327545   -0.9471507   -6.6981435 
H     2.1329439    0.0163482   -7.4745066 
H     3.6624566    0.8028098   -7.0136238 
H     3.3507590    2.8976816   -5.6578768 
H     2.1577096    5.0639039   -5.4710887 
H    -0.2966940    5.1143013   -4.9907231 
H    -1.5463091    2.9495701   -4.6886709 
H    -0.3540031    0.7982402   -4.8720847 
H     2.8908350   -2.0032479    2.6496304 
H     7.2919911   -1.9128246    1.8092393 
H     7.4770442   -3.4677997    2.6531734 
H     7.9024113   -3.6897141    0.0989016 
H     6.5060037   -4.6678465    0.6209379 
H     4.1274179   -5.1011868    1.1315480 
H     3.2185104   -7.3484021    1.7089510 
H     1.0766710   -7.5406021    2.9923247 
H    -0.1561674   -5.4611702    3.6620136 
H    -0.6203239   -1.7819432    4.3109884 
H     1.3828497   -3.7669862    5.3376792 
H    -0.8418509   -4.0213065    6.4005375 
H     0.2932822   -3.2926975    7.5844527 
H    -0.9194784   -2.2709591    6.7534820 
H     3.5105815   -2.8547460    5.4088199 
H     5.0549121   -0.9436049    5.6698320 
H     4.1521402    1.3496755    6.1702750 
H     1.6794636    1.6840194    6.3738745 
H     0.1263781   -0.2298333    6.0755135 
