197
Energy =
C     1.5667086   -2.1502951   -2.4231718 
C     0.8668237   -3.1811788   -1.7101024 
C    -0.5382473   -3.1924089   -1.6420614 
H     1.4502262   -3.9328319   -1.1658142 
Pd    0.4987567   -1.2941672   -0.6859857 
P    -0.9436119   -0.7230977    1.0657718 
P     0.4456635    1.0061767   -1.1598425 
H     1.0391105   -1.6719607   -3.2594160 
H    -1.0939071   -2.5490347   -2.3373005 
C     5.7517959   -2.8054242   -3.1020199 
C     5.1880541   -3.1457346   -1.8610629 
C     3.8474093   -2.8558399   -1.5911334 
C     3.0334042   -2.2380931   -2.5714775 
C     3.6287219   -1.8450948   -3.7905913 
C     4.9719021   -2.1365130   -4.0565118 
H     6.7991646   -3.0443114   -3.3150097 
H     5.8014208   -3.6340475   -1.0961407 
H     3.4254790   -3.0915490   -0.6087223 
H     3.0231195   -1.3394638   -4.5500049 
H     5.4052556   -1.8431162   -5.0179027 
C    -2.9658334   -6.2221752    0.1976735 
C    -3.5486307   -5.1863470   -0.5451157 
C    -2.7444022   -4.1985536   -1.1232486 
C    -1.3369132   -4.2257901   -0.9748825 
C    -0.7635329   -5.2935512   -0.2419285 
C    -1.5691425   -6.2747936    0.3417398 
H    -3.5966023   -6.9872090    0.6609294 
H    -4.6353257   -5.1414023   -0.6609142 
H    -3.1986381   -3.3908164   -1.7048674 
H     0.3234775   -5.3641402   -0.1431377 
H    -1.1062457   -7.0919689    0.9052356 
C    -6.0830689   -2.4225087   -0.3530805 
C    -6.9525453   -2.7354760    0.7000409 
C    -8.2566466   -2.2183304    0.7120275 
C    -8.6815931   -1.3825935   -0.3315938 
C    -7.8029988   -1.0617866   -1.3760116 
C    -6.4943795   -1.5767022   -1.3972190 
C    -5.5896127   -1.2449375   -2.5785344 
C    -5.6980067   -2.3326315   -3.6658213 
N    -4.1602964   -1.1007790   -2.2507271 
C    -3.5236833   -0.4630850   -1.2411557 
O    -2.2748700   -0.3686424   -1.2591575 
C    -4.2503389    0.0521274   -0.0412241 
C    -5.2785905    1.0025450   -0.1329086 
C    -5.9174141    1.4673719    1.0228773 
C    -5.5400494    0.9600267    2.2735149 
C    -4.5065677    0.0182863    2.3683019 
C    -3.8349076   -0.4322555    1.2216016 
C    -2.7050958   -1.4465427    1.3130376 
C    -0.4450182   -1.1165417    2.8607847 
N    -1.7215444   -1.5090169    3.4981728 
N    -2.6198670   -2.1246461    2.6005961 
C    -1.8412567   -1.6567069    4.8703631 
O    -0.9860678   -1.2105113    5.6304546 
C    -3.0492450   -2.4835430    5.2896972 
C    -3.1728138   -3.7052786    4.3602752 
C    -3.3695770   -3.2457269    2.9224061 
O    -4.1491876   -3.7383878    2.1151532 
C     0.6007113   -2.2022995    3.0347196 
C     1.6381779   -2.0714632    3.9911400 
C     2.5439745   -3.1315566    4.1873831 
C     2.4255083   -4.3206898    3.4581929 
C     1.3796847   -4.4638094    2.5363381 
C     0.4779740   -3.4117221    2.3299092 
C     1.7858905   -0.8151553    4.7973134 
O     1.7070077    0.3207102    4.2891874 
N     2.0259718   -0.9664037    6.1225262 
C     2.0094699    0.2045750    7.0155827 
C     1.8627188   -0.2772119    8.4665372 
C     3.2450276    1.0780488    6.8186873 
C     4.5255207    0.5082229    6.6982285 
C     5.6595861    1.3230098    6.5736403 
C     5.5263398    2.7202842    6.5678252 
C     4.2525124    3.2963014    6.6811609 
C     3.1207562    2.4781973    6.8063934 
C    -1.1284973    1.1083368    1.1381327 
C    -1.7373576    1.7444094    2.2366599 
C    -1.8228810    3.1397342    2.2912183 
C    -1.2749320    3.9155013    1.2608263 
C    -0.6407299    3.2946094    0.1793645 
C    -0.5764345    1.8889881    0.0956067 
C     0.0298020    1.6085518   -2.9299643 
C    -1.4458405    1.7108833   -3.2843922 
C    -2.1989660    2.7909180   -2.7871901 
C    -3.5452252    2.9640902   -3.1161917 
C    -4.1771844    2.0505590   -3.9715016 
C    -3.4554414    0.9517923   -4.4444172 
C    -2.0995801    0.7627257   -4.1079038 
C    -1.5136880   -0.5564335   -4.5435411 
O    -2.0503010   -1.6158579   -4.1644855 
N    -0.4182522   -0.5782383   -5.3514284 
C     0.0268152    0.5145869   -6.2507895 
C    -0.7786240    0.5027727   -7.5629202 
C     1.5300714    0.4028848   -6.4775519 
C     2.0908770   -0.7285046   -7.1044243 
C     3.4736207   -0.8191931   -7.3169033 
C     4.3186185    0.2250292   -6.9093561 
C     3.7709314    1.3578753   -6.2915693 
C     2.3869486    1.4448480   -6.0792333 
C     1.9627920    2.1238027   -1.1240005 
N     1.6899902    3.2077368   -2.0691695 
N     0.7262179    2.9045642   -3.0849940 
C     2.5877581    4.2667320   -2.1598330 
O     3.4606336    4.4063961   -1.3092532 
C     2.4230541    5.1638953   -3.3694858 
C     0.9714536    5.2151008   -3.8486884 
C     0.4158734    3.8217647   -4.0755599 
O    -0.2772008    3.5102312   -5.0428929 
C     3.2723909    1.3928888   -1.3637086 
C     3.9967251    1.5370692   -2.5555478 
C     5.2590705    0.9513466   -2.7006568 
C     5.8063419    0.2013820   -1.6524425 
C     5.0620015   -0.0055189   -0.4848387 
C     3.7984277    0.5860310   -0.3286226 
C     2.9737683    0.2280626    0.8866858 
O     2.4707538   -0.9171425    0.9645098 
N     2.7636794    1.1602785    1.8399085 
C     3.4877792    2.4380918    2.0020798 
C     4.6441131    2.2535251    3.0040066 
C     2.5382115    3.5560726    2.4358094 
C     2.5188109    4.7740665    1.7299770 
C     1.7104588    5.8378320    2.1617909 
C     0.9115005    5.6989521    3.3054602 
C     0.9224246    4.4848159    4.0099146 
C     1.7292709    3.4216258    3.5825842 
H    -5.0632743   -2.8142872   -0.3279261 
H    -6.5896460   -3.3754110    1.5098984 
H    -8.9386775   -2.4607528    1.5340132 
H    -9.6966325   -0.9710121   -0.3289027 
H    -8.1355499   -0.3945891   -2.1808298 
H    -5.9413095   -0.2882464   -3.0163895 
H    -5.0565670   -2.0938748   -4.5326805 
H    -5.3861673   -3.3098586   -3.2588324 
H    -6.7417456   -2.4166117   -4.0073737 
H    -3.4898344   -1.3644601   -3.0000429 
H    -5.5804144    1.3724998   -1.1173011 
H    -6.7211418    2.2061873    0.9456406 
H    -6.0524221    1.2957476    3.1808313 
H    -4.2201405   -0.3752983    3.3477803 
H    -2.8205785   -2.2279854    0.5432621 
H    -0.1057550   -0.1848196    3.3307628 
H    -2.9044339   -2.7666206    6.3425817 
H    -3.9658581   -1.8655379    5.2303836 
H    -2.2534725   -4.3198730    4.4141093 
H    -4.0253239   -4.3490246    4.6216941 
H     3.3606044   -3.0101895    4.9072537 
H     3.1439959   -5.1322584    3.6120073 
H     1.2656604   -5.3977154    1.9772076 
H    -0.3355781   -3.5351358    1.6062128 
H     1.8452520   -1.8827935    6.5295229 
H     1.1204664    0.8021129    6.7412588 
H     0.9335587   -0.8625327    8.5870301 
H     1.8191875    0.5903983    9.1436715 
H     2.7267115   -0.8970757    8.7655980 
H     4.6314264   -0.5828320    6.6928467 
H     6.6507073    0.8662685    6.4792206 
H     6.4113734    3.3570459    6.4659084 
H     4.1363155    4.3849646    6.6600594 
H     2.1263402    2.9328892    6.8826218 
H    -2.1347118    1.1475992    3.0622590 
H    -2.2943211    3.6224059    3.1525558 
H    -1.3035084    5.0071474    1.3179375 
H    -0.1584789    3.9126055   -0.5840964 
H     0.5300507    0.8464236   -3.5527731 
H    -1.7114015    3.5273465   -2.1452633 
H    -4.0945083    3.8223856   -2.7163558 
H    -5.2233926    2.1887456   -4.2627610 
H    -3.9425436    0.2118640   -5.0878110 
H    -0.1437958   -1.5282845   -5.6175935 
H    -0.1830778    1.4648422   -5.7334743 
H    -1.8530971    0.6341885   -7.3471770 
H    -0.4485659    1.3317621   -8.2105543 
H    -0.6431199   -0.4440815   -8.1147914 
H     1.4467434   -1.5496197   -7.4422546 
H     3.8920150   -1.7060842   -7.8038774 
H     5.3981534    0.1579797   -7.0802202 
H     4.4230490    2.1813931   -5.9802391 
H     1.9552936    2.3377721   -5.6184342 
H     1.9758608    2.5669255   -0.1162045 
H     2.8180142    6.1568121   -3.1067429 
H     3.0781710    4.7553330   -4.1645247 
H     0.3366271    5.7071627   -3.0853937 
H     0.8584500    5.7716936   -4.7899292 
H     3.5756634    2.1233946   -3.3769530 
H     5.8119314    1.0782103   -3.6364278 
H     6.7954605   -0.2533748   -1.7570876 
H     5.4565641   -0.6372655    0.3170880 
H     2.2586024    0.8067523    2.6782242 
H     3.9075678    2.7025059    1.0159641 
H     5.3515514    1.4926887    2.6300495 
H     5.1847878    3.2038952    3.1448730 
H     4.2585576    1.9270630    3.9842698 
H     3.1404488    4.8893685    0.8368775 
H     1.7148606    6.7813774    1.6044448 
H     0.2867032    6.5312708    3.6481511 
H     0.3020137    4.3644153    4.9054533 
H     1.7332047    2.4875583    4.1509963 
