197
Energy =
C     0.9794090   -2.7876469   -2.2260661 
C     1.4350290   -3.7089623   -1.2487512 
C     0.5186694   -4.3261134   -0.3600878 
H     2.5118087   -3.8610498   -1.1090764 
Pd    0.4245806   -2.0679659   -0.1516535 
P    -0.8371690   -1.8687218    1.7774132 
P    -0.0366702    0.1814443   -0.4374929 
H    -0.0873097   -2.8389501   -2.4946946 
H    -0.5298219   -4.3444711   -0.6884365 
C     3.4010840   -1.1344091   -5.3728570 
C     1.9997996   -1.1048498   -5.4437135 
C     1.2312727   -1.6016900   -4.3852041 
C     1.8438068   -2.1671161   -3.2447064 
C     3.2579926   -2.1837774   -3.1833007 
C     4.0256254   -1.6673381   -4.2321779 
H     4.0056180   -0.7464375   -6.1993542 
H     1.4944873   -0.6856144   -6.3199344 
H     0.1404007   -1.5771931   -4.4564246 
H     3.7662328   -2.6119363   -2.3132003 
H     5.1183518   -1.6907234   -4.1663439 
C     1.4441935   -7.4858847    2.4076429 
C     0.1134272   -7.1607761    2.1049487 
C    -0.1664882   -6.1126124    1.2206207 
C     0.8724888   -5.3467164    0.6425099 
C     2.2067636   -5.6652676    0.9842838 
C     2.4870701   -6.7337675    1.8406748 
H     1.6705872   -8.3203872    3.0797475 
H    -0.7150525   -7.7325835    2.5359393 
H    -1.2112203   -5.9036427    0.9670642 
H     3.0356473   -5.0778435    0.5771471 
H     3.5280362   -6.9752028    2.0792958 
C    -3.5704471   -2.2020400   -3.9879599 
C    -3.1747221   -1.2226767   -4.9098366 
C    -2.2169571   -1.5224104   -5.8887505 
C    -1.6481520   -2.8043504   -5.9292023 
C    -2.0169756   -3.7694664   -4.9814029 
C    -2.9860045   -3.4797415   -4.0028514 
C    -3.3884676   -4.5804255   -3.0201584 
C    -4.3168246   -5.6180848   -3.6732927 
N    -4.0499251   -4.0551642   -1.8168495 
C    -3.4231631   -3.2438247   -0.9255365 
O    -2.2427108   -2.8816380   -1.0896259 
C    -4.2396022   -2.7814412    0.2443792 
C    -5.5819335   -2.3960208    0.0481499 
C    -6.3673083   -1.9425834    1.1135336 
C    -5.8154840   -1.9017671    2.4011014 
C    -4.4886660   -2.2975036    2.6050214 
C    -3.6718072   -2.7230190    1.5424526 
C    -2.2488135   -3.1815757    1.8103975 
C    -0.3874327   -2.1905789    3.5968266 
N    -1.4811944   -3.0125242    4.0982141 
N    -2.0833932   -3.8247878    3.1159533 
C    -1.9258687   -2.9915581    5.4141443 
O    -1.4904473   -2.1763727    6.2168389 
C    -2.9093438   -4.1165377    5.7266790 
C    -2.5806751   -5.3791369    4.9067598 
C    -2.6296661   -5.0607413    3.4177940 
O    -3.1532241   -5.7484657    2.5474828 
C     0.9989548   -2.7893749    3.7568633 
C     2.1313897   -1.9506421    3.6130270 
C     3.4202978   -2.4932718    3.7369233 
C     3.5947532   -3.8430272    4.0643991 
C     2.4736352   -4.6568455    4.2670056 
C     1.1846584   -4.1375255    4.0881263 
C     1.9068900   -0.4952605    3.3320455 
O     1.1215459   -0.1680212    2.4048719 
N     2.4849875    0.4513343    4.0969237 
C     3.4309962    0.3354329    5.2226517 
C     3.5720905    1.7348100    5.8542673 
C     3.0289101   -0.6894634    6.2783700 
C     4.0301225   -1.4235109    6.9392746 
C     3.7004368   -2.3310487    7.9550367 
C     2.3583576   -2.5203334    8.3167839 
C     1.3524144   -1.7933561    7.6628932 
C     1.6878022   -0.8782697    6.6551282 
C    -1.6092041   -0.2033129    1.8359802 
C    -2.4471224    0.2058187    2.8890859 
C    -2.9026674    1.5288621    2.9562416 
C    -2.5013653    2.4606003    1.9882754 
C    -1.6411510    2.0733863    0.9538350 
C    -1.2002963    0.7408149    0.8675620 
C    -0.8301473    0.6763005   -2.1038068 
C    -2.2122360    1.3000968   -1.9832963 
C    -3.2402581    0.4036924   -1.6322848 
C    -4.5603803    0.8309117   -1.4660735 
C    -4.8890028    2.1771874   -1.6753906 
C    -3.8809925    3.0768228   -2.0351470 
C    -2.5385656    2.6594459   -2.1753841 
C    -1.5127093    3.7368492   -2.4076160 
O    -0.5666122    3.9223453   -1.6238748 
N    -1.7706884    4.5326494   -3.4811975 
C    -1.0573618    5.7694973   -3.8010921 
C    -2.0196656    6.9690510   -3.6850176 
C    -0.3707257    5.6994231   -5.1676393 
C     0.5015961    6.7394679   -5.5493559 
C     1.1555525    6.7116188   -6.7871767 
C     0.9430415    5.6433820   -7.6731264 
C     0.0781561    4.6048851   -7.3045535 
C    -0.5717884    4.6298771   -6.0598228 
C     1.2443832    1.5655143   -0.5609041 
N     1.3248320    1.8714413   -1.9998944 
N     0.2174245    1.4270722   -2.7888507 
C     2.0818390    2.9553616   -2.4143906 
O     2.8445603    3.5338122   -1.6389623 
C     1.9437944    3.3293656   -3.8700052 
C     1.5001806    2.1456011   -4.7280219 
C     0.2441431    1.5080864   -4.1711993 
O    -0.7087728    1.0996763   -4.8344937 
C     2.5881465    1.1814385    0.0290651 
C     3.2723044    0.0834818   -0.5212173 
C     4.4707428   -0.3734842    0.0346346 
C     5.0011491    0.2655334    1.1661649 
C     4.3318769    1.3637682    1.7160675 
C     3.1332452    1.8430307    1.1523043 
C     2.4937132    3.0319187    1.8315319 
O     2.2837216    3.0335223    3.0634674 
N     2.2145481    4.0883358    1.0425144 
C     1.6365050    5.3368661    1.5750620 
C     0.1172535    5.1858496    1.7892310 
C     1.9870959    6.4938839    0.6505212 
C     1.5820120    6.4807288   -0.6999197 
C     1.9120868    7.5457040   -1.5482573 
C     2.6339388    8.6457606   -1.0597085 
C     3.0303892    8.6709889    0.2848145 
C     2.7128623    7.5978009    1.1312555 
H    -4.3284577   -1.9613771   -3.2357208 
H    -3.6023657   -0.2169717   -4.8530755 
H    -1.8957816   -0.7488042   -6.5915887 
H    -0.8920206   -3.0470804   -6.6833775 
H    -1.5425086   -4.7582256   -5.0020115 
H    -2.4590358   -5.0848685   -2.6911413 
H    -4.5536213   -6.4358076   -2.9692474 
H    -5.2549577   -5.1407223   -4.0070310 
H    -3.8273634   -6.0539687   -4.5578921 
H    -4.9685053   -4.4226396   -1.5733585 
H    -6.0072165   -2.4354497   -0.9610312 
H    -7.4026806   -1.6324853    0.9413995 
H    -6.4194537   -1.5674898    3.2506697 
H    -4.0806046   -2.2926412    3.6194140 
H    -1.9533731   -3.9117802    1.0475423 
H    -0.4415236   -1.2190586    4.1125052 
H    -2.8593542   -4.2962870    6.8111118 
H    -3.9373659   -3.7730035    5.5011096 
H    -1.5702649   -5.7495352    5.1663402 
H    -3.2932091   -6.1959343    5.0935385 
H     4.2907150   -1.8460982    3.5948182 
H     4.6032673   -4.2517918    4.1827477 
H     2.5966606   -5.7050340    4.5515957 
H     0.3163252   -4.7889132    4.2143477 
H     2.3077913    1.4261985    3.7589658 
H     4.4242954    0.0454704    4.8253806 
H     3.8707706    2.4815603    5.0992867 
H     4.3271171    1.7022430    6.6556271 
H     2.6108252    2.0519754    6.2930005 
H     5.0792557   -1.2888656    6.6483366 
H     4.4920591   -2.8970257    8.4580400 
H     2.0970150   -3.2355153    9.1042617 
H     0.2994470   -1.9414803    7.9179779 
H     0.8924935   -0.3221373    6.1470987 
H    -2.7232128   -0.4960495    3.6802848 
H    -3.5557443    1.8351841    3.7797209 
H    -2.8393855    3.4998335    2.0474248 
H    -1.3050462    2.8120055    0.2189589 
H    -0.9639282   -0.2689747   -2.6578960 
H    -2.9828537   -0.6481333   -1.4752912 
H    -5.3291774    0.1118063   -1.1684671 
H    -5.9184851    2.5274411   -1.5503583 
H    -4.1227841    4.1364037   -2.1748492 
H    -2.5669562    4.2780320   -4.0648693 
H    -0.2844261    5.8621121   -3.0190614 
H    -2.4488871    7.0145264   -2.6698719 
H    -1.4885203    7.9146193   -3.8805041 
H    -2.8388153    6.8822030   -4.4207044 
H     0.6782373    7.5796046   -4.8678873 
H     1.8343894    7.5261322   -7.0608337 
H     1.4512243    5.6221763   -8.6427326 
H    -0.0932367    3.7625221   -7.9835524 
H    -1.2073384    3.7834817   -5.7799756 
H     0.8087814    2.4334695   -0.0402417 
H     1.2061271    4.1486822   -3.9282675 
H     2.9081357    3.7468720   -4.1967051 
H     1.2992327    2.4392784   -5.7675886 
H     2.2876248    1.3692827   -4.7334580 
H     2.8544156   -0.4108183   -1.4038551 
H     4.9909679   -1.2266087   -0.4136695 
H     5.9397069   -0.0823650    1.6103756 
H     4.7408900    1.8787282    2.5910196 
H     2.4946003    4.0275788    0.0483941 
H     2.1053394    5.5003464    2.5611332 
H    -0.0773743    4.3347612    2.4628745 
H    -0.2906680    6.1032573    2.2465404 
H    -0.3927167    5.0141372    0.8262427 
H     1.0124873    5.6295286   -1.0887593 
H     1.6117246    7.5144874   -2.6016242 
H     2.8897266    9.4777163   -1.7246140 
H     3.5954215    9.5239760    0.6755360 
H     3.0350839    7.6165927    2.1788935 
