197
Energy =
C    -1.1703129   -3.3625731   -1.7361274 
C     0.1317654   -3.4954966   -2.2762843 
C     1.2340430   -3.9432452   -1.4975651 
H     0.3201806   -3.1148671   -3.2882213 
Pd    0.3146137   -2.0700491   -0.6335797 
P     2.1240343   -1.1769635    0.4972255 
P    -0.7659222   -0.1097655    0.0599600 
H    -1.4255587   -3.9890481   -0.8687311 
H     1.0343583   -4.6015360   -0.6387274 
C    -4.4656635   -2.1988442   -4.2471459 
C    -3.2223054   -1.5612568   -4.3883258 
C    -2.1540920   -1.9029575   -3.5528738 
C    -2.3057123   -2.9003821   -2.5626437 
C    -3.5683214   -3.5195172   -2.4171468 
C    -4.6378499   -3.1744608   -3.2536234 
H    -5.3000557   -1.9251658   -4.9011062 
H    -3.0903529   -0.7690655   -5.1282924 
H    -1.1978588   -1.3764630   -3.6572359 
H    -3.7006783   -4.3015552   -1.6614091 
H    -5.6041703   -3.6757604   -3.1343443 
C     5.1719653   -4.2566940   -3.2279383 
C     4.7560029   -5.1554436   -2.2354734 
C     3.4814368   -5.0407439   -1.6654636 
C     2.5916355   -4.0254413   -2.0780509 
C     3.0212174   -3.1369270   -3.0930947 
C     4.2951696   -3.2491454   -3.6574807 
H     6.1772203   -4.3296797   -3.6530802 
H     5.4282277   -5.9537130   -1.9029152 
H     3.1553640   -5.7567030   -0.9073952 
H     2.3532531   -2.3327746   -3.4122130 
H     4.6158467   -2.5296450   -4.4174909 
C    -2.8719054    3.6172053    3.2816830 
C    -2.2636650    4.8128818    2.8741724 
C    -1.3582412    5.4704867    3.7223671 
C    -1.0516342    4.9132432    4.9739766 
C    -1.6498684    3.7079806    5.3725520 
C    -2.5711674    3.0529668    4.5350553 
C    -3.2836055    1.7913650    5.0151343 
C    -4.7373579    2.0884522    5.4266781 
N    -3.2739458    0.7178805    4.0096043 
C    -2.5106298   -0.3894874    4.1466838 
O    -1.7029186   -0.5513707    5.0836535 
C    -2.7599454   -1.4908820    3.1446093 
C    -3.0219730   -2.7641877    3.6897524 
C    -3.3160522   -3.8576736    2.8697688 
C    -3.3594361   -3.6833666    1.4779607 
C    -3.0789423   -2.4288587    0.9284512 
C    -2.7556507   -1.3295868    1.7419018 
C    -2.3757681   -0.0250816    1.0628328 
C    -1.4737705    1.0485400   -1.2977715 
N    -2.9081523    0.8084703   -1.1845831 
N    -3.3904636    0.3837634    0.0845396 
C    -3.7591597    0.8904226   -2.2705856 
O    -3.3507014    1.2965566   -3.3563887 
C    -5.1833429    0.4721309   -1.9542984 
C    -5.6449346    1.0301534   -0.6008384 
C    -4.6701749    0.6878588    0.5088620 
O    -4.9861470    0.5821886    1.6956197 
C    -0.9698684    2.4900263   -1.2731500 
C    -1.7673157    3.6439441   -1.1235148 
C    -1.1615752    4.9196477   -1.1493573 
C     0.2190879    5.0648569   -1.3110302 
C     1.0127180    3.9207229   -1.4708194 
C     0.4170350    2.6574298   -1.4607835 
C    -3.2426517    3.6158162   -0.8168816 
O    -3.6556815    3.2404458    0.2892370 
N    -4.0850158    4.0954048   -1.7772706 
C    -3.7434904    4.4982076   -3.1502149 
C    -4.8977278    4.1093939   -4.0917035 
C    -3.3987258    5.9826629   -3.2692337 
C    -2.5292909    6.4100490   -4.2901968 
C    -2.2110363    7.7667788   -4.4399368 
C    -2.7612774    8.7188509   -3.5681037 
C    -3.6322112    8.3037444   -2.5501302 
C    -3.9484456    6.9447425   -2.4032503 
C     0.3920451    0.9223654    1.0403777 
C    -0.0154116    2.1188604    1.6571902 
C     0.8866211    2.8441287    2.4441184 
C     2.1972379    2.3770403    2.6220867 
C     2.6125851    1.1890123    2.0068421 
C     1.7171699    0.4625208    1.2009752 
C     3.7495835   -1.0387246   -0.4940265 
C     4.2111407    0.3574185   -0.8756348 
C     5.1501690    1.0420639   -0.0864806 
C     5.6144915    2.3156951   -0.4353401 
C     5.1556761    2.9306904   -1.6076398 
C     4.2397190    2.2535348   -2.4207765 
C     3.7555206    0.9778860   -2.0654020 
C     2.7158739    0.3218736   -2.9251708 
O     1.6909267   -0.1909980   -2.4388304 
N     2.9320193    0.3560335   -4.2669670 
C     1.9401745   -0.0951878   -5.2497865 
C     2.6488610   -0.3178968   -6.5960020 
C     0.7449948    0.8554608   -5.3691592 
C    -0.3937861    0.4274405   -6.0811803 
C    -1.4932210    1.2777938   -6.2468544 
C    -1.4831801    2.5622608   -5.6831100 
C    -0.3651975    2.9901332   -4.9584994 
C     0.7454076    2.1443208   -4.8140436 
C     2.9737661   -2.0710731    1.9466674 
N     4.3949906   -1.8995467    1.6858683 
N     4.7171132   -1.7895339    0.3140043 
C     5.3409423   -1.7122375    2.6878588 
O     5.0099237   -1.6142405    3.8625369 
C     6.7756777   -1.7447602    2.1691307 
C     6.8954090   -2.6544991    0.9318930 
C     5.9678995   -2.1503128   -0.1666776 
O     6.2665075   -1.9775699   -1.3407987 
C     2.4989525   -3.5094099    2.0628049 
C     3.2834567   -4.5840007    1.6253712 
C     2.8000652   -5.8994170    1.6982733 
C     1.5072079   -6.1493655    2.1757348 
C     0.7273260   -5.0852969    2.6485356 
C     1.2247949   -3.7732537    2.6246373 
C     0.4411987   -2.6202560    3.1810601 
O     0.2203883   -1.6255403    2.4452772 
N     0.0415940   -2.6291750    4.4660793 
C     0.1733565   -3.6790651    5.4952421 
C    -0.2933768   -3.0763677    6.8347834 
C     1.5816580   -4.2500227    5.6263552 
C     1.7494592   -5.6227441    5.8820897 
C     3.0279891   -6.1648569    6.0713816 
C     4.1574876   -5.3358470    6.0020967 
C     4.0000432   -3.9656118    5.7457322 
C     2.7190582   -3.4258092    5.5635812 
H    -3.5766637    3.1284698    2.6029300 
H    -2.5040774    5.2238864    1.8885444 
H    -0.8915890    6.4108523    3.4090216 
H    -0.3426101    5.4155856    5.6411206 
H    -1.4025156    3.2727585    6.3478257 
H    -2.7270075    1.3872567    5.8761096 
H    -5.2183909    1.1809339    5.8300497 
H    -4.7582342    2.8764669    6.1974083 
H    -5.3224969    2.4422454    4.5593126 
H    -3.9747490    0.7205193    3.2481270 
H    -3.0112862   -2.8766137    4.7782772 
H    -3.5331592   -4.8344038    3.3146645 
H    -3.6166750   -4.5239798    0.8246176 
H    -3.1203963   -2.2809215   -0.1540854 
H    -2.2354152    0.7790158    1.8032318 
H    -1.1563114    0.6116500   -2.2601125 
H    -5.8248724    0.8016899   -2.7839570 
H    -5.2020122   -0.6346150   -1.9351236 
H    -5.7312575    2.1297832   -0.6230787 
H    -6.6266964    0.6294361   -0.3038930 
H    -1.7921393    5.8059927   -1.0321365 
H     0.6664634    6.0638517   -1.3129020 
H     2.0969696    4.0043559   -1.5954768 
H     1.0352355    1.7660741   -1.5851641 
H    -5.0583187    4.1871743   -1.4804321 
H    -2.8589623    3.9031099   -3.4308048 
H    -4.6641829    4.4301146   -5.1199371 
H    -5.8338615    4.6150135   -3.7924055 
H    -5.0358652    3.0163143   -4.0852374 
H    -2.0925804    5.6731271   -4.9743577 
H    -1.5281451    8.0810350   -5.2365285 
H    -2.5118916    9.7790407   -3.6813437 
H    -4.0675082    9.0398146   -1.8657687 
H    -4.6168373    6.6309234   -1.5937229 
H    -1.0326900    2.5016388    1.5269338 
H     0.5483498    3.7645632    2.9282854 
H     2.8973819    2.9322077    3.2545475 
H     3.6248550    0.8156415    2.1837822 
H     3.5708082   -1.6265833   -1.4084107 
H     5.5402381    0.5594399    0.8137699 
H     6.3412137    2.8235830    0.2066793 
H     5.5111530    3.9264043   -1.8902467 
H     3.8729614    2.7310126   -3.3363121 
H     3.8124901    0.7410069   -4.6060911 
H     1.5501566   -1.0637219   -4.8850506 
H     3.4591109   -1.0607494   -6.4937493 
H     1.9328695   -0.6861252   -7.3468823 
H     3.0709452    0.6306795   -6.9731765 
H    -0.4218422   -0.5821109   -6.5092822 
H    -2.3682077    0.9348966   -6.8087142 
H    -2.3550371    3.2128635   -5.7987417 
H    -0.3494534    3.9793460   -4.4883971 
H     1.6116936    2.4943909   -4.2460540 
H     2.7356965   -1.5075011    2.8623225 
H     7.0960658   -0.7143678    1.9217374 
H     7.4099641   -2.0842265    3.0021367 
H     7.9158682   -2.6721274    0.5225826 
H     6.6186019   -3.6923883    1.1996145 
H     4.2813041   -4.3903920    1.2229106 
H     3.4346139   -6.7298199    1.3714167 
H     1.1193534   -7.1722560    2.2117505 
H    -0.2705326   -5.2729583    3.0569079 
H    -0.5355423   -1.7967208    4.7331640 
H    -0.5122686   -4.5118474    5.2424764 
H    -1.3149898   -2.6681707    6.7523098 
H    -0.2737882   -3.8536518    7.6149521 
H     0.3816022   -2.2587867    7.1396703 
H     0.8688825   -6.2753853    5.9255904 
H     3.1418116   -7.2367448    6.2665623 
H     5.1582043   -5.7576445    6.1457182 
H     4.8693623   -3.3062064    5.6722132 
H     2.6120712   -2.3559524    5.3538382 
