197
Energy =
C    -0.3243170   -3.0851444   -2.2538605 
C     1.0238759   -2.8016262   -2.5519358 
C     2.0687282   -3.0510408   -1.6082167 
H     1.2553227   -2.2484146   -3.4711199 
Pd    0.6320913   -1.6314325   -0.7445442 
P     1.9872535   -0.7354085    0.8980887 
P    -0.8926698    0.0347979   -0.1050520 
H    -0.5451492   -3.8013372   -1.4487435 
H     1.9452798   -3.8936452   -0.9119746 
C    -3.3980041   -2.5175926   -5.2053933 
C    -2.3926422   -1.5476535   -5.0522643 
C    -1.3948729   -1.7151121   -4.0863114 
C    -1.4011171   -2.8423262   -3.2323058 
C    -2.4273751   -3.7996227   -3.3814204 
C    -3.4039163   -3.6487740   -4.3759880 
H    -4.1691045   -2.3847824   -5.9712899 
H    -2.3929921   -0.6599279   -5.6897966 
H    -0.5971488   -0.9721617   -3.9829704 
H    -2.4472420   -4.6738226   -2.7219603 
H    -4.1789836   -4.4138697   -4.4948635 
C     6.1255791   -2.0120040   -2.6137522 
C     5.0624538   -1.2252135   -3.0826533 
C     3.7430563   -1.5256354   -2.7257940 
C     3.4602032   -2.6493187   -1.9114730 
C     4.5392857   -3.4302757   -1.4420554 
C     5.8584458   -3.1130838   -1.7885317 
H     7.1565871   -1.7568670   -2.8761149 
H     5.2653478   -0.3633750   -3.7255983 
H     2.9257584   -0.8835176   -3.0714729 
H     4.3295803   -4.3072314   -0.8224765 
H     6.6829773   -3.7296938   -1.4153545 
C    -6.9959856    1.0268897    4.3037768 
C    -8.2052056    1.7135878    4.4711699 
C    -9.1449595    1.2726039    5.4167771 
C    -8.8658387    0.1394684    6.1920605 
C    -7.6556795   -0.5527345    6.0237550 
C    -6.7086571   -0.1177310    5.0794423 
C    -5.3817197   -0.8375770    4.8492372 
C    -5.0607926   -1.9811963    5.8203840 
N    -5.3529598   -1.3214826    3.4515125 
C    -4.1989548   -1.4393259    2.7526320 
O    -3.0960054   -1.2185746    3.2950216 
C    -4.3429037   -1.8526384    1.3129183 
C    -5.2979814   -2.8348754    0.9832413 
C    -5.5253754   -3.2020636   -0.3476743 
C    -4.7883308   -2.5891714   -1.3682773 
C    -3.8081572   -1.6387245   -1.0520138 
C    -3.5688179   -1.2601200    0.2792294 
C    -2.6572277   -0.0941967    0.5958418 
C    -1.4637293    1.2108347   -1.5250894 
N    -2.8750709    1.4972790   -1.1947105 
N    -3.2528001    1.1674921    0.1191515 
C    -3.7691486    1.9966675   -2.1164066 
O    -3.4165991    2.2240002   -3.2713090 
C    -5.1421276    2.3017204   -1.5355580 
C    -4.9978487    2.8408915   -0.1011646 
C    -4.3105912    1.7904026    0.7573419 
O    -4.6520259    1.4446827    1.8851282 
C    -0.6995001    2.4883684   -1.8353548 
C    -0.0464319    2.7034625   -3.0748337 
C     0.5826496    3.9405794   -3.3191100 
C     0.5796910    4.9627034   -2.3628031 
C    -0.0870349    4.7604848   -1.1471290 
C    -0.7286799    3.5416437   -0.9035662 
C     0.1750742    1.6236644   -4.1107893 
O     1.0138687    0.7221546   -3.8931057 
N    -0.4586409    1.6941513   -5.3045261 
C    -1.5342112    2.5968086   -5.7859173 
C    -0.9659807    3.8095870   -6.5469463 
C    -2.4797175    1.7779249   -6.6640185 
C    -1.9990537    1.1431457   -7.8285598 
C    -2.8466525    0.3530926   -8.6170477 
C    -4.1958027    0.2013719   -8.2613241 
C    -4.6871092    0.8462592   -7.1170097 
C    -3.8356291    1.6275112   -6.3206593 
C    -0.1710555    0.9842314    1.3280373 
C    -0.8834523    1.9557719    2.0605157 
C    -0.3435093    2.5216898    3.2218739 
C     0.9041089    2.1013152    3.6985937 
C     1.6071183    1.1099584    3.0074475 
C     1.0883361    0.5666689    1.8183238 
C     3.7710855   -0.1228401    0.6197500 
C     3.9917796    1.3527410    0.9241637 
C     4.6982575    1.7733991    2.0602152 
C     4.8888053    3.1366300    2.3240527 
C     4.3688841    4.1021090    1.4513889 
C     3.6820292    3.6970232    0.3003719 
C     3.5013956    2.3326027    0.0289330 
C     2.7385917    1.8344131   -1.1552051 
O     1.7722351    1.0651839   -0.9417600 
N     3.1039079    2.1040058   -2.4263504 
C     4.0369836    3.0961006   -2.9862358 
C     4.2159790    2.7684206   -4.4808900 
C     5.3853110    3.1813792   -2.2787667 
C     6.0222984    4.4323732   -2.1881881 
C     7.2762692    4.5541117   -1.5737705 
C     7.9034703    3.4223594   -1.0315903 
C     7.2749799    2.1711001   -1.1166867 
C     6.0283666    2.0509588   -1.7457671 
C     2.5233630   -1.9181962    2.3064746 
N     3.9234196   -1.5731593    2.5467502 
N     4.5868641   -1.0294663    1.4197474 
C     4.6004231   -1.9738516    3.6876900 
O     4.0071141   -2.5322804    4.6047671 
C     6.1016908   -1.7268759    3.6329741 
C     6.6459783   -2.0514682    2.2310116 
C     5.9392937   -1.2112130    1.1770996 
O     6.4820278   -0.6739358    0.2191451 
C     2.2774937   -3.3883775    1.9943931 
C     3.3494806   -4.2605959    1.7445331 
C     3.1368799   -5.6083328    1.4279370 
C     1.8300548   -6.1065344    1.3347078 
C     0.7503873   -5.2471635    1.5683045 
C     0.9572446   -3.8991303    1.9182643 
C    -0.2822424   -3.0426860    2.0427765 
O    -1.0491239   -2.9617335    1.0610814 
N    -0.5247566   -2.3658869    3.1909520 
C     0.0456831   -2.6479006    4.5236221 
C    -0.8291968   -3.6781581    5.2666523 
C     0.2086930   -1.3602567    5.3306172 
C     1.4369380   -1.0754854    5.9570147 
C     1.5794975    0.0666112    6.7614807 
C     0.4957060    0.9352222    6.9530524 
C    -0.7290371    0.6605343    6.3239020 
C    -0.8742001   -0.4772346    5.5190836 
H    -6.2649177    1.3737910    3.5645296 
H    -8.4133575    2.6023583    3.8651393 
H   -10.0887292    1.8120285    5.5501358 
H    -9.5915645   -0.2116770    6.9334036 
H    -7.4583433   -1.4344417    6.6407206 
H    -4.5661537   -0.0929845    4.9153791 
H    -4.0716486   -2.3990289    5.5737993 
H    -5.0310632   -1.6119494    6.8592313 
H    -5.8080286   -2.7899745    5.7508510 
H    -6.2379549   -1.3518781    2.9469510 
H    -5.8629087   -3.3225383    1.7851043 
H    -6.2752624   -3.9634774   -0.5853410 
H    -4.9614617   -2.8539137   -2.4136434 
H    -3.2274293   -1.1851753   -1.8619369 
H    -2.5406073   -0.0156608    1.6844428 
H    -1.4588946    0.5521763   -2.4106556 
H    -5.6338680    3.0206689   -2.2072968 
H    -5.7418001    1.3710486   -1.5364385 
H    -4.3916648    3.7671571   -0.1021029 
H    -5.9678537    3.0699698    0.3636600 
H     1.1047636    4.0900904   -4.2695674 
H     1.0837835    5.9116288   -2.5728956 
H    -0.1151427    5.5508567   -0.3902292 
H    -1.2706633    3.4028144    0.0338407 
H    -0.1567251    0.9618043   -5.9529075 
H    -2.0797915    2.9346128   -4.8934249 
H    -1.7969424    4.4209570   -6.9367253 
H    -0.3442952    3.4917367   -7.4019177 
H    -0.3539791    4.4415092   -5.8835625 
H    -0.9505224    1.2602016   -8.1310133 
H    -2.4548696   -0.1393955   -9.5131786 
H    -4.8605465   -0.4131064   -8.8776988 
H    -5.7400399    0.7355275   -6.8357405 
H    -4.2108993    2.1014517   -5.4098072 
H    -1.8835529    2.2624181    1.7464378 
H    -0.9189128    3.2732739    3.7714210 
H     1.3163141    2.5157066    4.6220910 
H     2.5602390    0.7517826    3.4047772 
H     3.9918830   -0.3352713   -0.4412459 
H     5.1091339    1.0265710    2.7457313 
H     5.4471466    3.4434495    3.2142754 
H     4.5127259    5.1673820    1.6569459 
H     3.2851661    4.4415543   -0.3964677 
H     2.4673306    1.6212921   -3.0864419 
H     3.5573259    4.0936169   -2.9157878 
H     3.2415877    2.7396905   -5.0016439 
H     4.8482070    3.5339747   -4.9573652 
H     4.7073382    1.7885675   -4.6029740 
H     5.5261281    5.3234241   -2.5928053 
H     7.7578439    5.5357401   -1.5086590 
H     8.8767664    3.5174593   -0.5383435 
H     7.7338753    1.2786300   -0.6820562 
H     5.5468362    1.0700176   -1.7814683 
H     1.9543671   -1.6182626    3.1987884 
H     6.3055731   -0.6679019    3.8838227 
H     6.5622364   -2.3461099    4.4165925 
H     7.7231055   -1.8468606    2.1431028 
H     6.4944418   -3.1230352    1.9969149 
H     4.3710664   -3.8764611    1.7907371 
H     3.9938153   -6.2657831    1.2486228 
H     1.6529225   -7.1564538    1.0809652 
H    -0.2782505   -5.6116542    1.4825275 
H    -1.4430923   -1.8794729    3.1750395 
H     1.0442305   -3.0926105    4.3735271 
H    -0.8823606   -4.6187895    4.6910390 
H    -0.4053336   -3.8920846    6.2618317 
H    -1.8523542   -3.2872367    5.3998804 
H     2.2876441   -1.7492714    5.8123925 
H     2.5408509    0.2696026    7.2463359 
H     0.6030110    1.8207321    7.5892685 
H    -1.5805853    1.3363990    6.4610481 
H    -1.8347776   -0.6692743    5.0310285 
