197
Energy =
C     1.0096510   -1.9543505   -2.6500095 
C     1.3483374   -3.0523378   -1.8217358 
C     0.3658880   -3.5759901   -0.9291367 
H     2.3840874   -3.4091626   -1.7692113 
Pd    0.7413526   -1.4502630   -0.4536725 
P    -0.5391470   -1.2034575    1.4682460 
P     0.9113964    0.8683863   -0.3924431 
H    -0.0643333   -1.7892511   -2.8291939 
H    -0.6798464   -3.4475756   -1.2459935 
C     3.5092084    0.0162933   -5.5414478 
C     2.1220791    0.2232106   -5.5269968 
C     1.3293772   -0.4221477   -4.5708540 
C     1.9034104   -1.2853643   -3.6085197 
C     3.3047706   -1.4866628   -3.6397044 
C     4.0967882   -0.8418732   -4.5944294 
H     4.1323451    0.5137046   -6.2922053 
H     1.6534034    0.8967499   -6.2498783 
H     0.2441061   -0.2701940   -4.5749484 
H     3.7808589   -2.1627922   -2.9222409 
H     5.1781618   -1.0138256   -4.6065093 
C     0.9181955   -7.0005205    1.6127805 
C    -0.3681604   -6.5624858    1.2665428 
C    -0.5273003   -5.4212186    0.4715920 
C     0.5916788   -4.6950924    0.0050966 
C     1.8795118   -5.1164813    0.4087205 
C     2.0383075   -6.2625672    1.1929789 
H     1.0503531   -7.9040010    2.2171569 
H    -1.2521040   -7.1169953    1.5998810 
H    -1.5328074   -5.0970886    0.1862781 
H     2.7633075   -4.5436569    0.1088847 
H     3.0435713   -6.5813648    1.4867130 
C    -3.4113101   -4.7749948   -4.8458870 
C    -4.1527201   -4.5380471   -6.0122971 
C    -5.5138581   -4.2102455   -5.9267056 
C    -6.1301315   -4.1270157   -4.6681097 
C    -5.3875503   -4.3705794   -3.5047285 
C    -4.0201294   -4.6937506   -3.5835125 
C    -3.2153587   -4.9656173   -2.3126384 
C    -3.5608048   -6.3333686   -1.7034219 
N    -3.4636324   -3.9138424   -1.3078562 
C    -3.3467405   -2.6024771   -1.6164967 
O    -2.8717625   -2.2212699   -2.7040075 
C    -3.9375361   -1.6265397   -0.6223778 
C    -5.0738856   -0.9167455   -1.0548942 
C    -5.7122184   -0.0017900   -0.2101688 
C    -5.2228750    0.1996650    1.0893736 
C    -4.0934587   -0.5024374    1.5233042 
C    -3.4245827   -1.4034319    0.6745780 
C    -2.1945568   -2.1445033    1.1491766 
C    -0.4367748   -1.8575898    3.2599338 
N    -1.7746539   -2.3807502    3.5237757 
N    -2.4233310   -2.9058543    2.3891530 
C    -2.3636699   -2.4084026    4.7825834 
O    -1.8102651   -1.9067343    5.7514073 
C    -3.6759093   -3.1814651    4.8076935 
C    -3.5750808   -4.4170141    3.8954688 
C    -3.2838214   -3.9741657    2.4702279 
O    -3.8220704   -4.4525848    1.4669081 
C     0.7017286   -2.8072366    3.5744426 
C     1.9981849   -2.2681947    3.7487448 
C     3.0585484   -3.1091028    4.1312127 
C     2.8368788   -4.4730134    4.3615921 
C     1.5491516   -5.0013174    4.2026678 
C     0.4913360   -4.1729809    3.8028611 
C     2.2558956   -0.8202422    3.4435538 
O     1.8331965   -0.3349584    2.3680808 
N     2.9941645   -0.0972635    4.3115428 
C     2.9610878   -0.2171528    5.7875193 
C     4.3358133    0.1372252    6.3640889 
C     1.8045504    0.6616206    6.2706439 
C     0.5558138    0.0704279    6.5341009 
C    -0.5595379    0.8598801    6.8517573 
C    -0.4352386    2.2557632    6.9119317 
C     0.8067180    2.8549908    6.6464359 
C     1.9191358    2.0649114    6.3247829 
C    -0.8085772    0.5930247    1.7984203 
C    -1.5076161    1.0533186    2.9291053 
C    -1.5344719    2.4165560    3.2506428 
C    -0.8454434    3.3350177    2.4499585 
C    -0.1221744    2.8853683    1.3378598 
C    -0.1008750    1.5222024    0.9983656 
C     0.5172950    1.8316697   -1.9709176 
C    -0.5631780    2.8848918   -1.7910951 
C    -0.2562305    4.2465864   -1.6591013 
C    -1.2706888    5.1869189   -1.4358074 
C    -2.6063386    4.7719124   -1.3334170 
C    -2.9267335    3.4180752   -1.4928762 
C    -1.9161409    2.4751945   -1.7364682 
C    -2.1806806    1.0132721   -1.9244302 
O    -1.5533601    0.2029951   -1.1929002 
N    -2.9661724    0.5435960   -2.9141396 
C    -3.9693884    1.1799853   -3.7890490 
C    -4.2974574    0.1724412   -4.9100962 
C    -3.5639834    2.5272578   -4.3709621 
C    -4.5335608    3.5384635   -4.4964818 
C    -4.2020466    4.7827305   -5.0505736 
C    -2.8887819    5.0313706   -5.4764946 
C    -1.9166860    4.0264480   -5.3579304 
C    -2.2565166    2.7780996   -4.8200936 
C     2.5716044    1.7888103   -0.1770312 
N     2.8838076    2.3353720   -1.5133368 
N     1.7985119    2.3556970   -2.4421177 
C     4.1495285    2.7374915   -1.8804243 
O     5.0486058    2.8725411   -1.0429827 
C     4.3613925    2.9641626   -3.3612672 
C     3.1644911    3.6748116   -3.9949020 
C     1.8664848    2.9602434   -3.6866357 
O     0.8960696    2.9195198   -4.4394597 
C     3.6684672    0.8806660    0.3553936 
C     3.9377730   -0.3192558   -0.3240425 
C     4.8424455   -1.2537257    0.1897447 
C     5.4898987   -0.9999788    1.4084621 
C     5.2494778    0.2030077    2.0814213 
C     4.3607439    1.1591363    1.5566570 
C     4.1803613    2.4433695    2.3324050 
O     3.9739977    2.4344699    3.5616487 
N     4.2715313    3.5543786    1.5661781 
C     4.0548085    4.9628542    1.9594998 
C     2.8805300    5.1323758    2.9331428 
C     3.9039401    5.7293111    0.6414555 
C     5.0571718    6.0285901   -0.1102971 
C     4.9610487    6.6466178   -1.3641320 
C     3.7030052    6.9860010   -1.8856942 
C     2.5474506    6.7008651   -1.1430975 
C     2.6472266    6.0707286    0.1076369 
H    -2.3426546   -5.0095894   -4.9155041 
H    -3.6638223   -4.6005932   -6.9904185 
H    -6.0929021   -4.0204969   -6.8366710 
H    -7.1936841   -3.8750516   -4.5933958 
H    -5.8703100   -4.2935796   -2.5230257 
H    -2.1415448   -4.9445765   -2.5793085 
H    -2.9651036   -6.5340865   -0.7970753 
H    -4.6308175   -6.3798465   -1.4375918 
H    -3.3551527   -7.1258362   -2.4401972 
H    -3.7964769   -4.1648742   -0.3626857 
H    -5.4654580   -1.1069300   -2.0596335 
H    -6.5995321    0.5373659   -0.5577832 
H    -5.7222558    0.9002990    1.7662768 
H    -3.7249879   -0.3529349    2.5409911 
H    -1.9027991   -2.8749875    0.3839517 
H    -0.3140395   -0.9619662    3.8896660 
H    -3.8810467   -3.4457793    5.8552622 
H    -4.4923348   -2.5198730    4.4592941 
H    -2.7666398   -5.0881424    4.2441846 
H    -4.5060042   -5.0024532    3.8729697 
H     4.0589631   -2.6787809    4.2463266 
H     3.6654491   -5.1197166    4.6677099 
H     1.3628146   -6.0633126    4.3859790 
H    -0.5095398   -4.5944738    3.6783413 
H     3.2337609    0.8648769    3.9896452 
H     2.7186954   -1.2635945    6.0337058 
H     5.0889306   -0.5930782    6.0214081 
H     4.3050716    0.1259384    7.4659656 
H     4.6584856    1.1377230    6.0305878 
H     0.4376440   -1.0172193    6.4779563 
H    -1.5183923    0.3698083    7.0469462 
H    -1.3013148    2.8765132    7.1678680 
H     0.9107248    3.9449853    6.6879812 
H     2.8734954    2.5475209    6.0915091 
H    -2.0084356    0.3482304    3.5998176 
H    -2.0692550    2.7502590    4.1446251 
H    -0.8492949    4.4004960    2.7000921 
H     0.4302059    3.6098112    0.7347949 
H     0.1840232    1.0728747   -2.6947953 
H     0.7860493    4.5728025   -1.7271891 
H    -1.0169093    6.2479854   -1.3405358 
H    -3.3998092    5.5035855   -1.1528771 
H    -3.9686560    3.0892384   -1.4376498 
H    -2.9662157   -0.5024485   -2.9190673 
H    -4.8899065    1.3358240   -3.1901056 
H    -5.1090457    0.5700168   -5.5398784 
H    -3.4103802    0.0121423   -5.5464021 
H    -4.6080914   -0.8038557   -4.4976826 
H    -5.5561299    3.3539182   -4.1444344 
H    -4.9673544    5.5614064   -5.1391305 
H    -2.6231421    6.0077504   -5.8959383 
H    -0.8820928    4.2048633   -5.6638043 
H    -1.4772120    2.0177607   -4.7114493 
H     2.3823257    2.6170494    0.5224633 
H     5.2944219    3.5342419   -3.4738661 
H     4.5022705    1.9702963   -3.8284597 
H     3.0767887    4.7033137   -3.5927634 
H     3.2518310    3.7495543   -5.0888557 
H     3.4235668   -0.5162747   -1.2706748 
H     5.0365880   -2.1837514   -0.3558557 
H     6.1911099   -1.7304031    1.8251721 
H     5.7564455    0.4236387    3.0257118 
H     4.6124618    3.3889132    0.5997738 
H     4.9731494    5.3280120    2.4609332 
H     2.6970897    6.2066826    3.1018369 
H     1.9602691    4.6718030    2.5362058 
H     3.1051849    4.6419180    3.8902009 
H     6.0430276    5.7633768    0.2880331 
H     5.8706593    6.8716531   -1.9308043 
H     3.6243011    7.4843191   -2.8579170 
H     1.5636133    6.9817414   -1.5347662 
H     1.7335716    5.8591114    0.6720820 
