197
Energy =
C    -1.2340546   -3.3484457   -1.6715879 
C    -0.2551756   -3.2061284   -2.6954780 
C     1.1037496   -3.4923795   -2.4101529 
H    -0.5320364   -2.7432166   -3.6499416 
Pd    0.3142912   -1.8406463   -1.1074987 
P     2.0992620   -0.3644683   -0.9602190 
P    -0.7688373   -0.3459803    0.3197442 
H    -1.0273665   -4.0986981   -0.8951985 
H     1.3065802   -4.1630726   -1.5609091 
C    -5.3884018   -2.5096358   -2.3986083 
C    -4.3999401   -1.6923387   -2.9712009 
C    -3.0462280   -1.9418242   -2.7246849 
C    -2.6560012   -3.0146664   -1.8875048 
C    -3.6592653   -3.8164463   -1.2990462 
C    -5.0139800   -3.5722524   -1.5628311 
H    -6.4464745   -2.3059547   -2.5910444 
H    -4.6907803   -0.8402874   -3.5923951 
H    -2.2785792   -1.2913442   -3.1615481 
H    -3.3725189   -4.6578063   -0.6577068 
H    -5.7788516   -4.2161351   -1.1153959 
C     4.3260373   -3.3118552   -5.2489693 
C     3.1740880   -2.5373375   -5.4626301 
C     2.1214650   -2.5735946   -4.5442032 
C     2.1999729   -3.3845558   -3.3876801 
C     3.3622553   -4.1618666   -3.1893354 
C     4.4142643   -4.1290504   -4.1122601 
H     5.1461433   -3.2800098   -5.9740139 
H     3.1028072   -1.8916325   -6.3388052 
H     1.2322076   -1.9625812   -4.7302136 
H     3.4334854   -4.7987520   -2.3021224 
H     5.3037765   -4.7454321   -3.9424902 
C    -2.2444417    2.9754948    5.8896194 
C    -3.4080312    3.7262607    6.1092848 
C    -4.6136758    3.0778408    6.4148000 
C    -4.6505336    1.6762878    6.4770356 
C    -3.4840607    0.9294915    6.2646385 
C    -2.2639716    1.5724249    5.9794515 
C    -0.9636297    0.7891082    5.8849629 
C    -0.4918057    0.3417320    7.2864732 
N    -1.1039586   -0.3679140    4.9847201 
C    -0.0325995   -1.0472857    4.5256188 
O     1.1415958   -0.7520247    4.8395328 
C    -0.3324960   -2.2336820    3.6460669 
C     0.2302047   -3.4684087    4.0204644 
C    -0.0498927   -4.6320074    3.2956405 
C    -0.9120866   -4.5706800    2.1893766 
C    -1.4457908   -3.3402852    1.7931189 
C    -1.1433810   -2.1617369    2.4930735 
C    -1.6115468   -0.8331049    1.9397587 
C    -2.3362222    0.5544697   -0.2873431 
N    -3.4147802   -0.0497406    0.4885578 
N    -3.0462004   -0.8205178    1.6358880 
C    -4.7194681   -0.0456281    0.0208580 
O    -5.0236135    0.6276612   -0.9602943 
C    -5.6585747   -0.9097914    0.8395744 
C    -5.3884305   -0.7600789    2.3391368 
C    -3.9364275   -0.9702670    2.6894082 
O    -3.5426981   -1.3089473    3.8083200 
C    -2.2037325    2.0698662   -0.2954244 
C    -2.7890788    2.9590654    0.6292687 
C    -2.5477361    4.3455169    0.5105893 
C    -1.7109886    4.8533920   -0.4868056 
C    -1.1297047    3.9691059   -1.4053642 
C    -1.3889310    2.5984903   -1.3160157 
C    -3.6038652    2.5199029    1.8174268 
O    -3.1470124    1.7777886    2.6998283 
N    -4.8377193    3.0962558    1.8708664 
C    -5.7307495    3.0583387    3.0279000 
C    -6.0248817    4.4989882    3.4923031 
C    -7.0211693    2.2858425    2.7550154 
C    -7.4754762    2.0078383    1.4529876 
C    -8.6807218    1.3161088    1.2512290 
C    -9.4440382    0.8888221    2.3462017 
C    -8.9953125    1.1572722    3.6494928 
C    -7.7962768    1.8524249    3.8498345 
C     0.4083143    0.9751671    0.8163857 
C     0.0892849    1.9236465    1.8077090 
C     1.0215462    2.9052531    2.1626644 
C     2.2783168    2.9432658    1.5423131 
C     2.6047658    1.9982715    0.5628159 
C     1.6731819    1.0124320    0.1844813 
C     2.5882501    0.3324891   -2.6670636 
C     2.2023501    1.7493778   -3.0399582 
C     2.9907031    2.8408618   -2.6373567 
C     2.6935169    4.1427084   -3.0575198 
C     1.5995174    4.3710813   -3.9043177 
C     0.8144760    3.2905205   -4.3267761 
C     1.1056247    1.9810886   -3.9011552 
C     0.2267338    0.8318579   -4.3214522 
O    -0.3809688    0.1589442   -3.4655664 
N     0.1067714    0.5699489   -5.6495470 
C     0.8840537    1.1194136   -6.7792435 
C    -0.0057589    2.0001756   -7.6777667 
C     1.5469570    0.0120703   -7.5952131 
C     2.8936697    0.1435475   -7.9806637 
C     3.5014699   -0.8265059   -8.7913056 
C     2.7737588   -1.9472660   -9.2180504 
C     1.4316787   -2.0900913   -8.8344104 
C     0.8218004   -1.1115995   -8.0368639 
C     3.9197564   -0.6918708   -0.4632162 
N     4.6968117   -0.0412736   -1.5191276 
N     4.0276908    0.0888048   -2.7570945 
C     6.0101555    0.3769204   -1.3447093 
O     6.5698422    0.2578173   -0.2621234 
C     6.6619319    0.9015287   -2.6185563 
C     6.1995976    0.0897222   -3.8412126 
C     4.6892431    0.1915248   -3.9678464 
O     4.0644919    0.4192925   -5.0000614 
C     4.3061181   -2.1314885   -0.1677046 
C     5.2201526   -2.8266360   -0.9704144 
C     5.6486120   -4.1157345   -0.6231691 
C     5.1583128   -4.7306125    0.5359507 
C     4.2533874   -4.0399632    1.3543833 
C     3.8292778   -2.7421172    1.0173899 
C     2.8114516   -2.0509186    1.8871152 
O     1.7046558   -1.7265390    1.3947933 
N     3.0924197   -1.8503457    3.1862514 
C     4.4356610   -1.6725844    3.7755980 
C     4.4485802   -2.2422998    5.1999459 
C     4.7972907   -0.1880542    3.6879514 
C     5.7591712    0.2392554    2.7564462 
C     6.0567594    1.6032298    2.6066713 
C     5.3977678    2.5542765    3.3978255 
C     4.4259258    2.1361151    4.3226013 
C     4.1209630    0.7761035    4.4637913 
H    -1.3018636    3.4864230    5.6594933 
H    -3.3714673    4.8195658    6.0508873 
H    -5.5208719    3.6624256    6.6011037 
H    -5.5892345    1.1595972    6.7045992 
H    -3.5320908   -0.1628973    6.3249177 
H    -0.1791877    1.4348650    5.4492437 
H     0.4659704   -0.1971268    7.2071298 
H    -0.3560556    1.2237758    7.9344612 
H    -1.2449304   -0.3181099    7.7502573 
H    -2.0403888   -0.6873268    4.6793595 
H     0.8790372   -3.5046833    4.9011904 
H     0.3835359   -5.5882779    3.6064567 
H    -1.1638863   -5.4816775    1.6353699 
H    -2.1197213   -3.2739181    0.9343564 
H    -1.3987496   -0.0113315    2.6413967 
H    -2.4744556    0.2343143   -1.3341155 
H    -6.6889186   -0.6321251    0.5793398 
H    -5.4915592   -1.9566574    0.5232312 
H    -5.6584175    0.2537109    2.6820554 
H    -5.9822471   -1.4638833    2.9427540 
H    -3.0044573    5.0242837    1.2396146 
H    -1.5157783    5.9289967   -0.5463027 
H    -0.4714250    4.3417322   -2.1941036 
H    -0.9441021    1.9090259   -2.0420371 
H    -5.1095287    3.6702429    1.0733394 
H    -5.1609152    2.5362768    3.8156356 
H    -6.6881175    4.4916877    4.3721570 
H    -6.5332357    5.0678597    2.6930937 
H    -5.0866248    5.0121099    3.7627819 
H    -6.8734941    2.2893775    0.5829086 
H    -9.0167417    1.1066110    0.2298891 
H   -10.3821880    0.3468180    2.1875653 
H    -9.5805387    0.8210033    4.5120256 
H    -7.4469437    2.0515295    4.8696460 
H    -0.8890039    1.9026190    2.3021767 
H     0.7660254    3.6354567    2.9372536 
H     3.0193856    3.6916826    1.8363017 
H     3.6062829    2.0164027    0.1228823 
H     2.1114272   -0.3654899   -3.3711206 
H     3.8706023    2.6629163   -2.0120686 
H     3.3222006    4.9773621   -2.7312813 
H     1.3603924    5.3853887   -4.2393955 
H    -0.0414500    3.4614574   -4.9866812 
H    -0.5608611   -0.1753120   -5.8597422 
H     1.6815893    1.7303813   -6.3293810 
H    -0.4517687    2.8306363   -7.1049580 
H     0.5922083    2.4195027   -8.5036134 
H    -0.8223966    1.4030309   -8.1201020 
H     3.4778853    0.9945351   -7.6180151 
H     4.5517590   -0.7111617   -9.0790698 
H     3.2499021   -2.7085620   -9.8445361 
H     0.8558392   -2.9619499   -9.1617589 
H    -0.2349353   -1.2347100   -7.7671525 
H     4.0828953   -0.1133101    0.4625922 
H     6.3890750    1.9669677   -2.7474907 
H     7.7503475    0.8544475   -2.4667440 
H     6.6392951    0.4578441   -4.7795135 
H     6.4818011   -0.9750518   -3.7301027 
H     5.6064367   -2.3532509   -1.8765316 
H     6.3663073   -4.6384300   -1.2637849 
H     5.4874942   -5.7379498    0.8104683 
H     3.8684052   -4.5013318    2.2701327 
H     2.3189857   -1.4182833    3.7451207 
H     5.1513665   -2.2328817    3.1524314 
H     4.2405489   -3.3259584    5.1772285 
H     5.4326180   -2.0774328    5.6683466 
H     3.6782251   -1.7586499    5.8242215 
H     6.2736668   -0.4900398    2.1223229 
H     6.8040169    1.9061864    1.8667474 
H     5.6370535    3.6188743    3.2950704 
H     3.8982171    2.8752399    4.9357099 
H     3.3337278    0.4684990    5.1595727 
