197
Energy =
C    -1.5056439   -3.4423592   -2.3988722 
C    -0.0870114   -3.5095824   -2.4707118 
C     0.7192437   -3.6541971   -1.3139406 
H     0.4040484   -3.3055593   -3.4305180 
Pd   -0.5510255   -1.8034604   -1.1953937 
P     0.6573366   -0.2077114    0.0218721 
P    -2.2341039   -0.2118352   -1.2134172 
H    -2.0093562   -3.9425549   -1.5579621 
H     0.2708591   -4.1527720   -0.4417822 
C    -3.8424184   -3.0230094   -5.9961109 
C    -4.3487254   -3.7291162   -4.8964541 
C    -3.5943311   -3.8405005   -3.7218956 
C    -2.3200000   -3.2399647   -3.6165856 
C    -1.8260937   -2.5219953   -4.7321559 
C    -2.5746488   -2.4283442   -5.9097356 
H    -4.4351348   -2.9251310   -6.9103927 
H    -5.3338175   -4.2036693   -4.9563644 
H    -3.9760629   -4.4266115   -2.8818199 
H    -0.8581294   -2.0169792   -4.6603781 
H    -2.1714789   -1.8765471   -6.7642222 
C     4.9951996   -3.9541516   -1.6948158 
C     4.3086037   -4.7402145   -0.7566805 
C     2.9216613   -4.6071518   -0.6076106 
C     2.1949389   -3.6944671   -1.4048915 
C     2.9044427   -2.8929151   -2.3284604 
C     4.2894923   -3.0213476   -2.4729947 
H     6.0794403   -4.0543468   -1.8088463 
H     4.8531962   -5.4646654   -0.1420672 
H     2.3886230   -5.2397167    0.1109690 
H     2.3613473   -2.1541287   -2.9294216 
H     4.8243122   -2.3723441   -3.1716851 
C    -3.1591243   -1.5828397    6.4087289 
C    -2.7173314   -2.2513364    7.5587206 
C    -2.8667040   -3.6430324    7.6711415 
C    -3.4671912   -4.3622988    6.6278893 
C    -3.9068776   -3.6915295    5.4761914 
C    -3.7529260   -2.2991075    5.3502779 
C    -4.1699592   -1.5959086    4.0618360 
C    -5.1460140   -0.4241532    4.2706354 
N    -2.9683839   -1.1170268    3.3528670 
C    -2.5790037   -1.4092135    2.1044465 
O    -1.6227091   -0.8151564    1.5492498 
C    -3.3300528   -2.4407048    1.3125277 
C    -3.3457028   -3.7951141    1.6855315 
C    -4.0373043   -4.7316582    0.9041388 
C    -4.7294903   -4.3062391   -0.2394486 
C    -4.6921933   -2.9583132   -0.6271492 
C    -3.9799421   -2.0186407    0.1315360 
C    -3.8601547   -0.5625900   -0.2778823 
C    -3.1639322    0.2028106   -2.8391240 
N    -4.5530902   -0.1577628   -2.5448170 
N    -4.9010601   -0.0894365   -1.1779019 
C    -5.4867232   -0.4238205   -3.5318012 
O    -5.1648035   -0.4556598   -4.7142500 
C    -6.9058699   -0.5773405   -2.9976357 
C    -7.1730968    0.4356838   -1.8688240 
C    -6.1776378    0.2322620   -0.7328974 
O    -6.4323880    0.2665118    0.4639141 
C    -2.9959804    1.6191841   -3.3664884 
C    -1.8664844    1.9849401   -4.1388510 
C    -1.7200941    3.3109638   -4.5840787 
C    -2.6913194    4.2759477   -4.3005127 
C    -3.8411704    3.9036811   -3.5922624 
C    -3.9851815    2.5889840   -3.1332069 
C    -0.8523690    0.9387235   -4.4748210 
O    -0.4042821    0.1892619   -3.5800814 
N    -0.4413788    0.7682517   -5.7637496 
C    -0.7086895    1.4840408   -7.0332913 
C    -0.2453547    0.5658565   -8.1810618 
C    -2.1536235    1.9211082   -7.2473773 
C    -3.2519495    1.1618001   -6.8098685 
C    -4.5605207    1.5919112   -7.0708089 
C    -4.7858501    2.7769221   -7.7863164 
C    -3.6947286    3.5353202   -8.2363400 
C    -2.3878517    3.1101812   -7.9630546 
C    -1.6469992    1.3307334   -0.4149185 
C    -2.4776127    2.4521252   -0.2377960 
C    -2.0234361    3.5620886    0.4858468 
C    -0.7465209    3.5472372    1.0637308 
C     0.0731501    2.4197921    0.9294411 
C    -0.3679413    1.3102191    0.1881094 
C     2.3020411    0.4021153   -0.7448863 
C     2.3684623    1.8925262   -1.0540101 
C     1.6211848    2.3083813   -2.1722404 
C     1.5642390    3.6501431   -2.5593082 
C     2.2857623    4.6150371   -1.8439049 
C     3.0527663    4.2139203   -0.7459790 
C     3.0926828    2.8644553   -0.3308907 
C     3.8432136    2.5708827    0.9396066 
O     3.2852887    2.0820814    1.9359159 
N     5.1441926    2.9711255    0.9228479 
C     6.0356595    2.9717609    2.0823258 
C     6.3705819    4.4222668    2.4852976 
C     7.2856519    2.1203981    1.8422386 
C     7.5734036    1.5339516    0.5953074 
C     8.7248042    0.7487846    0.4222416 
C     9.6023307    0.5328699    1.4925849 
C     9.3206944    1.1072267    2.7423797 
C     8.1753840    1.8945564    2.9128017 
C     1.4822866   -0.4473080    1.7183968 
N     2.9083009   -0.6306061    1.4050984 
N     3.3263742   -0.1663988    0.1205788 
C     3.8255123   -0.7120522    2.4411312 
O     3.4627407   -0.7787449    3.6162542 
C     5.2731832   -0.7849536    2.0137531 
C     5.4356205   -1.2821573    0.5756984 
C     4.5815232   -0.4759732   -0.3808786 
O     4.9127760   -0.0867853   -1.4984984 
C     0.9520983   -1.6076469    2.5387958 
C     1.1239499   -2.9109434    2.0466800 
C     0.5889896   -4.0155231    2.7176570 
C    -0.1340937   -3.8233969    3.9049264 
C    -0.2875311   -2.5307821    4.4198518 
C     0.2648583   -1.4177811    3.7586487 
C     0.0769817   -0.0703926    4.4151004 
O    -1.0563946    0.3574955    4.7259750 
N     1.2126591    0.6021144    4.6908964 
C     1.2104548    1.8933209    5.4039906 
C     0.8465466    3.0475316    4.4489542 
C     2.5528827    2.1036014    6.0895051 
C     2.6211973    2.2972057    7.4804051 
C     3.8540721    2.5127815    8.1147328 
C     5.0372784    2.5274717    7.3627399 
C     4.9779220    2.3306777    5.9743543 
C     3.7459921    2.1270536    5.3387414 
H    -3.0044712   -0.5025839    6.3228265 
H    -2.2500574   -1.6831321    8.3701328 
H    -2.5200243   -4.1630465    8.5703868 
H    -3.5972356   -5.4468059    6.7111057 
H    -4.3781910   -4.2574549    4.6637453 
H    -4.6589063   -2.3356498    3.4091630 
H    -5.4716728   -0.0287276    3.2930389 
H    -6.0332758   -0.7668391    4.8292288 
H    -4.6709733    0.3914680    4.8425767 
H    -2.3318872   -0.4618604    3.8714019 
H    -2.8166227   -4.1030920    2.5930504 
H    -4.0528010   -5.7863747    1.1972561 
H    -5.2989261   -5.0277940   -0.8348626 
H    -5.2176162   -2.6358209   -1.5299843 
H    -3.8694295    0.0861037    0.6113530 
H    -2.7897968   -0.5283409   -3.5744713 
H    -7.5906320   -0.4459188   -3.8483216 
H    -7.0402447   -1.6097407   -2.6208231 
H    -7.0822676    1.4693316   -2.2551365 
H    -8.1819325    0.3322289   -1.4428729 
H    -0.8405463    3.5862270   -5.1735270 
H    -2.5652630    5.3029191   -4.6560624 
H    -4.6297321    4.6369511   -3.3953987 
H    -4.8890444    2.3072155   -2.5851490 
H     0.2782533    0.0447371   -5.8283559 
H    -0.0750019    2.3927602   -7.0562584 
H    -0.3556858    1.0919282   -9.1420270 
H    -0.8633251   -0.3476958   -8.2170338 
H     0.8167008    0.2812770   -8.0627688 
H    -3.1070914    0.2481877   -6.2269960 
H    -5.3940314    0.9925238   -6.6941502 
H    -5.8086239    3.1122253   -7.9890292 
H    -3.8598897    4.4636507   -8.7935188 
H    -1.5378523    3.7149590   -8.3028440 
H    -3.4891283    2.4563971   -0.6494785 
H    -2.6766597    4.4318032    0.6095207 
H    -0.3895492    4.4063917    1.6400948 
H     1.0580693    2.4052714    1.4072116 
H     2.3851801   -0.1200286   -1.7127780 
H     1.0562505    1.5556097   -2.7297203 
H     0.9532077    3.9411808   -3.4190210 
H     2.2512926    5.6699651   -2.1340342 
H     3.6102868    4.9606769   -0.1694189 
H     5.4984703    3.3565111    0.0478085 
H     5.4447704    2.5110918    2.8923679 
H     5.4427850    4.9774980    2.7032837 
H     7.0049747    4.4410011    3.3863797 
H     6.9172374    4.9346735    1.6740664 
H     6.8836648    1.6477628   -0.2471654 
H     8.9272761    0.3015800   -0.5569342 
H    10.4987421   -0.0812709    1.3577686 
H     9.9947202    0.9395914    3.5889932 
H     7.9663165    2.3308531    3.8962892 
H     1.3534976    0.5104209    2.2482283 
H     5.7022592    0.2258608    2.1223375 
H     5.7958291   -1.4266511    2.7396555 
H     6.4781527   -1.2239637    0.2332996 
H     5.1053664   -2.3352629    0.4963083 
H     1.7041509   -3.0456601    1.1306544 
H     0.7384671   -5.0248934    2.3182408 
H    -0.5642624   -4.6744012    4.4429676 
H    -0.8354278   -2.3749257    5.3533209 
H     2.1071840    0.1483183    4.4379842 
H     0.4173479    1.8215240    6.1686517 
H    -0.1354525    2.8479678    3.9888419 
H     0.7917166    3.9957806    5.0102242 
H     1.6087990    3.1470895    3.6578748 
H     1.6995890    2.2775796    8.0738424 
H     3.8899002    2.6627483    9.1990824 
H     6.0013990    2.6880386    7.8570324 
H     5.9012286    2.3303328    5.3838873 
H     3.7070113    1.9791213    4.2540420 
