197
Energy =
C     1.2198164   -2.2137504   -2.2559104 
C     1.2176029   -3.1876251   -1.2281986 
C     0.0178535   -3.4842385   -0.5233463 
H     2.1653859   -3.6270677   -0.8958368 
Pd    0.5372686   -1.3205565   -0.2760509 
P    -1.0197551   -0.6473837    1.3105777 
P     0.8463570    0.9612200   -0.6000988 
H     0.2473515   -1.9775456   -2.7144409 
H    -0.9176469   -3.2724093   -1.0627906 
C     4.5800217   -1.1329949   -4.7202362 
C     4.8009226   -1.8181141   -3.5118430 
C     3.7227562   -2.1734311   -2.6962623 
C     2.3949879   -1.8426629   -3.0627612 
C     2.1919342   -1.1602101   -4.2835314 
C     3.2706201   -0.8110112   -5.1051608 
H     5.4260190   -0.8636450   -5.3614072 
H     5.8194756   -2.0825842   -3.2090807 
H     3.9163190   -2.7182282   -1.7667902 
H     1.1735732   -0.9089040   -4.5984549 
H     3.0803747   -0.2748919   -6.0393360 
C    -0.4239371   -6.6954823    2.3095227 
C     0.8615357   -6.2440095    1.9667631 
C     1.0260694   -5.1610580    1.0981623 
C    -0.0951632   -4.5195386    0.5236071 
C    -1.3816796   -4.9656876    0.9034739 
C    -1.5470482   -6.0362847    1.7892579 
H    -0.5461019   -7.5491072    2.9843699 
H     1.7439960   -6.7382854    2.3859858 
H     2.0385425   -4.8218394    0.8578285 
H    -2.2652590   -4.4817172    0.4776643 
H    -2.5572229   -6.3640742    2.0572766 
C    -3.3177215   -5.2018616   -4.6012871 
C    -3.8045851   -5.1215697   -5.9138943 
C    -5.1010789   -4.6440483   -6.1559161 
C    -5.9098635   -4.2539789   -5.0767945 
C    -5.4223049   -4.3416723   -3.7657193 
C    -4.1198500   -4.8132292   -3.5166709 
C    -3.5927723   -4.9084973   -2.0851661 
C    -4.2223082   -6.0821911   -1.3196435 
N    -3.8647775   -3.6570537   -1.3526325 
C    -3.5105090   -2.4536412   -1.8562418 
O    -2.8083576   -2.3473580   -2.8803647 
C    -4.1204616   -1.2507784   -1.1713219 
C    -5.1077462   -0.5557204   -1.8948906 
C    -5.7654583    0.5441357   -1.3324799 
C    -5.4499309    0.9450274   -0.0254604 
C    -4.4652425    0.2595940    0.6939906 
C    -3.7698984   -0.8252744    0.1287292 
C    -2.6833762   -1.5449081    0.8972564 
C    -1.2217936   -1.0131425    3.1703366 
N    -2.6228184   -1.3764249    3.3190575 
N    -3.1394514   -2.0666323    2.2032635 
C    -3.4789569   -0.8371172    4.2790925 
O    -3.1043165    0.0250425    5.0618990 
C    -4.8486868   -1.5082496    4.2755240 
C    -4.7442052   -2.9598573    3.7678890 
C    -4.1878811   -2.9435290    2.3520445 
O    -4.6679980   -3.5592605    1.3965346 
C    -0.2239828   -2.0375581    3.6727689 
C     1.1245035   -1.6402338    3.8395330 
C     2.0812212   -2.5808152    4.2546240 
C     1.6983578   -3.8882458    4.5752232 
C     0.3508389   -4.2586899    4.4819562 
C    -0.5996878   -3.3452563    4.0074927 
C     1.4897954   -0.2090972    3.5708797 
O     1.1468633    0.3256447    2.4861144 
N     2.1406797    0.5020494    4.5118127 
C     2.5115054    0.1134919    5.8863627 
C     3.0565596    1.3672651    6.5963469 
C     1.3509571   -0.4975537    6.6669283 
C     1.5758478   -1.6041833    7.5041878 
C     0.5330934   -2.1485955    8.2665721 
C    -0.7516887   -1.5903942    8.1966985 
C    -0.9865697   -0.4860043    7.3636237 
C     0.0598112    0.0576684    6.6056509 
C    -1.2211157    1.1843452    1.2624413 
C    -2.0494354    1.8815229    2.1603937 
C    -2.0756302    3.2827715    2.1679333 
C    -1.2498456    4.0025690    1.2959492 
C    -0.3816091    3.3182737    0.4357696 
C    -0.3630845    1.9135028    0.4064473 
C     0.8314137    1.5687193   -2.3874318 
C    -0.1557218    2.6909902   -2.6563226 
C     0.2520055    4.0287975   -2.7669551 
C    -0.6905818    5.0476244   -2.9622243 
C    -2.0557239    4.7369655   -3.0383573 
C    -2.4710685    3.4021362   -2.9567297 
C    -1.5300050    2.3758014   -2.7810529 
C    -1.9020870    0.9268061   -2.6924008 
O    -1.4745409    0.2646521   -1.7101544 
N    -2.5796646    0.2963426   -3.6716947 
C    -3.3460184    0.7814993   -4.8344460 
C    -3.6410748   -0.4416769   -5.7273268 
C    -2.6729091    1.8879866   -5.6363116 
C    -3.4651710    2.9080939   -6.1931442 
C    -2.8841525    3.9265410   -6.9613087 
C    -1.4973353    3.9396380   -7.1722599 
C    -0.7003830    2.9241840   -6.6224730 
C    -1.2873524    1.8988155   -5.8691653 
C     2.4824930    1.8813837   -0.2321876 
N     3.0441325    2.2239955   -1.5621230 
N     2.2256269    1.8875133   -2.6878892 
C     4.3658515    2.5770101   -1.7237433 
O     5.0403675    2.9766695   -0.7675359 
C     4.9312673    2.3781704   -3.1131332 
C     3.9404191    2.7935792   -4.2011121 
C     2.5750833    2.1711838   -4.0003202 
O     1.7783766    1.9444871   -4.9069665 
C     3.4364962    1.0467872    0.6071394 
C     3.8064048   -0.2236053    0.1321269 
C     4.6027688   -1.0796009    0.8988178 
C     5.0376938   -0.6735881    2.1697514 
C     4.6880313    0.5939870    2.6467505 
C     3.9047543    1.4700229    1.8712631 
C     3.6005614    2.8250578    2.4639688 
O     3.1367200    2.9438436    3.6149065 
N     3.8971668    3.8707719    1.6615154 
C     3.7101481    5.2723869    2.0461910 
C     2.7525615    5.9588579    1.0507158 
C     5.0407439    6.0137417    2.1512704 
C     5.2470935    6.9251749    3.2026679 
C     6.4402183    7.6565436    3.2935035 
C     7.4457900    7.4814815    2.3318294 
C     7.2501606    6.5721887    1.2813074 
C     6.0553823    5.8442278    1.1888478 
H    -2.2960021   -5.5541201   -4.4176225 
H    -3.1661419   -5.4240404   -6.7509025 
H    -5.4804298   -4.5761632   -7.1809933 
H    -6.9249789   -3.8836656   -5.2574106 
H    -6.0534779   -4.0252321   -2.9264336 
H    -2.4963881   -5.0505149   -2.1339245 
H    -3.8283018   -6.1476154   -0.2915598 
H    -5.3189393   -5.9691255   -1.2699837 
H    -3.9974960   -7.0252655   -1.8422288 
H    -4.3677848   -3.6782118   -0.4512739 
H    -5.3721234   -0.9035372   -2.8989540 
H    -6.5367172    1.0719398   -1.9029470 
H    -5.9705554    1.7908038    0.4350230 
H    -4.2319088    0.5741376    1.7135494 
H    -2.3455202   -2.4078755    0.3101716 
H    -1.0809743   -0.0583253    3.7001771 
H    -5.2424545   -1.4489829    5.3015377 
H    -5.5301002   -0.9232403    3.6284230 
H    -4.0717392   -3.5428192    4.4257791 
H    -5.7189267   -3.4679545    3.7387508 
H     3.1285744   -2.2764900    4.3427365 
H     2.4469975   -4.6109862    4.9152867 
H     0.0365264   -5.2678773    4.7605010 
H    -1.6442359   -3.6507194    3.9058902 
H     2.4183657    1.4637558    4.2076165 
H     3.3279755   -0.6324717    5.8473348 
H     3.9047797    1.7999664    6.0393525 
H     3.3877390    1.1002438    7.6123609 
H     2.2691457    2.1358820    6.6764968 
H     2.5761750   -2.0511297    7.5503258 
H     0.7237410   -3.0139508    8.9105540 
H    -1.5688511   -2.0161488    8.7891110 
H    -1.9869075   -0.0512880    7.2862667 
H    -0.1338739    0.9155904    5.9514585 
H    -2.6567004    1.3458304    2.8957915 
H    -2.7287231    3.8067875    2.8728738 
H    -1.2581636    5.0971512    1.2989356 
H     0.2817166    3.8924489   -0.2152304 
H     0.5682553    0.6865955   -2.9883502 
H     1.3161783    4.2783041   -2.6960075 
H    -0.3570866    6.0863804   -3.0528156 
H    -2.7946433    5.5310792   -3.1830612 
H    -3.5328981    3.1518778   -3.0369276 
H    -2.6841300   -0.7216118   -3.4527768 
H    -4.3151919    1.1745792   -4.4647906 
H    -4.2826698   -0.1385600   -6.5698254 
H    -2.7003801   -0.8486864   -6.1353509 
H    -4.1470077   -1.2439380   -5.1617336 
H    -4.5473690    2.9114766   -6.0129939 
H    -3.5139367    4.7157818   -7.3859433 
H    -1.0387011    4.7420695   -7.7600522 
H     0.3849159    2.9265541   -6.7564985 
H    -0.6463618    1.1297240   -5.4273600 
H     2.2120179    2.8074890    0.2961626 
H     5.8790786    2.9318867   -3.1732195 
H     5.1576250    1.2972846   -3.2077312 
H     3.7955702    3.8919655   -4.1985217 
H     4.2874822    2.5173697   -5.2081416 
H     3.4629012   -0.5384772   -0.8587253 
H     4.8824949   -2.0637797    0.5080148 
H     5.6600725   -1.3364216    2.7800015 
H     5.0341546    0.9317059    3.6284216 
H     4.3685993    3.6435422    0.7683545 
H     3.2399370    5.2430872    3.0425187 
H     1.7690398    5.4570045    1.0561458 
H     2.6113464    7.0180227    1.3230478 
H     3.1675364    5.9229967    0.0272272 
H     4.4667488    7.0597848    3.9611895 
H     6.5867000    8.3589160    4.1210934 
H     8.3803463    8.0479555    2.4029852 
H     8.0335952    6.4259155    0.5297521 
H     5.9265128    5.1319892    0.3654725 
