197
Energy =
C     0.9536848   -2.5157250   -2.6485959 
C     1.5211323   -3.4723904   -1.7752795 
C     0.6854120   -4.1936106   -0.8772451 
H     2.6103983   -3.5819968   -1.7147617 
Pd    0.4927732   -2.0166203   -0.4766574 
P    -0.7723788   -2.1037578    1.4566578 
P     0.0166459    0.2457048   -0.4472671 
H    -0.1289196   -2.5994131   -2.8203595 
H    -0.3608044   -4.3170097   -1.1933842 
C     3.0091182   -0.5852397   -5.8931356 
C     1.6074036   -0.6400721   -5.8556364 
C     0.9580527   -1.2281683   -4.7642874 
C     1.6924544   -1.7902479   -3.6944338 
C     3.1053234   -1.7120654   -3.7397134 
C     3.7541309   -1.1136841   -4.8246133 
H     3.5208741   -0.1275274   -6.7460878 
H     1.0119927   -0.2090695   -6.6663841 
H    -0.1355504   -1.2594851   -4.7431069 
H     3.7054191   -2.1361505   -2.9281762 
H     4.8479336   -1.0669977   -4.8431588 
C     2.0879273   -7.3999292    1.6195359 
C     0.7290874   -7.2870319    1.2896263 
C     0.2821307   -6.2104181    0.5133493 
C     1.1833247   -5.2235551    0.0541430 
C     2.5405418   -5.3223499    0.4368863 
C     2.9877345   -6.4059247    1.1985377 
H     2.4450975   -8.2508782    2.2091132 
H     0.0140925   -8.0501054    1.6165765 
H    -0.7729259   -6.1496478    0.2314717 
H     3.2528793   -4.5453146    0.1406137 
H     4.0445870   -6.4717890    1.4764751 
C    -1.0812641   -4.6564885   -4.3999084 
C    -0.0263560   -5.5745234   -4.2730286 
C    -0.1058404   -6.6198276   -3.3443213 
C    -1.2465687   -6.7354791   -2.5346608 
C    -2.2897138   -5.8076296   -2.6471240 
C    -2.2254784   -4.7587037   -3.5886720 
C    -3.4278087   -3.8189787   -3.7580593 
C    -3.1565610   -2.5302461   -4.5516679 
N    -4.0504886   -3.5095059   -2.4537572 
C    -3.4100125   -2.8372209   -1.4629929 
O    -2.2390382   -2.4296651   -1.5842663 
C    -4.2080979   -2.5875511   -0.2153260 
C    -5.5391651   -2.1338351   -0.3155759 
C    -6.2979465   -1.8697714    0.8304929 
C    -5.7327590   -2.0900870    2.0942982 
C    -4.4169339   -2.5560625    2.2003300 
C    -3.6283417   -2.7946584    1.0604646 
C    -2.2210235   -3.3422424    1.2034963 
C    -0.4193266   -2.7441469    3.2227639 
N    -1.5111022   -3.6852807    3.4852528 
N    -2.0745939   -4.2626721    2.3269891 
C    -1.8632368   -4.1135770    4.7589002 
O    -1.3564219   -3.6169901    5.7563533 
C    -2.8467952   -5.2790562    4.7513155 
C    -2.5010250   -6.2697411    3.6245690 
C    -2.5462963   -5.5629800    2.2782423 
O    -3.0067851   -6.0246098    1.2374960 
C     0.9739965   -3.2934206    3.4802354 
C     2.0564541   -2.3887928    3.5894804 
C     3.3342730   -2.8632669    3.9370244 
C     3.5424079   -4.2233608    4.1984969 
C     2.4673436   -5.1157685    4.1021490 
C     1.1966807   -4.6522936    3.7360987 
C     1.8770970   -0.9377327    3.2471286 
O     1.3445442   -0.6286058    2.1555064 
N     2.3572060   -0.0060895    4.0949671 
C     2.3456753   -0.1174421    5.5706245 
C     3.4549910    0.7623980    6.1577966 
C     0.9312309    0.2323591    6.0396220 
C     0.4517846    1.5570810    5.9880305 
C    -0.8762313    1.8428523    6.3318397 
C    -1.7469442    0.8102492    6.7185004 
C    -1.2837003   -0.5128058    6.7506043 
C     0.0496803   -0.7972185    6.4155341 
C    -1.4808176   -0.4388261    1.8013629 
C    -2.2836859   -0.1712945    2.9253688 
C    -2.6821195    1.1398096    3.2146679 
C    -2.2672719    2.1991871    2.3956171 
C    -1.4537724    1.9499763    1.2843577 
C    -1.0646072    0.6332568    0.9790893 
C    -0.8445207    0.9741402   -1.9859442 
C    -2.1727351    1.6670118   -1.7128759 
C    -3.2470368    0.8085557   -1.4071311 
C    -4.5180739    1.3014172   -1.0997452 
C    -4.7539606    2.6825681   -1.1193609 
C    -3.7035697    3.5473933   -1.4400869 
C    -2.4083979    3.0584564   -1.7211152 
C    -1.3245763    4.0860070   -1.9038542 
O    -0.3348437    4.1348278   -1.1554233 
N    -1.5781351    4.9958564   -2.8842644 
C    -0.7891235    6.2017813   -3.1357800 
C    -1.6417604    7.4534944   -2.8453629 
C    -0.1904589    6.2112727   -4.5450949 
C    -0.5151346    5.2402926   -5.5109027 
C     0.0640486    5.2808542   -6.7895882 
C     0.9801876    6.2876841   -7.1203409 
C     1.3155842    7.2574389   -6.1620618 
C     0.7328005    7.2199512   -4.8894158 
C     1.3228996    1.6082857   -0.4594037 
N     1.3762779    2.0385920   -1.8638676 
N     0.2153744    1.7306216   -2.6441759 
C     2.1702794    3.1211630   -2.2069055 
O     2.9696267    3.6065659   -1.4053658 
C     2.0198110    3.5999390   -3.6308552 
C     1.5012307    2.5000161   -4.5587062 
C     0.2274261    1.8779033   -4.0231940 
O    -0.7455755    1.5341593   -4.6912215 
C     2.6636573    1.1288343    0.0598036 
C     3.3101357    0.0772038   -0.6124701 
C     4.4795770   -0.4932685   -0.1015100 
C     5.0135593   -0.0214304    1.1077634 
C     4.3867071    1.0357795    1.7757581 
C     3.2235106    1.6341107    1.2539985 
C     2.6319041    2.7756407    2.0461056 
O     2.4019761    2.6590426    3.2702895 
N     2.4188459    3.9219615    1.3702124 
C     1.8992783    5.1344373    2.0315723 
C     0.3740774    5.0349334    2.2377639 
C     2.3031728    6.3672525    1.2360448 
C     1.9178573    6.5095333   -0.1124166 
C     2.2897200    7.6483907   -0.8387571 
C     3.0351539    8.6684633   -0.2275522 
C     3.4135566    8.5385173    1.1161895 
C     3.0534516    7.3915740    1.8398996 
H    -0.9943469   -3.8545338   -5.1382421 
H     0.8607339   -5.4644053   -4.9056209 
H     0.7147183   -7.3377356   -3.2459731 
H    -1.3225290   -7.5476480   -1.8050036 
H    -3.1569914   -5.8987303   -1.9837924 
H    -4.2041071   -4.3891653   -4.3004523 
H    -4.0738190   -1.9202451   -4.5919147 
H    -2.3625870   -1.9330959   -4.0768148 
H    -2.8598815   -2.7652134   -5.5864686 
H    -4.9631243   -3.9091273   -2.2449881 
H    -5.9730958   -1.9659887   -1.3075950 
H    -7.3248439   -1.5025215    0.7374858 
H    -6.3186215   -1.9051434    3.0003611 
H    -3.9961074   -2.7565516    3.1898866 
H    -1.9532952   -3.8997409    0.2966398 
H    -0.5647726   -1.8758999    3.8877901 
H    -2.8064800   -5.7434392    5.7474789 
H    -3.8724692   -4.8880324    4.6059247 
H    -1.4883322   -6.6908657    3.7752168 
H    -3.2054068   -7.1134491    3.5780187 
H     4.1618124   -2.1488257    4.0008158 
H     4.5375419   -4.5829407    4.4794663 
H     2.6129072   -6.1799855    4.3081973 
H     0.3680264   -5.3598098    3.6589268 
H     2.2879621    0.9786820    3.7481554 
H     2.5381373   -1.1704158    5.8324599 
H     4.4421875    0.3972502    5.8261908 
H     3.4182109    0.7402655    7.2592172 
H     3.3501322    1.8081612    5.8228549 
H     1.1094153    2.3661013    5.6526243 
H    -1.2345191    2.8776501    6.2937005 
H    -2.7831081    1.0387925    6.9929897 
H    -1.9467796   -1.3359529    7.0347331 
H     0.3914613   -1.8378552    6.4336627 
H    -2.5774515   -0.9760487    3.6047738 
H    -3.2952168    1.3322317    4.0996124 
H    -2.5605830    3.2271759    2.6300047 
H    -1.1158431    2.7818830    0.6581043 
H    -1.0667917    0.1071777   -2.6309891 
H    -3.0612950   -0.2688228   -1.3905975 
H    -5.3200510    0.6043064   -0.8395847 
H    -5.7436780    3.0849221   -0.8811492 
H    -3.8705146    4.6304300   -1.4394463 
H    -2.4207407    4.8534819   -3.4405829 
H     0.0336737    6.1602735   -2.4018216 
H    -2.0035148    7.4318084   -1.8035426 
H    -1.0477251    8.3707531   -2.9873377 
H    -2.5080762    7.5011331   -3.5287496 
H    -1.1946448    4.4174190   -5.2668058 
H    -0.2032411    4.5140898   -7.5247619 
H     1.4332853    6.3177458   -8.1166702 
H     2.0355644    8.0456161   -6.4061789 
H     1.0071228    7.9820889   -4.1510126 
H     0.9228529    2.4354385    0.1491499 
H     1.3218554    4.4550088   -3.6187866 
H     2.9959480    3.9934682   -3.9527041 
H     1.2947330    2.8760052   -5.5705416 
H     2.2499145    1.6900799   -4.6409356 
H     2.8796604   -0.2919731   -1.5490358 
H     4.9710928   -1.3101821   -0.6410764 
H     5.9232126   -0.4678949    1.5227245 
H     4.7965221    1.4194112    2.7150647 
H     2.6866089    3.9468080    0.3713131 
H     2.3758338    5.1710686    3.0266712 
H     0.1399075    4.1335019    2.8287201 
H     0.0111905    5.9227767    2.7830934 
H    -0.1427599    4.9795799    1.2649577 
H     1.3304467    5.7203978   -0.5939493 
H     2.0032629    7.7380615   -1.8927454 
H     3.3238203    9.5584847   -0.7969295 
H     3.9976035    9.3276510    1.6016781 
H     3.3613938    7.2895829    2.8870759 
