197
Energy =
C    -1.7947408   -3.4437388   -2.6651518 
C    -0.3773380   -3.3961467   -2.7720579 
C     0.4418401   -3.6308428   -1.6341183 
H     0.0861917   -3.0395466   -3.7003760 
Pd   -0.9049836   -1.8883255   -1.3157878 
P     0.2514932   -0.3729881    0.0576240 
P    -2.6027275   -0.3136180   -1.2368802 
H    -2.2290138   -4.0690888   -1.8703100 
H     0.0289170   -4.2843824   -0.8512333 
C    -4.4122681   -2.6706245   -5.9989251 
C    -4.8091844   -3.5278153   -4.9626113 
C    -3.9567864   -3.7659945   -3.8763810 
C    -2.6870480   -3.1528189   -3.8049604 
C    -2.2963778   -2.2991066   -4.8644011 
C    -3.1491826   -2.0607110   -5.9459726 
H    -5.0873465   -2.4642060   -6.8345638 
H    -5.7882672   -4.0176400   -5.0012293 
H    -4.2642531   -4.4475039   -3.0778999 
H    -1.3270972   -1.7957062   -4.8130450 
H    -2.8389541   -1.3734207   -6.7395056 
C     4.7283853   -3.6202918   -2.0038001 
C     4.0820034   -4.6008138   -1.2345778 
C     2.6905004   -4.5618220   -1.0731758 
C     1.9177929   -3.5650032   -1.7100602 
C     2.5828169   -2.5751235   -2.4693588 
C     3.9752365   -2.5968772   -2.6031309 
H     5.8167560   -3.6435804   -2.1230006 
H     4.6619600   -5.3963826   -0.7552084 
H     2.1900462   -5.3334898   -0.4773740 
H     2.0033601   -1.7802605   -2.9547369 
H     4.4677586   -1.8040963   -3.1715074 
C    -3.6427554   -1.1978089    6.0854471 
C    -3.1573424   -1.7205489    7.2923584 
C    -3.2600615   -3.0949464    7.5608488 
C    -3.8587667   -3.9429022    6.6171717 
C    -4.3419291   -3.4174625    5.4093216 
C    -4.2354601   -2.0434241    5.1270782 
C    -4.6600034   -1.5078993    3.7614493 
C    -5.5451359   -0.2512041    3.8048731 
N    -3.4376358   -1.2385076    2.9823921 
C    -3.0704867   -1.7728170    1.8111800 
O    -1.9877452   -1.4625188    1.2618863 
C    -3.9875486   -2.6842267    1.0437984 
C    -4.1869145   -4.0306375    1.3851835 
C    -4.9774364   -4.8511723    0.5657083 
C    -5.5707861   -4.3207978   -0.5890302 
C    -5.3593955   -2.9783227   -0.9397386 
C    -4.5617069   -2.1540608   -0.1358139 
C    -4.3052304   -0.6928584   -0.4516040 
C    -3.3856402    0.2953588   -2.8670580 
N    -4.8151462    0.0181349   -2.6997969 
N    -5.2559524   -0.0722769   -1.3604107 
C    -5.6997472    0.0161385   -3.7684614 
O    -5.2982340    0.1621285   -4.9156839 
C    -7.1569914   -0.0906288   -3.3365369 
C    -7.4105724    0.7863246   -2.0959343 
C    -6.5086102    0.3593079   -0.9436468 
O    -6.8260642    0.3133145    0.2385550 
C    -3.0805685    1.7205515   -3.2970569 
C    -1.9201608    2.0267927   -4.0500027 
C    -1.6862209    3.3531879   -4.4670824 
C    -2.5794842    4.3807899   -4.1433952 
C    -3.7386815    4.0763491   -3.4177591 
C    -3.9828919    2.7591668   -3.0117856 
C    -0.9155039    0.9617718   -4.3831383 
O    -0.5210465    0.1386743   -3.5378266 
N    -0.4373044    0.9762763   -5.6565889 
C     0.6360911    0.0954622   -6.1326928 
C     0.6456841    0.1323725   -7.6699215 
C     2.0022152    0.4346399   -5.5275603 
C     3.0748675   -0.4537657   -5.7355594 
C     4.3441793   -0.1773959   -5.2084416 
C     4.5511573    0.9694681   -4.4273560 
C     3.4870452    1.8529245   -4.2065151 
C     2.2297237    1.5966850   -4.7716362 
C    -2.0939874    1.1221647   -0.2143380 
C    -2.9737216    2.1827984    0.0725150 
C    -2.6116288    3.1710720    0.9957842 
C    -1.3794899    3.0895155    1.6590005 
C    -0.5044862    2.0281297    1.3998168 
C    -0.8507282    1.0448811    0.4551123 
C     1.8344544    0.4215745   -0.6520195 
C     1.8028614    1.9459439   -0.6561114 
C     0.9898549    2.5220296   -1.6508773 
C     0.8012399    3.9040559   -1.7382520 
C     1.4481060    4.7525092   -0.8298274 
C     2.2689660    4.1981203    0.1573248 
C     2.4495610    2.8025222    0.2622830 
C     3.1833752    2.2990782    1.4782117 
O     2.5707688    1.6727356    2.3591005 
N     4.5015081    2.6029756    1.6157436 
C     5.3548113    3.3545002    0.6836506 
C     6.7820985    2.7784371    0.7129533 
C     5.3652342    4.8556310    0.9733724 
C     5.2253624    5.3564569    2.2804090 
C     5.2650727    6.7376830    2.5229850 
C     5.4451770    7.6357253    1.4606433 
C     5.5854597    7.1442516    0.1535831 
C     5.5453269    5.7638959   -0.0863247 
C     1.1600811   -0.8016090    1.6726192 
N     2.5269447   -1.0558761    1.1920314 
N     2.9179187   -0.2187662    0.0999727 
C     3.4511893   -1.8343405    1.8673840 
O     3.1860810   -2.3761514    2.9399314 
C     4.7890268   -1.9755679    1.1758174 
C     5.2729182   -0.6293168    0.6419286 
C     4.2346568    0.0248297   -0.2464306 
O     4.4973924    0.7488603   -1.2075865 
C     0.5383842   -1.9455008    2.4383623 
C     0.5495889   -3.2505978    1.9189588 
C    -0.1060385   -4.2918876    2.5782897 
C    -0.7920249   -4.0384113    3.7775801 
C    -0.8053018   -2.7446669    4.3102608 
C    -0.1368033   -1.6942968    3.6526504 
C    -0.2878807   -0.3001341    4.2141211 
O    -1.3786470    0.3005753    4.1357086 
N     0.7879382    0.2807475    4.8023644 
C     2.0399174   -0.3805896    5.2124888 
C     1.9055434   -0.9414996    6.6443651 
C     3.2430547    0.5513964    5.0936232 
C     4.4793568    0.0188416    4.6823900 
C     5.6175346    0.8332444    4.5869753 
C     5.5385836    2.1986355    4.9090482 
C     4.3124823    2.7349239    5.3352162 
C     3.1794027    1.9155684    5.4303062 
H    -3.5275266   -0.1292078    5.8782158 
H    -2.6937924   -1.0521254    8.0259576 
H    -2.8798217   -3.5019283    8.5036804 
H    -3.9517863   -5.0148466    6.8223036 
H    -4.8057521   -4.0843563    4.6727705 
H    -5.2104678   -2.3023705    3.2321583 
H    -5.8859065    0.0044345    2.7868830 
H    -6.4289055   -0.4318253    4.4395859 
H    -4.9921345    0.6104123    4.2173434 
H    -2.7155956   -0.6099969    3.4098542 
H    -3.7179938   -4.4297822    2.2904892 
H    -5.1382402   -5.9002464    0.8344235 
H    -6.2022870   -4.9540837   -1.2210339 
H    -5.8189788   -2.5674402   -1.8431453 
H    -4.3362775   -0.1196307    0.4893736 
H    -3.0094406   -0.4067879   -3.6285314 
H    -7.7771449    0.2089839   -4.1939433 
H    -7.3895901   -1.1485847   -3.1072815 
H    -7.2155858    1.8500357   -2.3340737 
H    -8.4489769    0.7185119   -1.7387749 
H    -0.7778375    3.5840216   -5.0349126 
H    -2.3758176    5.4076538   -4.4624874 
H    -4.4593918    4.8629362   -3.1724670 
H    -4.9077527    2.5268281   -2.4756345 
H    -0.8470740    1.6357730   -6.3164188 
H     0.3810263   -0.9286760   -5.8011481 
H     1.4173802   -0.5465270   -8.0641228 
H     0.8786235    1.1501270   -8.0307337 
H    -0.3325115   -0.1813780   -8.0750070 
H     2.9199412   -1.3729077   -6.3134391 
H     5.1700297   -0.8722188   -5.3964117 
H     5.5268319    1.1625473   -3.9724601 
H     3.6271405    2.7375088   -3.5777983 
H     1.4136747    2.3047338   -4.6017124 
H    -3.9562915    2.2258792   -0.4041684 
H    -3.3023681    3.9931753    1.2090663 
H    -1.0979502    3.8498487    2.3941521 
H     0.4521876    1.9751938    1.9298188 
H     1.8990950    0.0930907   -1.7031806 
H     0.4741892    1.8553809   -2.3462071 
H     0.1399918    4.3120710   -2.5089946 
H     1.3126550    5.8375910   -0.8810103 
H     2.7669014    4.8520482    0.8793552 
H     4.8912856    2.3351686    2.5267501 
H     4.9381592    3.1868993   -0.3239351 
H     6.7857199    1.7374517    0.3540281 
H     7.4375492    3.3756743    0.0589366 
H     7.1988964    2.8189515    1.7353916 
H     5.0669197    4.6641043    3.1143506 
H     5.1530110    7.1135396    3.5458458 
H     5.4731845    8.7140161    1.6494490 
H     5.7204569    7.8388280   -0.6825304 
H     5.6434031    5.3850337   -1.1108259 
H     1.1732492    0.1240162    2.2703217 
H     5.4871713   -2.4129072    1.9038363 
H     4.6655701   -2.6917474    0.3446900 
H     5.4708899    0.0660117    1.4787429 
H     6.1978204   -0.7215130    0.0530585 
H     1.1019375   -3.4383429    0.9949868 
H    -0.0802897   -5.3045456    2.1614663 
H    -1.3128958   -4.8446939    4.3042356 
H    -1.3465188   -2.5406203    5.2390077 
H     0.5926764    1.2141741    5.1699206 
H     2.1952009   -1.2213672    4.5167351 
H     1.0647559   -1.6550896    6.6943134 
H     2.8313070   -1.4653699    6.9350025 
H     1.7271040   -0.1276814    7.3696838 
H     4.5403618   -1.0432099    4.4245945 
H     6.5714145    0.3995455    4.2660830 
H     6.4270952    2.8364794    4.8437349 
H     4.2395152    3.7954271    5.5995301 
H     2.2367945    2.3651316    5.7636469 
