197
Energy =
C    -1.9259997   -3.2628913   -2.8443646 
C    -0.5139921   -3.3134411   -3.0046051 
C     0.3465562   -3.6276588   -1.9215557 
H    -0.0755305   -2.9639727   -3.9476847 
Pd   -0.8912927   -1.8102062   -1.4757021 
P     0.4322297   -0.3954121   -0.1607705 
P    -2.5080239   -0.1601819   -1.2266201 
H    -2.3831484   -3.8808223   -2.0569140 
H    -0.0643143   -4.2589227   -1.1200703 
C    -4.5195122   -2.2028071   -6.1180528 
C    -4.9556155   -3.0855368   -5.1200202 
C    -4.1153635   -3.4114755   -4.0479912 
C    -2.8157500   -2.8660877   -3.9547054 
C    -2.3890022   -1.9780586   -4.9721339 
C    -3.2317668   -1.6515064   -6.0391353 
H    -5.1868606   -1.9282631   -6.9399357 
H    -5.9582529   -3.5223116   -5.1762952 
H    -4.4526910   -4.1167128   -3.2826401 
H    -1.4000636   -1.5162610   -4.9019010 
H    -2.8894225   -0.9434734   -6.8008476 
C     4.6322878   -3.6956291   -2.3507889 
C     3.8719890   -2.7551718   -3.0661429 
C     2.4828692   -2.7180461   -2.9163892 
C     1.8189252   -3.6198891   -2.0526905 
C     2.5971368   -4.5549735   -1.3344878 
C     3.9902107   -4.5945403   -1.4857119 
H     5.7203255   -3.7256829   -2.4693138 
H     4.3700515   -2.0350466   -3.7213938 
H     1.8951224   -1.9706110   -3.4614598 
H     2.1029378   -5.2737436   -0.6714548 
H     4.5739801   -5.3388429   -0.9337065 
C    -2.9125590   -1.7764857    6.3279274 
C    -2.3033873   -2.4102331    7.4194639 
C    -2.3728122   -3.8064118    7.5529363 
C    -3.0598155   -4.5639224    6.5924035 
C    -3.6598226   -3.9270121    5.4950367 
C    -3.5864904   -2.5300618    5.3460616 
C    -4.1394201   -1.8617805    4.0902883 
C    -5.1131609   -0.7011963    4.3605269 
N    -3.0018578   -1.3806707    3.2827336 
C    -2.7313833   -1.6225733    1.9943827 
O    -1.7857922   -1.0465601    1.4009207 
C    -3.5862126   -2.5569479    1.1881597 
C    -3.6570261   -3.9341259    1.4566592 
C    -4.4001835   -4.7764335    0.6171107 
C    -5.0855764   -4.2366209   -0.4816394 
C    -5.0051945   -2.8636100   -0.7586211 
C    -4.2468914   -2.0164610    0.0623365 
C    -4.0893681   -0.5354435   -0.2261287 
C    -3.5145564    0.4295907   -2.7440726 
N    -4.8976713    0.0931035   -2.3999279 
N    -5.1632410    0.0494924   -1.0131222 
C    -5.9078865    0.0344020   -3.3499766 
O    -5.6585255    0.1728509   -4.5404126 
C    -7.2955251   -0.1309827   -2.7426609 
C    -7.4441813    0.7552912   -1.4921686 
C    -6.3875475    0.3941760   -0.4547813 
O    -6.5618881    0.3330185    0.7558297 
C    -3.3322706    1.8699962   -3.1927303 
C    -2.2280366    2.2465923   -3.9946721 
C    -2.0909254    3.5838349   -4.4195068 
C    -3.0380800    4.5516590   -4.0674526 
C    -4.1466386    4.1758057   -3.2972047 
C    -4.2877607    2.8487521   -2.8729866 
C    -1.1580859    1.2549052   -4.3247350 
O    -0.7338459    0.4508962   -3.4714674 
N    -0.6444243    1.3023311   -5.5830395 
C     0.6274106    0.6498064   -5.9432204 
C     0.6336006    0.3159535   -7.4411012 
C     1.8121976    1.5171049   -5.5140674 
C     1.8672000    2.8810603   -5.8625108 
C     2.9422333    3.6803255   -5.4521082 
C     3.9788985    3.1245132   -4.6860274 
C     3.9378283    1.7689912   -4.3349210 
C     2.8593637    0.9737044   -4.7513178 
C    -1.8043412    1.2779343   -0.3321857 
C    -2.5694831    2.4171144   -0.0233269 
C    -2.0405044    3.4218386    0.7970928 
C    -0.7570700    3.2788749    1.3429820 
C     0.0027915    2.1347441    1.0690814 
C    -0.5090810    1.1375615    0.2194560 
C     2.0661281    0.2023277   -0.9519828 
C     2.2011343    1.7185104   -1.0445532 
C     1.4101090    2.3268712   -2.0366881 
C     1.3580913    3.7137670   -2.1900455 
C     2.1182653    4.5347229   -1.3469815 
C     2.9323603    3.9466027   -0.3746085 
C     2.9855900    2.5450112   -0.2131023 
C     3.8051517    2.0251713    0.9378393 
O     3.2661829    1.5107199    1.9309544 
N     5.1575056    2.2029398    0.8578444 
C     5.9177777    2.7726316   -0.2700347 
C     7.2621407    2.0386842   -0.4211744 
C     6.1241930    4.2820957   -0.1489993 
C     6.1941643    5.0615822   -1.3185091 
C     6.4069989    6.4447152   -1.2461694 
C     6.5527642    7.0689679    0.0023015 
C     6.4856559    6.3004147    1.1736689 
C     6.2733546    4.9156354    1.0973820 
C     1.3261931   -0.8502297    1.4507655 
N     2.7085426   -1.1045907    1.0271775 
N     3.1018225   -0.5284857   -0.2182487 
C     3.6283358   -1.6611311    1.8937902 
O     3.3752177   -1.8191490    3.0894437 
C     4.8855722   -2.1728886    1.2247568 
C     5.4440609   -1.1759495    0.2100607 
C     4.3990821   -0.5371244   -0.6844349 
O     4.6740730    0.0135017   -1.7535516 
C     0.7535352   -2.0640032    2.1595102 
C     0.7798310   -3.3112264    1.5178427 
C     0.2191938   -4.4433407    2.1181005 
C    -0.3767889   -4.3366688    3.3846383 
C    -0.3888178   -3.1017254    4.0443880 
C     0.1824089   -1.9661230    3.4431480 
C     0.1740015   -0.6729877    4.2156188 
O    -0.8798278   -0.0966131    4.5485585 
N     1.3975120   -0.2107402    4.5509363 
C     1.5602472    0.9641376    5.4186914 
C     3.0330754    1.3976095    5.4053397 
C     1.0372488    0.6604178    6.8234646 
C     0.0923519    1.5007925    7.4347087 
C    -0.3859329    1.2216112    8.7235904 
C     0.0754062    0.0915923    9.4152074 
C     1.0141155   -0.7585711    8.8084627 
C     1.4893208   -0.4755499    7.5210030 
H    -2.8173416   -0.6913093    6.2250924 
H    -1.7592054   -1.8091226    8.1553081 
H    -1.8937321   -4.3018407    8.4041351 
H    -3.1268203   -5.6525393    6.6950868 
H    -4.1869696   -4.5234713    4.7406444 
H    -4.6670048   -2.6221394    3.4933895 
H    -5.5146677   -0.3163667    3.4070687 
H    -5.9518316   -1.0500730    4.9864493 
H    -4.6076803    0.1250524    4.8894003 
H    -2.2879952   -0.7836015    3.7690823 
H    -3.1197049   -4.3378400    2.3206849 
H    -4.4550663   -5.8495021    0.8272958 
H    -5.6864955   -4.8871652   -1.1260180 
H    -5.5318815   -2.4478892   -1.6221202 
H    -4.0230335    0.0316973    0.7146800 
H    -3.2120732   -0.2476496   -3.5599844 
H    -8.0272043    0.1215072   -3.5239441 
H    -7.4470145   -1.1939114   -2.4719512 
H    -7.3382034    1.8232602   -1.7648413 
H    -8.4263567    0.6389818   -1.0104752 
H    -1.2125789    3.8720733   -5.0078496 
H    -2.9130859    5.5887727   -4.3936538 
H    -4.9064290    4.9156768   -3.0257519 
H    -5.1658869    2.5643099   -2.2862128 
H    -1.0580436    1.9555569   -6.2468643 
H     0.6606361   -0.2845503   -5.3585279 
H     1.5753310   -0.1900881   -7.7071200 
H     0.5644691    1.2342320   -8.0519823 
H    -0.2109923   -0.3468802   -7.6977287 
H     1.0631912    3.3284891   -6.4597895 
H     2.9697876    4.7397875   -5.7283363 
H     4.8130548    3.7532037   -4.3573965 
H     4.7173703    1.3245127   -3.7117456 
H     2.8274229   -0.0814850   -4.4600504 
H    -3.5879143    2.5150618   -0.4065622 
H    -2.6419841    4.3078884    1.0241093 
H    -0.3453927    4.0544502    1.9964760 
H     0.9973533    2.0272496    1.5158289 
H     2.0582879   -0.1874823   -1.9822655 
H     0.8103393    1.6863002   -2.6842372 
H     0.7234272    4.1469248   -2.9688364 
H     2.0882466    5.6244336   -1.4461361 
H     3.5343789    4.5785967    0.2847518 
H     5.6673942    1.9522048    1.7076778 
H     5.3170443    2.5721872   -1.1726079 
H     7.0983115    0.9828869   -0.6888403 
H     7.8517246    2.5118317   -1.2228459 
H     7.8545007    2.1026857    0.5096891 
H     6.0678643    4.5789490   -2.2948694 
H     6.4529990    7.0382213   -2.1656092 
H     6.7155047    8.1501596    0.0618751 
H     6.5974406    6.7799423    2.1519628 
H     6.2070650    4.3294458    2.0208327 
H     1.2930715    0.0486400    2.0869090 
H     5.6154892   -2.4146589    2.0104538 
H     4.6037208   -3.1130815    0.7137122 
H     5.9381897   -0.3375870    0.7327512 
H     6.1979541   -1.6337281   -0.4488938 
H     1.2694234   -3.3816667    0.5446931 
H     0.2514073   -5.4095969    1.6023103 
H    -0.8180346   -5.2132435    3.8702420 
H    -0.8318960   -3.0132462    5.0403450 
H     2.2156794   -0.7418096    4.2148362 
H     0.9342713    1.7695658    4.9931705 
H     3.3609276    1.6017309    4.3720475 
H     3.1592941    2.3051460    6.0177537 
H     3.6745082    0.6070710    5.8341308 
H    -0.2839578    2.3731881    6.8881524 
H    -1.1252560    1.8843688    9.1863385 
H    -0.2973299   -0.1283161   10.4214174 
H     1.3751060   -1.6459284    9.3399103 
H     2.2085083   -1.1529207    7.0454321 
