197
Energy =
C    -0.8643968   -3.6249790   -2.2528378 
C     0.4579225   -3.2962339   -2.6426182 
C     1.5524113   -3.4511911   -1.7438500 
H     0.6266663   -2.7823960   -3.5971834 
Pd    0.0483439   -2.0447353   -0.9181096 
P     1.3750546   -0.7804805    0.4926496 
P    -1.6441349   -0.5474653   -0.3062165 
H    -0.9871785   -4.3668979   -1.4492707 
H     1.4844897   -4.2353458   -0.9747091 
C    -4.2136622   -3.2700639   -4.9340568 
C    -4.1951245   -4.2651802   -3.9444737 
C    -3.1094185   -4.3578584   -3.0642898 
C    -2.0222398   -3.4571903   -3.1532489 
C    -2.0622227   -2.4562482   -4.1515447 
C    -3.1430388   -2.3667049   -5.0338918 
H    -5.0566621   -3.1961760   -5.6290287 
H    -5.0206543   -4.9804692   -3.8648179 
H    -3.0852860   -5.1565434   -2.3148600 
H    -1.2399766   -1.7380176   -4.2393515 
H    -3.1578715   -1.5788546   -5.7888658 
C     5.5217280   -2.3717030   -3.0116925 
C     4.4356796   -1.5391656   -3.3265669 
C     3.1450277   -1.8695102   -2.9005274 
C     2.9187798   -3.0413934   -2.1395784 
C     4.0184466   -3.8676330   -1.8229658 
C     5.3081120   -3.5386144   -2.2632421 
H     6.5310756   -2.1018814   -3.3375771 
H     4.6035079   -0.6125873   -3.8834290 
H     2.3032365   -1.2041909   -3.1308138 
H     3.8513420   -4.7891147   -1.2562455 
H     6.1483543   -4.1997112   -2.0243155 
C    -4.4606715    3.1903562    3.6191258 
C    -4.3976235    4.3781975    2.8736530 
C    -4.9743641    4.4403645    1.5968400 
C    -5.6303364    3.3117914    1.0794875 
C    -5.6968570    2.1280988    1.8290288 
C    -5.1002631    2.0485808    3.1041109 
C    -5.1886149    0.7729938    3.9406106 
C    -6.5806603    0.6075012    4.5798335 
N    -4.8500176   -0.4109369    3.1430573 
C    -3.8027394   -1.2259651    3.4170821 
O    -3.0388199   -1.0669651    4.3884634 
C    -3.6468885   -2.3925225    2.4722022 
C    -3.5996481   -3.6785452    3.0407175 
C    -3.4821930   -4.8147068    2.2321610 
C    -3.4107552   -4.6712861    0.8379034 
C    -3.4229192   -3.3940953    0.2689560 
C    -3.5238577   -2.2480711    1.0713654 
C    -3.3745828   -0.8849974    0.4287665 
C    -2.3743736    0.3053052   -1.8384239 
N    -3.7998169   -0.0291421   -1.8387684 
N    -4.3289515   -0.6540701   -0.6718692 
C    -4.4855656   -0.0187657   -3.0438222 
O    -3.9614038    0.4665434   -4.0425243 
C    -5.8759214   -0.6144027   -2.9667671 
C    -6.5405215   -0.2597703   -1.6321696 
C    -5.6868673   -0.6641766   -0.4449050 
O    -6.1570721   -0.9882103    0.6517578 
C    -2.1067371    1.7767365   -2.0597092 
C    -1.0991799    2.1697405   -2.9701011 
C    -0.8737752    3.5373005   -3.2113309 
C    -1.6383772    4.5126660   -2.5566994 
C    -2.6529404    4.1210231   -1.6712721 
C    -2.8875004    2.7613840   -1.4343922 
C    -0.2505408    1.1191566   -3.6401748 
O     0.4563294    0.3492456   -2.9589579 
N    -0.2736115    1.0460251   -4.9962379 
C    -1.1999239    1.6971609   -5.9450696 
C    -0.4717415    2.7689560   -6.7793815 
C    -1.8704061    0.6702794   -6.8554357 
C    -3.2543732    0.7497867   -7.0954571 
C    -3.8767741   -0.1378442   -7.9853809 
C    -3.1252814   -1.1248657   -8.6405200 
C    -1.7450190   -1.2149057   -8.4055228 
C    -1.1228096   -0.3170074   -7.5265645 
C    -0.9714854    0.6766157    0.8966463 
C    -1.7383465    1.7013747    1.4819013 
C    -1.1944869    2.4942778    2.5015025 
C     0.0972309    2.2454382    2.9815896 
C     0.8718879    1.2252330    2.4175968 
C     0.3501417    0.4618111    1.3593577 
C     2.8773129    0.2165378   -0.1435507 
C     2.7607401    1.7172119    0.0890724 
C     1.7842604    2.3794458   -0.6820996 
C     1.5137556    3.7386556   -0.5009661 
C     2.2405473    4.4767774    0.4434870 
C     3.2390551    3.8417818    1.1865294 
C     3.5036482    2.4647646    1.0254662 
C     4.5014080    1.8628889    1.9818066 
O     4.1404626    1.1234771    2.9094292 
N     5.8024859    2.2445004    1.8211704 
C     6.3798065    2.9933609    0.6888665 
C     7.8048104    2.4790752    0.4230293 
C     6.3601666    4.5049271    0.9025199 
C     6.0916846    5.3561737   -0.1842614 
C     6.0884913    6.7483134   -0.0182304 
C     6.3521203    7.3070988    1.2414086 
C     6.6214624    6.4654545    2.3315541 
C     6.6265922    5.0735488    2.1613437 
C     2.3900488   -1.6721351    1.8194671 
N     3.7858932   -1.3654781    1.5100936 
N     4.0244401   -0.4856540    0.4175803 
C     4.7720906   -1.6243990    2.4584242 
O     4.4970658   -2.2101647    3.4976574 
C     6.1781895   -1.2570410    2.0170144 
C     6.3114476   -1.2912218    0.4887698 
C     5.2752418   -0.3936936   -0.1635359 
O     5.4804594    0.3890909   -1.0895649 
C     2.1161038   -3.1701241    1.9115260 
C     3.0531985   -4.1132435    1.4640877 
C     2.8119255   -5.4881951    1.5872585 
C     1.6281714   -5.9447508    2.1835436 
C     0.6884868   -5.0144441    2.6461419 
C     0.9203983   -3.6336782    2.5062010 
C    -0.2061360   -2.6876970    2.8147472 
O    -0.7537144   -2.1107844    1.8451746 
N    -0.6499052   -2.5402211    4.0715408 
C     0.1358796   -2.7486434    5.3047209 
C    -0.7631245   -3.3427171    6.3960114 
C     0.7806587   -1.4094367    5.6667487 
C     2.1583902   -1.2225956    5.4551262 
C     2.7489884    0.0344533    5.6564202 
C     1.9669826    1.1133145    6.0916602 
C     0.5921395    0.9318630    6.3153266 
C    -0.0017085   -0.3183573    6.0955796 
H    -4.0019686    3.1466107    4.6137466 
H    -3.8957535    5.2574204    3.2920076 
H    -4.9296381    5.3680378    1.0164150 
H    -6.1061318    3.3589454    0.0932858 
H    -6.2299751    1.2621967    1.4242963 
H    -4.4243307    0.8164230    4.7333162 
H    -6.6032313   -0.2930189    5.2163652 
H    -6.8237080    1.4879186    5.1978241 
H    -7.3578597    0.5095479    3.8013896 
H    -5.4471705   -0.6728504    2.3414380 
H    -3.6658592   -3.7752010    4.1289069 
H    -3.4602831   -5.8102746    2.6874456 
H    -3.3347457   -5.5564091    0.1971677 
H    -3.3438561   -3.2707479   -0.8147110 
H    -3.5202881   -0.0962178    1.1836333 
H    -1.9258772   -0.2594466   -2.6702377 
H    -6.4495922   -0.2523973   -3.8322111 
H    -5.7698181   -1.7122119   -3.0666946 
H    -6.7015511    0.8346361   -1.5604984 
H    -7.5222909   -0.7406279   -1.5069178 
H    -0.0839820    3.8366128   -3.9069469 
H    -1.4467939    5.5739327   -2.7448046 
H    -3.2667704    4.8724745   -1.1647069 
H    -3.7053260    2.4610597   -0.7717402 
H     0.3723308    0.3505563   -5.3762448 
H    -1.9821696    2.1686201   -5.3300754 
H    -1.1807499    3.2518667   -7.4719504 
H     0.3329262    2.3118154   -7.3815377 
H    -0.0268949    3.5426343   -6.1314538 
H    -3.8516778    1.4937025   -6.5601996 
H    -4.9556651   -0.0638700   -8.1584320 
H    -3.6119133   -1.8222969   -9.3301555 
H    -1.1493843   -1.9810237   -8.9126338 
H    -0.0380037   -0.3931426   -7.3775732 
H    -2.7702958    1.8874695    1.1724641 
H    -1.8026711    3.2933659    2.9319097 
H     0.5108597    2.8402306    3.8007641 
H     1.8875852    1.0491509    2.7928331 
H     2.9027273    0.0496755   -1.2335227 
H     1.2154317    1.8006354   -1.4174481 
H     0.7292700    4.2148898   -1.0957143 
H     2.0400903    5.5419740    0.5967106 
H     3.8210702    4.4105077    1.9177467 
H     6.4291929    1.9506502    2.5726778 
H     5.7613376    2.7497694   -0.1906969 
H     7.7821162    1.4085401    0.1621966 
H     8.2488599    3.0337035   -0.4188252 
H     8.4513263    2.6345927    1.3060870 
H     5.8692063    4.9214771   -1.1658845 
H     5.8727267    7.3984785   -0.8729679 
H     6.3462611    8.3941479    1.3740548 
H     6.8278109    6.8941163    3.3181591 
H     6.8237311    4.4245665    3.0224330 
H     2.1308168   -1.2020842    2.7875807 
H     6.3995379   -0.2495454    2.4064507 
H     6.8646017   -1.9615180    2.5110206 
H     7.3047465   -0.9700430    0.1437951 
H     6.1430927   -2.3189196    0.1136411 
H     3.9880505   -3.7612736    1.0222789 
H     3.5611882   -6.2035465    1.2319270 
H     1.4400144   -7.0176401    2.2934885 
H    -0.2486095   -5.3487581    3.1040595 
H    -1.4923613   -1.9319507    4.1743055 
H     0.9402697   -3.4631313    5.0627762 
H    -1.1464811   -4.3279268    6.0788667 
H    -0.1949774   -3.4655449    7.3324791 
H    -1.6274734   -2.6868060    6.5965036 
H     2.7795176   -2.0506427    5.0982274 
H     3.8131331    0.1685323    5.4444518 
H     2.4256874    2.0958666    6.2481870 
H    -0.0251676    1.7727010    6.6511794 
H    -1.0829265   -0.4331798    6.2292652 
