197
Energy =
C    -1.3653917   -3.3849265   -2.0930235 
C    -0.1290974   -3.4031225   -2.7915560 
C     1.0624628   -3.8581511   -2.1703069 
H    -0.0724613   -2.9245819   -3.7763456 
Pd    0.1667410   -2.1224894   -1.0626310 
P     2.0564191   -1.0247614   -0.2888968 
P    -1.0054543   -0.3984501    0.0117946 
H    -1.5097016   -4.1312726   -1.2991123 
H     0.9682632   -4.5614204   -1.3290900 
C    -4.8965749   -1.9919532   -4.1171175 
C    -4.9621668   -3.1037909   -3.2636207 
C    -3.8198039   -3.5279985   -2.5709260 
C    -2.5882993   -2.8559150   -2.7352657 
C    -2.5410070   -1.7249431   -3.5835854 
C    -3.6843599   -1.2977425   -4.2663634 
H    -5.7903253   -1.6547356   -4.6518587 
H    -5.9049871   -3.6470170   -3.1394722 
H    -3.8722189   -4.4098569   -1.9223113 
H    -1.5980564   -1.1737413   -3.6874905 
H    -3.6407495   -0.4032443   -4.8938455 
C     4.8178290   -4.1044132   -4.2601867 
C     4.5701477   -4.9009813   -3.1333177 
C     3.3529866   -4.7927631   -2.4484209 
C     2.3615071   -3.8803181   -2.8702255 
C     2.6311111   -3.0731754   -4.0027574 
C     3.8408143   -3.1935863   -4.6921435 
H     5.7691214   -4.1815802   -4.7953242 
H     5.3223101   -5.6207982   -2.7920677 
H     3.1523257   -5.4338137   -1.5851444 
H     1.8902801   -2.3413254   -4.3397702 
H     4.0351777   -2.5598085   -5.5624529 
C    -1.2969027    2.2779160    6.1043016 
C    -0.6388345    3.5124962    5.9868689 
C    -1.0346678    4.4303201    5.0019559 
C    -2.0818714    4.0970066    4.1264498 
C    -2.7430449    2.8674971    4.2519614 
C    -2.3644538    1.9496446    5.2496678 
C    -3.1393122    0.6471565    5.4493401 
C    -4.6214041    0.8984795    5.7705899 
N    -3.0544779   -0.2649005    4.2953475 
C    -2.0770876   -1.1931509    4.2028909 
O    -1.1175981   -1.2435653    5.0012135 
C    -2.2660406   -2.2565045    3.1515834 
C    -2.1786606   -3.5876954    3.6049187 
C    -2.4359744   -4.6593729    2.7438127 
C    -2.8002444   -4.4052057    1.4125549 
C    -2.8491136   -3.0875753    0.9476861 
C    -2.5562377   -2.0063862    1.7938755 
C    -2.4689868   -0.6182815    1.1943868 
C    -2.0005149    0.8364582   -1.0603489 
N    -3.3853900    0.4689343   -0.7979445 
N    -3.6462711   -0.2978108    0.3799470 
C    -4.3825448    0.6991022   -1.7303797 
O    -4.1525781    1.3757215   -2.7305628 
C    -5.7086567    0.0647024   -1.3593491 
C    -6.0152592    0.2544266    0.1298692 
C    -4.8764785   -0.1981631    1.0148901 
O    -5.0116961   -0.5317915    2.1934766 
C    -1.5725889    2.2895061   -0.8895615 
C    -2.2945088    3.3108891   -0.2364008 
C    -1.7343664    4.6039908   -0.1310129 
C    -0.4622049    4.8892505   -0.6331374 
C     0.2541397    3.8775559   -1.2865107 
C    -0.3073874    2.6057530   -1.4242439 
C    -3.6084281    3.0959817    0.4611089 
O    -3.7426608    2.2671528    1.3740733 
N    -4.5934285    3.9550400    0.0760297 
C    -5.8912197    4.0826204    0.7381584 
C    -6.0697465    5.5280317    1.2456439 
C    -7.0489448    3.6343101   -0.1578669 
C    -6.8814630    3.3663220   -1.5286610 
C    -7.9730952    2.9654027   -2.3159620 
C    -9.2437729    2.8205528   -1.7440863 
C    -9.4181665    3.0756901   -0.3742476 
C    -8.3306103    3.4804495    0.4094094 
C     0.1881321    0.6556387    0.9233314 
C    -0.2258571    1.6685002    1.8089596 
C     0.7241482    2.4754304    2.4441939 
C     2.0911591    2.2828573    2.1985010 
C     2.5124034    1.2747151    1.3250297 
C     1.5663735    0.4567583    0.6779362 
C     3.3456712   -0.5565075   -1.6223458 
C     3.4573220    0.9049885   -2.0284156 
C     4.3981057    1.7360018   -1.3964616 
C     4.5605827    3.0747895   -1.7708655 
C     3.7738025    3.6138206   -2.7971201 
C     2.8483662    2.7960935   -3.4537082 
C     2.6867730    1.4460723   -3.0904058 
C     1.6803282    0.5863117   -3.7923717 
O     0.8828187   -0.1057665   -3.1234903 
N     1.6330397    0.5231869   -5.1548814 
C     2.2925193    1.2525556   -6.2642982 
C     2.1000429    0.4056132   -7.5376501 
C     3.7655885    1.5731220   -6.0549961 
C     4.6465628    0.6785589   -5.4262509 
C     6.0044501    0.9984122   -5.2915092 
C     6.4989238    2.2088656   -5.7991270 
C     5.6272278    3.1026407   -6.4393604 
C     4.2677048    2.7858744   -6.5623873 
C     3.3821599   -1.7418671    0.8915182 
N     4.6419583   -1.2989679    0.2940418 
N     4.5961669   -1.1236618   -1.1078663 
C     5.8370045   -1.2467065    1.0033455 
O     5.8637551   -1.4582814    2.2077884 
C     7.0548916   -0.9997294    0.1231634 
C     6.9315329   -1.8133047   -1.1759675 
C     5.6765670   -1.3972466   -1.9284377 
O     5.6053809   -1.2263525   -3.1402949 
C     3.2939519   -3.2283656    1.1854938 
C     4.2173445   -4.1422838    0.6597680 
C     4.1716016   -5.4982832    1.0146674 
C     3.1944497   -5.9571270    1.9080003 
C     2.2717996   -5.0506519    2.4487620 
C     2.3125010   -3.6902623    2.0943989 
C     1.2358378   -2.7693686    2.6085923 
O     0.4728974   -2.2138814    1.7852539 
N     1.0759725   -2.6358230    3.9381851 
C     2.1511078   -2.6972427    4.9499446 
C     1.5775105   -3.2213616    6.2736020 
C     2.7868461   -1.3090952    5.0658569 
C     2.0138156   -0.1872955    5.4355375 
C     2.5974814    1.0842786    5.4910153 
C     3.9555406    1.2567976    5.1731901 
C     4.7238465    0.1496855    4.7896590 
C     4.1408089   -1.1269181    4.7402954 
H    -0.9836981    1.5628201    6.8735007 
H     0.1796130    3.7604455    6.6716679 
H    -0.5282270    5.3978608    4.9150763 
H    -2.3877161    4.7987147    3.3418913 
H    -3.5477330    2.6171370    3.5548899 
H    -2.6650807    0.1105366    6.2886459 
H    -5.1335683   -0.0527086    5.9947561 
H    -4.7100620    1.5657367    6.6432098 
H    -5.1349628    1.3752063    4.9172629 
H    -3.8424044   -0.3293210    3.6267576 
H    -1.9231546   -3.7651955    4.6541871 
H    -2.3785842   -5.6873212    3.1165074 
H    -3.0409052   -5.2343455    0.7379383 
H    -3.1279600   -2.8726245   -0.0871784 
H    -2.3542876    0.1528506    1.9740203 
H    -1.7892841    0.5596266   -2.1066346 
H    -6.4867045    0.5043148   -1.9981920 
H    -5.6309746   -1.0126555   -1.5984437 
H    -6.2027620    1.3185553    0.3529289 
H    -6.9155845   -0.2976598    0.4419267 
H    -2.3024141    5.3830192    0.3898137 
H    -0.0344980    5.8896779   -0.5127792 
H     1.2542755    4.0700310   -1.6843488 
H     0.2561242    1.8163747   -1.9301076 
H    -4.3898600    4.5783398   -0.7046668 
H    -5.8343649    3.4020764    1.6063179 
H    -7.0288397    5.6387720    1.7771390 
H    -6.0699655    6.2383048    0.3997256 
H    -5.2521704    5.7935640    1.9377387 
H    -5.8911255    3.4252520   -1.9907580 
H    -7.8193703    2.7592973   -3.3807048 
H   -10.0940951    2.5064247   -2.3583258 
H   -10.4047835    2.9563747    0.0858669 
H    -8.4775199    3.6678676    1.4797138 
H    -1.2893045    1.8458142    2.0010573 
H     0.3859237    3.2434058    3.1447022 
H     2.8354293    2.8996336    2.7103048 
H     3.5819978    1.1030986    1.1783352 
H     3.0567961   -1.1644143   -2.4941512 
H     5.0336478    1.3169036   -0.6106400 
H     5.3061763    3.6946642   -1.2628418 
H     3.8905427    4.6593997   -3.0977926 
H     2.2364136    3.2120350   -4.2587735 
H     0.8548070   -0.0681779   -5.4568529 
H     1.7549464    2.2107410   -6.4097141 
H     2.5146306    0.9419318   -8.4054738 
H     2.6302324   -0.5574192   -7.4393660 
H     1.0286509    0.2112042   -7.7314796 
H     4.2792396   -0.2557846   -4.9936950 
H     6.6604138    0.2929210   -4.7742218 
H     7.5602535    2.4580442   -5.6936041 
H     6.0036431    4.0510331   -6.8373020 
H     3.5861476    3.4935135   -7.0505520 
H     3.2631714   -1.1976738    1.8436387 
H     7.1272692    0.0796476   -0.1126428 
H     7.9424168   -1.2734989    0.7118919 
H     7.7847004   -1.6581868   -1.8526839 
H     6.8803694   -2.8960570   -0.9510864 
H     4.9872097   -3.7894532   -0.0309837 
H     4.9055417   -6.1940407    0.5946843 
H     3.1560150   -7.0138527    2.1913936 
H     1.5050421   -5.3905111    3.1530998 
H     0.2470790   -2.0767044    4.2381366 
H     2.9195187   -3.3963897    4.5803285 
H     1.1791660   -4.2422475    6.1406215 
H     2.3634169   -3.2419906    7.0461443 
H     0.7574082   -2.5726382    6.6253437 
H     0.9457867   -0.3001013    5.6512992 
H     1.9824788    1.9462656    5.7709806 
H     4.4091373    2.2534857    5.2188582 
H     5.7771770    0.2666386    4.5158304 
H     4.7461496   -1.9790859    4.4171426 
