197
Energy =
C     2.2183731   -2.8831601   -2.6814281 
C     1.6759451   -3.7824518   -1.7240891 
C     0.2852613   -3.7686540   -1.4468563 
H     2.3481363   -4.4003936   -1.1167226 
Pd    1.1990004   -1.7379010   -1.0467807 
P    -0.3190961   -0.6758815    0.3395109 
P     1.9489734    0.3996530   -1.5519784 
H     1.5190042   -2.5159421   -3.4459263 
H    -0.3673118   -3.3248781   -2.2147756 
C     6.3231398   -2.8119458   -3.9570768 
C     5.3140431   -2.2418401   -4.7472514 
C     3.9862687   -2.2497498   -4.3018987 
C     3.6436411   -2.8133419   -3.0516619 
C     4.6765543   -3.3489623   -2.2484414 
C     5.9971890   -3.3612820   -2.7050393 
H     7.3598756   -2.8255664   -4.3097196 
H     5.5503927   -1.8061507   -5.7240175 
H     3.2056669   -1.8277609   -4.9437142 
H     4.4486335   -3.7531509   -1.2567378 
H     6.7826697   -3.7895865   -2.0743733 
C    -1.7838045   -6.5751376    1.0701196 
C    -0.3949899   -6.4143380    1.2166217 
C     0.2954256   -5.4874090    0.4288325 
C    -0.3910447   -4.6907375   -0.5187666 
C    -1.7907445   -4.8453452   -0.6356497 
C    -2.4779946   -5.7854987    0.1404157 
H    -2.3181647   -7.3130093    1.6777592 
H     0.1535837   -7.0237390    1.9423195 
H     1.3795959   -5.3896673    0.5474586 
H    -2.3434530   -4.2412602   -1.3612300 
H    -3.5613314   -5.8887117    0.0195257 
C    -7.8577469    0.6507064   -0.4742359 
C    -8.7415103    1.6630753   -0.8739546 
C    -9.1961667    2.6074839    0.0586308 
C    -8.7652421    2.5309733    1.3921839 
C    -7.8840213    1.5152127    1.7894270 
C    -7.4199242    0.5673124    0.8594473 
C    -6.4728933   -0.5559270    1.2709307 
C    -7.2364421   -1.7430212    1.8813487 
N    -5.4301956   -0.1169949    2.2213796 
C    -4.1948587    0.3671447    1.9109159 
O    -3.3186079    0.5556481    2.7712548 
C    -3.9610948    0.7616956    0.4767543 
C    -4.6510504    1.9021530    0.0128071 
C    -4.3881620    2.4371392   -1.2512385 
C    -3.4352373    1.8209295   -2.0741757 
C    -2.7602651    0.6819016   -1.6267106 
C    -3.0040016    0.1405527   -0.3493843 
C    -2.1652428   -1.0695130    0.0265413 
C    -0.5268022   -0.9186757    2.2018899 
N    -1.7093998   -1.7782707    2.3501658 
N    -2.5612126   -1.8442787    1.2030084 
C    -2.2377148   -1.9752806    3.6182425 
O    -1.6397889   -1.6060420    4.6281414 
C    -3.5376259   -2.7521664    3.6570494 
C    -3.7157461   -3.6105055    2.4028168 
C    -3.5888083   -2.7671798    1.1488753 
O    -4.3233262   -2.8335436    0.1640371 
C     0.7013315   -1.4877957    2.8786654 
C     1.4451603   -0.7280706    3.8075634 
C     2.6506337   -1.2470869    4.3160842 
C     3.0954438   -2.5198450    3.9418172 
C     2.3383904   -3.2857063    3.0409866 
C     1.1547282   -2.7649090    2.5093808 
C     1.0533223    0.6658508    4.2305728 
O     1.8396331    1.6226930    4.0838249 
N    -0.1671368    0.8215177    4.7826252 
C    -0.6698779    2.1507528    5.1657972 
C    -2.1115901    2.0077205    5.6767749 
C     0.2485242    2.8258901    6.1817691 
C     0.6561756    4.1571140    5.9932266 
C     1.4886199    4.7898731    6.9271790 
C     1.9258446    4.0926755    8.0635138 
C     1.5226161    2.7626050    8.2594803 
C     0.6877789    2.1347583    7.3248717 
C    -0.1226772    1.1435174    0.1799966 
C    -0.8806585    2.0446596    0.9531417 
C    -0.6452414    3.4208432    0.8549411 
C     0.3511801    3.9059307   -0.0036580 
C     1.1073335    3.0151233   -0.7747091 
C     0.8739790    1.6289844   -0.6984535 
C     1.8199243    0.6858798   -3.4499107 
C     0.7096372    1.5670749   -3.9897273 
C     0.8897156    2.9604659   -4.0568363 
C    -0.0872981    3.7994637   -4.6048879 
C    -1.2694195    3.2513388   -5.1217873 
C    -1.4532572    1.8645583   -5.0895974 
C    -0.4816075    1.0136763   -4.5226246 
C    -0.7244684   -0.4666133   -4.4740694 
O    -0.4299652   -1.1511415   -3.4755081 
N    -1.3224650   -1.0169294   -5.5622177 
C    -1.6767002   -2.4403861   -5.6386577 
C    -2.1041379   -2.7608807   -7.0807159 
C    -2.7525948   -2.8348513   -4.6241767 
C    -2.9374015   -4.1989829   -4.3313885 
C    -3.9398827   -4.6098887   -3.4410720 
C    -4.7517319   -3.6589892   -2.8052002 
C    -4.5650251   -2.2974526   -3.0816356 
C    -3.5845695   -1.8910699   -3.9973965 
C     3.6552386    1.2584947   -1.4591674 
N     3.8356437    1.8409352   -2.7898039 
N     3.1510770    1.1607115   -3.8180232 
C     4.7321216    2.8658791   -3.0638656 
O     5.3368992    3.4361194   -2.1651602 
C     4.9188809    3.1195047   -4.5556277 
C     4.9475046    1.7880180   -5.3276413 
C     3.6458371    1.0324397   -5.1051068 
O     3.0149967    0.4175523   -5.9594382 
C     4.8183840    0.4163638   -0.9657584 
C     5.8628946    0.0213843   -1.8102419 
C     6.9876989   -0.6385060   -1.2959157 
C     7.0726125   -0.9259569    0.0722119 
C     6.0285309   -0.5431673    0.9253165 
C     4.9054618    0.1325304    0.4175485 
C     3.7559465    0.4743602    1.3214112 
O     2.6025838    0.0876544    1.0084639 
N     3.9903757    1.1387864    2.4663150 
C     5.0409289    2.1554168    2.6935805 
C     5.4646757    2.1299641    4.1667830 
C     4.4778371    3.4948308    2.2095035 
C     4.8341800    3.9680510    0.9335705 
C     4.2509290    5.1326532    0.4110416 
C     3.3053558    5.8417263    1.1665643 
C     2.9398025    5.3719199    2.4388202 
C     3.5167552    4.2046410    2.9577472 
H    -7.4909928   -0.0767129   -1.2084869 
H    -9.0702915    1.7189372   -1.9172162 
H    -9.8831361    3.4015608   -0.2521870 
H    -9.1162356    3.2650402    2.1253176 
H    -7.5415101    1.4721398    2.8298514 
H    -5.9414439   -0.9168480    0.3746664 
H    -6.5506212   -2.5818234    2.0847306 
H    -7.7438473   -1.4461345    2.8172009 
H    -8.0092144   -2.0883948    1.1765120 
H    -5.6109156   -0.2244616    3.2212810 
H    -5.3901986    2.3771793    0.6642250 
H    -4.9259965    3.3286944   -1.5885717 
H    -3.2081607    2.2303168   -3.0626108 
H    -2.0111327    0.2025340   -2.2635345 
H    -2.1823799   -1.7595457   -0.8347434 
H    -0.7739910    0.0770030    2.6017734 
H    -3.5293315   -3.3540799    4.5788125 
H    -4.3557872   -2.0174293    3.7536517 
H    -2.9249944   -4.3825487    2.3642188 
H    -4.6881036   -4.1228053    2.3713930 
H     3.2319773   -0.6389677    5.0161668 
H     4.0276627   -2.9168617    4.3569443 
H     2.6748138   -4.2862579    2.7484401 
H     0.5665893   -3.3506999    1.7952043 
H    -0.7622309   -0.0167534    4.8816136 
H    -0.6674311    2.7762826    4.2521418 
H    -2.7507511    1.5418000    4.9080412 
H    -2.5135825    3.0024890    5.9284657 
H    -2.1370092    1.3888290    6.5908367 
H     0.3346014    4.6954788    5.0934072 
H     1.8043025    5.8260785    6.7632823 
H     2.5802302    4.5826957    8.7923129 
H     1.8616140    2.2117732    9.1437168 
H     0.3882018    1.0904174    7.4725834 
H    -1.6534697    1.6768626    1.6386737 
H    -1.2333200    4.1131730    1.4657416 
H     0.5618968    4.9778387   -0.0586384 
H     1.9059049    3.4107099   -1.4085391 
H     1.7150661   -0.3231827   -3.8660401 
H     1.8254008    3.3929477   -3.6913328 
H     0.0786944    4.8811104   -4.6345304 
H    -2.0410214    3.8981427   -5.5509452 
H    -2.3778646    1.4318221   -5.4875392 
H    -1.4294492   -0.4463848   -6.3993321 
H    -0.7648429   -3.0190623   -5.3946651 
H    -3.0092047   -2.1888135   -7.3514750 
H    -1.2951848   -2.5230157   -7.7941905 
H    -2.3432492   -3.8316586   -7.1726298 
H    -2.2895791   -4.9494479   -4.8006774 
H    -4.0688304   -5.6758831   -3.2251598 
H    -5.5024862   -3.9704545   -2.0740173 
H    -5.1732748   -1.5447163   -2.5699070 
H    -3.4552294   -0.8252728   -4.2101160 
H     3.5234738    2.0933176   -0.7502902 
H     4.0860687    3.7494807   -4.9239553 
H     5.8486467    3.6952077   -4.6725084 
H     5.0617837    1.9346214   -6.4118612 
H     5.7927523    1.1600031   -4.9862881 
H     5.8049781    0.2353477   -2.8803855 
H     7.7970748   -0.9293674   -1.9719928 
H     7.9496095   -1.4423553    0.4757228 
H     6.0741271   -0.7638033    1.9970900 
H     3.1321357    1.2986236    3.0480314 
H     5.9042841    1.8990328    2.0580886 
H     5.9120630    1.1520409    4.4147529 
H     6.2053341    2.9216111    4.3666800 
H     4.5975151    2.2865121    4.8307847 
H     5.5622404    3.4209641    0.3250877 
H     4.5480493    5.4737728   -0.5857770 
H     2.8561893    6.7588499    0.7685419 
H     2.1969822    5.9155553    3.0336073 
H     3.1902639    3.8355415    3.9348642 
