197
Energy =
C    -2.0463636   -3.0533080   -2.9487726 
C    -0.6309714   -3.0778215   -3.0836199 
C     0.2171498   -3.3612108   -1.9841311 
H    -0.1829859   -2.7346453   -4.0246468 
Pd   -1.0711570   -1.5560963   -1.5860208 
P     0.1828805   -0.0667010   -0.2796532 
P    -2.7343002    0.0517497   -1.3950814 
H    -2.5049290   -3.6717394   -2.1626785 
H    -0.1992910   -3.9812672   -1.1767873 
C    -4.5909941   -2.0959151   -6.2931785 
C    -3.3205271   -1.5100147   -6.1900953 
C    -2.4949625   -1.8034329   -5.1000347 
C    -2.9212051   -2.6922808   -4.0830968 
C    -4.2036437   -3.2723871   -4.2013765 
C    -5.0266748   -2.9797893   -5.2960930 
H    -5.2460479   -1.8473622   -7.1329808 
H    -2.9791886   -0.8009492   -6.9512425 
H    -1.5191638   -1.3173171   -5.0131356 
H    -4.5402899   -3.9793326   -3.4374680 
H    -6.0160478   -3.4431280   -5.3705871 
C     4.5071965   -3.4112424   -2.3585840 
C     3.7511307   -2.4909719   -3.1037994 
C     2.3605098   -2.4559644   -2.9691752 
C     1.6906891   -3.3422239   -2.0945195 
C     2.4649614   -4.2567567   -1.3459018 
C     3.8597108   -4.2922346   -1.4792577 
H     5.5967416   -3.4377482   -2.4627085 
H     4.2525360   -1.7822777   -3.7685835 
H     1.7774601   -1.7221002   -3.5367183 
H     1.9664605   -4.9620973   -0.6717939 
H     4.4409298   -5.0183198   -0.9010895 
C    -3.2573291   -1.9959027    6.1844885 
C    -2.7604288   -2.7745714    7.2386803 
C    -2.9155706   -4.1700741    7.2235723 
C    -3.5772940   -4.7824189    6.1495383 
C    -4.0725059   -4.0012430    5.0939915 
C    -3.9132081   -2.6036899    5.0953272 
C    -4.3946595   -1.7766851    3.9070749 
C    -5.3524641   -0.6315634    4.2825203 
N    -3.2313577   -1.2303729    3.1823456 
C    -2.9289335   -1.3761773    1.8828384 
O    -2.0188398   -0.7087769    1.3355333 
C    -3.7101649   -2.3419422    1.0364049 
C    -3.7004074   -3.7234166    1.2959331 
C    -4.3912719   -4.6045840    0.4524266 
C    -5.1101676   -4.1000181   -0.6417174 
C    -5.1059593   -2.7240223   -0.9139560 
C    -4.3957085   -1.8371461   -0.0910970 
C    -4.3042544   -0.3543742   -0.3946513 
C    -3.7442021    0.5735569   -2.9312725 
N    -5.1215107    0.2166845   -2.5847215 
N    -5.3929519    0.1780870   -1.1979233 
C    -6.1237109    0.0982884   -3.5376638 
O    -5.8724858    0.2133665   -4.7301723 
C    -7.5087269   -0.0957998   -2.9324502 
C    -7.6898799    0.8084708   -1.6991152 
C    -6.6297351    0.4942957   -0.6503229 
O    -6.8082615    0.4433817    0.5601672 
C    -3.5826300    2.0039047   -3.4224783 
C    -2.4524144    2.3853797   -4.1862250 
C    -2.3333260    3.7088562   -4.6558562 
C    -3.3241517    4.6592711   -4.3851770 
C    -4.4552937    4.2788106   -3.6510840 
C    -4.5785062    2.9645683   -3.1828347 
C    -1.3353785    1.4194507   -4.4220928 
O    -0.9155511    0.6838981   -3.5060725 
N    -0.7779998    1.4115172   -5.6613868 
C     0.4993174    0.7366470   -5.9588196 
C     0.4877087    0.2095019   -7.4005491 
C     1.6817376    1.6608533   -5.6667434 
C     2.7360756    1.2337608   -4.8417887 
C     3.8163818    2.0810278   -4.5539006 
C     3.8542728    3.3706546   -5.0997495 
C     2.8100745    3.8092439   -5.9298435 
C     1.7309645    2.9600532   -6.2095435 
C    -2.0946201    1.5368230   -0.5387458 
C    -2.8963876    2.6634490   -0.2819657 
C    -2.4033494    3.7154168    0.5012717 
C    -1.1167638    3.6353882    1.0521426 
C    -0.3198038    2.5059448    0.8245952 
C    -0.8010837    1.4555194    0.0249523 
C     1.8031624    0.5544464   -1.0642685 
C     1.9946985    2.0649729   -1.1951416 
C     1.3070152    2.6675146   -2.2624865 
C     1.4242770    4.0312385   -2.5445874 
C     2.2716660    4.8293477   -1.7670621 
C     2.9632080    4.2475990   -0.6990581 
C     2.8208522    2.8780444   -0.3838637 
C     3.4132202    2.4339795    0.9261232 
O     2.7030410    1.9209913    1.8072745 
N     4.7205682    2.7495431    1.1421066 
C     5.3275411    2.7283852    2.4881554 
C     5.9582114    4.0953312    2.7953540 
C     6.2966904    1.5663174    2.6709059 
C     5.9731113    0.5335185    3.5685304 
C     6.8506831   -0.5438330    3.7609341 
C     8.0551877   -0.6080820    3.0456197 
C     8.3832540    0.4155072    2.1410054 
C     7.5126632    1.4991057    1.9611461 
C     1.0708713   -0.4770461    1.3503280 
N     2.4684463   -0.6842731    0.9415704 
N     2.8404206   -0.1684013   -0.3346826 
C     3.4041930   -1.2072186    1.8072754 
O     3.1602049   -1.3340110    3.0111748 
C     4.6618415   -1.7157277    1.1360688 
C     5.2000159   -0.7396020    0.0882241 
C     4.1358411   -0.1690897   -0.8220835 
O     4.3706335    0.3360313   -1.9206396 
C     0.5475268   -1.7078276    2.0701027 
C     0.6205930   -2.9497500    1.4211253 
C     0.1116444   -4.1104309    2.0120917 
C    -0.4872425   -4.0390825    3.2793334 
C    -0.5467782   -2.8102939    3.9465030 
C    -0.0162079   -1.6452489    3.3616123 
C    -0.0853131   -0.3750907    4.1686676 
O    -1.1626587    0.0473020    4.6379486 
N     1.1020691    0.2344226    4.3816197 
C     1.2229900    1.4504083    5.2041490 
C     0.7459317    2.6894886    4.4316345 
C     2.6424490    1.5280134    5.7644410 
C     3.2078553    0.3869367    6.3726468 
C     4.4925253    0.4279581    6.9291119 
C     5.2408554    1.6150321    6.8907431 
C     4.6909460    2.7545601    6.2896148 
C     3.4042571    2.7105968    5.7280296 
H    -3.0979185   -0.9130818    6.1961820 
H    -2.2459974   -2.2892066    8.0749789 
H    -2.5267884   -4.7762790    8.0485987 
H    -3.7125572   -5.8693728    6.1343764 
H    -4.5920783   -4.4840122    4.2576634 
H    -4.9216255   -2.4478151    3.2113334 
H    -5.7232673   -0.1383057    3.3673537 
H    -6.2128880   -1.0287938    4.8468487 
H    -4.8454478    0.1216066    4.9101802 
H    -2.5648581   -0.6367369    3.7277400 
H    -3.1447990   -4.0974101    2.1615170 
H    -4.3821824   -5.6800091    0.6575374 
H    -5.6754590   -4.7807713   -1.2871185 
H    -5.6539611   -2.3356830   -1.7769566 
H    -4.2625034    0.2291518    0.5371886 
H    -3.4228237   -0.1188700   -3.7278491 
H    -8.2438080    0.1200293   -3.7215349 
H    -7.6301278   -1.1575741   -2.6425601 
H    -7.6109262    1.8739440   -1.9902212 
H    -8.6715929    0.6737755   -1.2213223 
H    -1.4360135    4.0006962   -5.2133966 
H    -3.2146120    5.6867824   -4.7455502 
H    -5.2474164    5.0050234   -3.4424342 
H    -5.4736014    2.6757787   -2.6245714 
H    -1.1899757    2.0079684   -6.3776925 
H     0.5512143   -0.1123378   -5.2568648 
H     1.4352553   -0.3102230   -7.6148103 
H     0.3913012    1.0383507   -8.1248944 
H    -0.3471547   -0.4961108   -7.5540497 
H     2.7096736    0.2361885   -4.3916354 
H     4.5982312    1.7300164   -3.8758996 
H     4.6905800    4.0397970   -4.8720790 
H     2.8351289    4.8165964   -6.3593355 
H     0.9214929    3.3169319   -6.8585482 
H    -3.9139219    2.7153532   -0.6767036 
H    -3.0338886    4.5896999    0.6924408 
H    -0.7313620    4.4477700    1.6765680 
H     0.6757484    2.4384466    1.2749370 
H     1.7905935    0.1559571   -2.0910483 
H     0.6691433    2.0383283   -2.8836913 
H     0.8699819    4.4586559   -3.3854957 
H     2.3886496    5.8967833   -1.9798619 
H     3.5975452    4.8715837   -0.0596661 
H     5.2623554    3.1153452    0.3595928 
H     4.4800372    2.5583127    3.1696328 
H     5.1990681    4.8940409    2.7303193 
H     6.3799046    4.0900075    3.8136860 
H     6.7773974    4.3335531    2.0930075 
H     5.0263088    0.5676961    4.1154384 
H     6.5812327   -1.3361161    4.4673290 
H     8.7403060   -1.4498739    3.1927847 
H     9.3237952    0.3728527    1.5813752 
H     7.7851126    2.2946248    1.2569378 
H     0.9920466    0.4291762    1.9687781 
H     5.4067210   -1.9217691    1.9156307 
H     4.3840328   -2.6718307    0.6517079 
H     5.6753758    0.1253084    0.5864878 
H     5.9677130   -1.2018123   -0.5507022 
H     1.1085714   -2.9912684    0.4457299 
H     0.1832361   -5.0697010    1.4872621 
H    -0.8956950   -4.9351867    3.7576607 
H    -1.0005835   -2.7461161    4.9393950 
H     1.9450315   -0.2054332    3.9741603 
H     0.5255591    1.3030387    6.0518674 
H    -0.2715138    2.4993003    4.0539492 
H     0.7038113    3.5694910    5.0960668 
H     1.4144590    2.9008147    3.5820754 
H     2.6330235   -0.5451734    6.4056803 
H     4.9113105   -0.4704912    7.3949232 
H     6.2460450    1.6487496    7.3231551 
H     5.2642341    3.6873262    6.2549012 
H     2.9962626    3.6125213    5.2631441 
