197
Energy =
C    -1.3654479   -3.4089821   -2.6401934 
C     0.0522044   -3.5394813   -2.6184848 
C     0.7652029   -3.7147526   -1.4071661 
H     0.6143055   -3.3616382   -3.5437668 
Pd   -0.4350224   -1.8046155   -1.3944660 
P     0.8050090   -0.2179085   -0.1912943 
P    -2.0327439   -0.1270959   -1.5473512 
H    -1.9445556   -3.8911187   -1.8382564 
H     0.2264569   -4.1820428   -0.5694925 
C    -3.4259484   -2.8995935   -6.3891277 
C    -4.0394354   -3.5763349   -5.3260318 
C    -3.3764637   -3.7124106   -4.0999325 
C    -2.0870855   -3.1681593   -3.9079981 
C    -1.4886087   -2.4691319   -4.9842577 
C    -2.1463766   -2.3517238   -6.2131224 
H    -3.9470007   -2.7846723   -7.3440969 
H    -5.0375632   -4.0079267   -5.4549604 
H    -3.8423317   -4.2759948   -3.2860785 
H    -0.5097658   -1.9992042   -4.8437167 
H    -1.6630432   -1.8186900   -7.0380435 
C     5.0568789   -4.0508721   -1.2632769 
C     4.4547217   -3.2082577   -2.2123803 
C     3.0629986   -3.0837187   -2.2564919 
C     2.2398718   -3.7978063   -1.3550848 
C     2.8607355   -4.6387125   -0.4037353 
C     4.2555134   -4.7660692   -0.3604991 
H     6.1470579   -4.1462166   -1.2282003 
H     5.0737303   -2.6213204   -2.8960471 
H     2.6045523   -2.4105080   -2.9900014 
H     2.2418016   -5.2149565    0.2927535 
H     4.7161612   -5.4333430    0.3756939 
C    -3.8875378   -2.9161724    5.4877659 
C    -3.4052480   -3.3734133    6.7239702 
C    -2.8271932   -2.4700493    7.6286088 
C    -2.7503607   -1.1072376    7.2988768 
C    -3.2441033   -0.6523739    6.0686427 
C    -3.8053006   -1.5548310    5.1429597 
C    -4.2221296   -1.0889121    3.7506003 
C    -5.2321431    0.0722768    3.7417066 
N    -3.0067444   -0.6996343    3.0094212 
C    -2.6009975   -1.1027262    1.7986438 
O    -1.6030593   -0.5897594    1.2341718 
C    -3.3588958   -2.1588159    1.0472178 
C    -3.4455379   -3.4857593    1.5012216 
C    -4.0903453   -4.4558795    0.7206178 
C    -4.6650294   -4.0926667   -0.5066396 
C    -4.5681991   -2.7710163   -0.9666016 
C    -3.9038034   -1.7989847   -0.2052337 
C    -3.7211655   -0.3739236   -0.6937147 
C    -2.8607311    0.3069158   -3.2230915 
N    -4.2627688   -0.0534021   -3.0185510 
N    -4.7018304    0.0576911   -1.6802981 
C    -5.1344441   -0.3027707   -4.0648312 
O    -4.7380364   -0.3256953   -5.2248375 
C    -6.5835941   -0.4571250   -3.6212432 
C    -6.9258434    0.5715156   -2.5276369 
C    -6.0009166    0.4000783   -1.3283176 
O    -6.3292286    0.4783625   -0.1512446 
C    -2.6533567    1.7379602   -3.6910218 
C    -1.4288371    2.1393867   -4.2773262 
C    -1.2245310    3.4847053   -4.6305883 
C    -2.2350400    4.4337329   -4.4482867 
C    -3.4751683    4.0266701   -3.9389985 
C    -3.6747475    2.6928799   -3.5622968 
C    -0.3817174    1.1031851   -4.5168724 
O    -0.0828320    0.2865483   -3.6187227 
N     0.2305962    1.0153631   -5.7320606 
C     0.0957556    1.7660084   -7.0017282 
C     0.7449855    0.9092625   -8.1059156 
C    -1.3326012    2.1406981   -7.3844667 
C    -2.4354233    1.3154200   -7.1060367 
C    -3.7237501    1.6872830   -7.5148205 
C    -3.9208918    2.8811982   -8.2240029 
C    -2.8242881    3.7057596   -8.5166887 
C    -1.5399161    3.3382141   -8.0936545 
C    -1.3932280    1.4121613   -0.7834813 
C    -2.1858666    2.5666081   -0.6605047 
C    -1.6958240    3.6954332    0.0085947 
C    -0.4194392    3.6657706    0.5850288 
C     0.3621878    2.5048271    0.5112312 
C    -0.1161056    1.3749051   -0.1749917 
C     2.5370065    0.1432707   -0.8957254 
C     2.8609089    1.5754426   -1.3080671 
C     2.4344696    1.9400730   -2.5972485 
C     2.6723564    3.2138845   -3.1217293 
C     3.3816269    4.1555493   -2.3655594 
C     3.8425035    3.7975444   -1.0941011 
C     3.5835664    2.5225754   -0.5454197 
C     4.0209461    2.3103141    0.8818134 
O     3.2142770    2.0174356    1.7792382 
N     5.3341206    2.5743862    1.1346011 
C     5.8765454    2.7474891    2.4959983 
C     6.4531256    4.1645096    2.6543603 
C     6.8739613    1.6511379    2.8526906 
C     8.1016056    1.5314796    2.1704318 
C     8.9978666    0.5024936    2.4888274 
C     8.6848124   -0.4138085    3.5059388 
C     7.4709209   -0.2959621    4.1980678 
C     6.5682989    0.7269996    3.8688442 
C     1.5026662   -0.4239005    1.5700237 
N     2.9235653   -0.7390862    1.3605593 
N     3.4499754   -0.4694997    0.0637352 
C     3.7363110   -1.1555250    2.3908682 
O     3.3761602   -1.0746288    3.5703839 
C     5.0183571   -1.8272361    1.9440442 
C     5.7206074   -1.0742176    0.8127009 
C     4.7882086   -0.5986985   -0.2791352 
O     5.1547916   -0.2763605   -1.4079989 
C     0.8374343   -1.5166214    2.3866570 
C     0.9212227   -2.8460214    1.9462005 
C     0.2940660   -3.8808113    2.6474529 
C    -0.4296639   -3.5915123    3.8150159 
C    -0.5031283   -2.2717757    4.2761083 
C     0.1353156   -1.2333026    3.5743240 
C     0.0546407    0.1556734    4.1499034 
O    -1.0265639    0.7534894    4.3145656 
N     1.2420567    0.6820521    4.5193167 
C     1.3107673    1.9601194    5.2391768 
C     2.7650304    2.4500368    5.2524108 
C     0.7091071    1.8126005    6.6375671 
C     1.1450407    0.7848801    7.4951352 
C     0.5913037    0.6396822    8.7741078 
C    -0.4099484    1.5216618    9.2120075 
C    -0.8547770    2.5443569    8.3608278 
C    -0.2984998    2.6851228    7.0805953 
H    -4.3271004   -3.6272296    4.7778789 
H    -3.4776212   -4.4364711    6.9784531 
H    -2.4383364   -2.8261091    8.5885529 
H    -2.2887178   -0.3948357    7.9906409 
H    -3.1440383    0.4078114    5.8173927 
H    -4.6734299   -1.9407316    3.2181117 
H    -5.5301149    0.3039024    2.7043643 
H    -6.1312670   -0.2045941    4.3177046 
H    -4.7970268    0.9796601    4.1948788 
H    -2.3493063   -0.0336000    3.4852948 
H    -2.9967395   -3.7501469    2.4639397 
H    -4.1564726   -5.4894579    1.0755285 
H    -5.1911166   -4.8412742   -1.1086063 
H    -5.0078577   -2.4930742   -1.9284385 
H    -3.7688747    0.3281433    0.1527914 
H    -2.4460786   -0.4084307   -3.9517070 
H    -7.2138964   -0.3425379   -4.5152419 
H    -6.7348082   -1.4842296   -3.2362163 
H    -6.8225463    1.5999572   -2.9246563 
H    -7.9577748    0.4657684   -2.1614727 
H    -0.2650591    3.7896777   -5.0582603 
H    -2.0646851    5.4778298   -4.7273673 
H    -4.2897172    4.7494495   -3.8274041 
H    -4.6422693    2.3887538   -3.1537394 
H     0.9366683    0.2761288   -5.7418389 
H     0.6796755    2.7035367   -6.9162561 
H     0.7253528    1.4580106   -9.0603296 
H     0.1845750   -0.0324201   -8.2389712 
H     1.7980517    0.6747082   -7.8631063 
H    -2.3115361    0.3915701   -6.5340782 
H    -4.5657669    1.0400415   -7.2542456 
H    -4.9274361    3.1723895   -8.5427649 
H    -2.9689806    4.6418605   -9.0664911 
H    -0.6880114    3.9947917   -8.3100496 
H    -3.1960571    2.5855936   -1.0755822 
H    -2.3212599    4.5902763    0.0899195 
H    -0.0336838    4.5407263    1.1182023 
H     1.3376259    2.4734714    1.0087125 
H     2.5910487   -0.4590461   -1.8163750 
H     1.9055164    1.1936144   -3.1943025 
H     2.3186682    3.4616343   -4.1283410 
H     3.5824797    5.1564773   -2.7605497 
H     4.3945080    4.5279215   -0.4921056 
H     5.9458823    2.7479889    0.3371278 
H     5.0022088    2.6374178    3.1544718 
H     5.6756366    4.9204954    2.4498189 
H     6.8251370    4.3076335    3.6824291 
H     7.2978185    4.3362471    1.9633130 
H     8.3625907    2.2418585    1.3768127 
H     9.9456121    0.4182183    1.9466601 
H     9.3883360   -1.2137101    3.7596630 
H     7.2189492   -1.0055331    4.9934737 
H     5.6081589    0.7943780    4.3916073 
H     1.4060406    0.5628082    2.0477318 
H     5.6688095   -1.9374098    2.8218565 
H     4.7246642   -2.8373813    1.5974898 
H     6.2195666   -0.1706305    1.2074029 
H     6.5019570   -1.6845554    0.3349375 
H     1.5096211   -3.0574461    1.0514030 
H     0.3740473   -4.9131179    2.2887809 
H    -0.9241685   -4.3893388    4.3788193 
H    -1.0463410   -2.0386394    5.1961067 
H     2.0908367    0.1206366    4.3393514 
H     0.6863429    2.6791169    4.6790659 
H     3.1366270    2.5339335    4.2172185 
H     2.8275497    3.4320081    5.7483172 
H     3.4102377    1.7467911    5.8089151 
H     1.9126132    0.0812171    7.1515943 
H     0.9396187   -0.1649044    9.4309194 
H    -0.8440940    1.4092817   10.2113208 
H    -1.6424562    3.2300233    8.6915367 
H    -0.6619338    3.4713885    6.4090049 
