197
Energy =
C     2.6618810   -1.7777110   -2.1375529 
C     1.9703146   -2.9360463   -1.6473512 
C     0.6023841   -3.1048268   -1.9773375 
H     2.4895427   -3.6415872   -0.9884993 
Pd    1.0535760   -1.2310000   -0.7379427 
P    -0.6472414   -1.1760879    0.8841920 
P     0.1865791    0.9949029   -1.2829811 
H     2.3391531   -1.3616233   -3.1011389 
H     0.1972492   -2.5489277   -2.8327170 
C     6.8420118   -1.3975024   -1.2069998 
C     6.3607347   -1.0369731   -2.4746400 
C     4.9903617   -1.1084215   -2.7514102 
C     4.0762879   -1.5605908   -1.7760144 
C     4.5712158   -1.8996898   -0.4936659 
C     5.9392930   -1.8189486   -0.2163137 
H     7.9141321   -1.3441304   -0.9899914 
H     7.0560065   -0.7007660   -3.2512242 
H     4.6200837   -0.8449466   -3.7467504 
H     3.8732682   -2.1990738    0.2939822 
H     6.3034978   -2.0842060    0.7822996 
C    -1.8901587   -6.4200886   -0.8505208 
C    -0.6318369   -6.2681774   -0.2455057 
C     0.1946510   -5.1985417   -0.5990226 
C    -0.2277205   -4.2385258   -1.5509322 
C    -1.4877115   -4.4203143   -2.1691593 
C    -2.3035275   -5.5045235   -1.8281107 
H    -2.5423835   -7.2499333   -0.5630128 
H    -0.2908785   -6.9942257    0.5000016 
H     1.1882068   -5.1224246   -0.1498128 
H    -1.7993663   -3.7076320   -2.9351872 
H    -3.2713257   -5.6352534   -2.3213025 
C    -7.3212769   -2.5807451   -1.7745758 
C    -8.1395378   -3.1521177   -0.7902486 
C    -7.5861335   -4.0189371    0.1638122 
C    -6.2157170   -4.3162545    0.1203708 
C    -5.4037101   -3.7547980   -0.8742209 
C    -5.9463220   -2.8736089   -1.8251828 
C    -5.1097146   -2.2659735   -2.9447641 
C    -5.0283364   -3.2347122   -4.1415753 
N    -3.7276992   -1.9039355   -2.5828802 
C    -3.1842960   -1.3210456   -1.4912562 
O    -1.9637615   -1.0293494   -1.4882423 
C    -3.9775704   -1.0984288   -0.2440234 
C    -5.1721208   -0.3616048   -0.2383147 
C    -5.8892102   -0.1835799    0.9502467 
C    -5.4165555   -0.7630853    2.1353124 
C    -4.2124877   -1.4801851    2.1377675 
C    -3.4684992   -1.6438243    0.9586250 
C    -2.1280094   -2.3647188    0.9520107 
C    -0.1666238   -1.5573531    2.6849400 
N    -1.2348772   -2.4621565    3.1927784 
N    -1.8836610   -3.1888724    2.1411411 
C    -1.0720974   -2.9943103    4.4680477 
O    -0.4212614   -2.3811693    5.3109895 
C    -1.6182162   -4.3920542    4.6819281 
C    -2.8265486   -4.7373624    3.8114053 
C    -2.6975588   -4.2923607    2.3668812 
O    -3.3273465   -4.7961093    1.4419349 
C     1.2023842   -2.1990821    2.8308912 
C     2.1457678   -1.7456248    3.7825083 
C     3.3937351   -2.3902517    3.8885481 
C     3.7071662   -3.4884764    3.0776519 
C     2.7511435   -3.9738135    2.1738924 
C     1.5116941   -3.3312411    2.0602379 
C     1.8230406   -0.5987831    4.6934628 
O     1.3031927    0.4614869    4.2900553 
N     2.1356235   -0.7670987    6.0010902 
C     1.7493407    0.2424693    7.0003093 
C     1.7745593   -0.3997683    8.3954173 
C     2.6396942    1.4796838    6.9179175 
C     2.0755786    2.7622578    7.0294341 
C     2.8870761    3.9057728    7.0109449 
C     4.2779919    3.7777210    6.8848021 
C     4.8503467    2.5012217    6.7690613 
C     4.0353531    1.3606346    6.7842236 
C    -1.3213915    0.5346983    1.0355482 
C    -2.0630948    0.9330987    2.1645727 
C    -2.5333002    2.2450263    2.2842990 
C    -2.2510927    3.1821987    1.2819580 
C    -1.4963352    2.8028901    0.1669142 
C    -1.0298327    1.4802762    0.0225304 
C    -0.4097825    1.6368470   -2.9856640 
C    -1.8458960    1.3827073   -3.4064511 
C    -2.8732220    2.2028290   -2.9049513 
C    -4.1945608    2.0722583   -3.3407962 
C    -4.5190307    1.1124921   -4.3101686 
C    -3.5182708    0.2608231   -4.7860738 
C    -2.1861978    0.3745104   -4.3408882 
C    -1.2548055   -0.7220033   -4.7982070 
O    -1.5211285   -1.9017927   -4.5046128 
N    -0.1487975   -0.4125369   -5.5337639 
C     0.0209269    0.8052231   -6.3444963 
C    -0.2978762    0.4940601   -7.8217276 
C     1.4013484    1.4381676   -6.1833426 
C     2.5005533    0.7614456   -5.6259630 
C     3.7594691    1.3795192   -5.5501427 
C     3.9367195    2.6863510   -6.0207639 
C     2.8431729    3.3761299   -6.5687846 
C     1.5902334    2.7562258   -6.6510025 
C     1.3334516    2.5033759   -1.1115828 
N     0.8439803    3.5161940   -2.0395130 
N    -0.0831000    3.0799557   -3.0314160 
C     1.0702075    4.8568772   -1.7722972 
O     1.8270641    5.1854413   -0.8627353 
C     0.3537283    5.8098415   -2.7075853 
C     0.3254039    5.2330274   -4.1257067 
C    -0.3090077    3.8542296   -4.1627321 
O    -0.9952525    3.4479985   -5.0968964 
C     2.8169401    2.2224193   -1.2097491 
C     3.5909608    2.6315546   -2.3040797 
C     4.9825065    2.4733351   -2.2844061 
C     5.6100925    1.9013964   -1.1696708 
C     4.8401352    1.4562233   -0.0870346 
C     3.4451862    1.6124097   -0.1012442 
C     2.6213397    1.0365023    1.0241798 
O     2.3274717   -0.1903410    1.0116630 
N     2.1930698    1.8262077    2.0196521 
C     2.5220994    3.2472635    2.2542419 
C     3.6962371    3.3528474    3.2454853 
C     1.2865129    3.9982827    2.7546634 
C     0.8947677    5.2013772    2.1383539 
C    -0.2004400    5.9305162    2.6279693 
C    -0.9184247    5.4683481    3.7401501 
C    -0.5324637    4.2689246    4.3582337 
C     0.5623349    3.5402038    3.8737673 
H    -7.7543353   -1.8888677   -2.5076911 
H    -9.2078659   -2.9118434   -0.7631324 
H    -8.2210218   -4.4571530    0.9414382 
H    -5.7564788   -4.9740701    0.8639996 
H    -4.3338431   -3.9807115   -0.8716500 
H    -5.6236653   -1.3455606   -3.2885315 
H    -4.5584728   -4.1837524   -3.8331076 
H    -6.0418387   -3.4552623   -4.5118845 
H    -4.4335301   -2.8029994   -4.9656303 
H    -3.0286943   -1.9744633   -3.3454685 
H    -5.5414546    0.0664452   -1.1750396 
H    -6.8232571    0.3866232    0.9472875 
H    -5.9828763   -0.6524746    3.0656978 
H    -3.8429585   -1.9061304    3.0751415 
H    -2.0352753   -3.0217260    0.0727046 
H    -0.2058126   -0.6231914    3.2575686 
H    -0.7698328   -5.0610618    4.4327296 
H    -1.8238097   -4.5210037    5.7554604 
H    -3.0464395   -5.8159883    3.8138732 
H    -3.7337642   -4.2290664    4.1942466 
H     4.1296571   -2.0136398    4.6072429 
H     4.6874522   -3.9691095    3.1589746 
H     2.9760681   -4.8481224    1.5531397 
H     0.7607051   -3.7116787    1.3610286 
H     2.3193400   -1.7176005    6.3191124 
H     0.7149740    0.5508397    6.7610011 
H     1.0874255   -1.2637291    8.4362862 
H     1.4570116    0.3370454    9.1500211 
H     2.7948075   -0.7328090    8.6570244 
H     0.9882774    2.8681326    7.1199462 
H     2.4294223    4.8978086    7.0839536 
H     4.9135809    4.6692445    6.8675365 
H     5.9354795    2.3942997    6.6644624 
H     4.4844212    0.3656433    6.6843345 
H    -2.2698372    0.2161614    2.9639748 
H    -3.1002170    2.5412401    3.1717034 
H    -2.5830269    4.2189099    1.3870042 
H    -1.2375693    3.5585151   -0.5808360 
H     0.2796154    1.1071822   -3.6672497 
H    -2.6226036    2.9847757   -2.1855279 
H    -4.9656607    2.7379963   -2.9397541 
H    -5.5424505    1.0242392   -4.6885022 
H    -3.7620078   -0.5148148   -5.5192555 
H     0.3635627   -1.2454135   -5.8378716 
H    -0.7175336    1.5345627   -5.9683750 
H     0.4031055   -0.2590475   -8.2240971 
H    -1.3281295    0.1101483   -7.9159798 
H    -0.2062162    1.4051016   -8.4350262 
H     2.3817689   -0.2581480   -5.2439032 
H     4.6050914    0.8401131   -5.1134705 
H     4.9193960    3.1658165   -5.9611823 
H     2.9682137    4.3995187   -6.9390173 
H     0.7383877    3.3042578   -7.0663285 
H     1.1376343    2.8884664   -0.0967650 
H    -0.6783183    5.9551490   -2.3318005 
H     0.8676275    6.7807961   -2.6558008 
H    -0.2337030    5.8662953   -4.8302675 
H     1.3560849    5.1267754   -4.5184049 
H     3.1032786    3.0987361   -3.1648823 
H     5.5771015    2.8069424   -3.1409753 
H     6.6972947    1.7838456   -1.1469084 
H     5.3201037    0.9799993    0.7728294 
H     1.7225578    1.3107190    2.7933635 
H     2.8231257    3.6768560    1.2832849 
H     4.5911206    2.8571775    2.8301416 
H     3.9349852    4.4109129    3.4421140 
H     3.4370900    2.8736327    4.2042966 
H     1.4440168    5.5653040    1.2655219 
H    -0.4876881    6.8677688    2.1382140 
H    -1.7696286    6.0403864    4.1257415 
H    -1.0840967    3.8977715    5.2296252 
H     0.8486995    2.6107684    4.3738242 
