197
Energy =
C     0.9345372   -1.8190082   -2.8342095 
C     0.5850617   -2.8935024   -1.9636176 
C    -0.6928486   -2.9109050   -1.3536766 
H     1.3455002   -3.6261516   -1.6681840 
Pd    0.4677218   -1.0205020   -0.8276769 
P    -0.4730215   -0.3014283    1.1749132 
P     1.0788148    1.2075408   -1.1031182 
H     0.0928353   -1.3355581   -3.3514187 
H    -1.4797516   -2.3139587   -1.8404023 
C     4.6426206   -1.5295144   -4.9993490 
C     4.5799589   -2.3093954   -3.8318220 
C     3.4002402   -2.3758554   -3.0852362 
C     2.2422277   -1.6814708   -3.5054170 
C     2.3328112   -0.8694023   -4.6585636 
C     3.5190039   -0.7916075   -5.3981145 
H     5.5669250   -1.4893806   -5.5850223 
H     5.4626701   -2.8637465   -3.4972978 
H     3.3801359   -2.9716778   -2.1667963 
H     1.4558401   -0.3055578   -4.9894679 
H     3.5556292   -0.1645665   -6.2956567 
C    -2.2372779   -5.9335385    1.2886680 
C    -3.0868983   -4.9809071    0.7082618 
C    -2.5662069   -3.9975928   -0.1416013 
C    -1.1820427   -3.9441453   -0.4260093 
C    -0.3369355   -4.9159500    0.1648454 
C    -0.8582642   -5.8972044    1.0126706 
H    -2.6447430   -6.7090678    1.9460649 
H    -4.1610992   -4.9911724    0.9100612 
H    -3.2486901   -3.2770661   -0.6056075 
H     0.7366683   -4.9160177   -0.0493926 
H    -0.1892730   -6.6425959    1.4552434 
C    -5.0954865   -2.4260602   -2.8443589 
C    -5.2164942   -3.8161879   -2.9743947 
C    -5.7894642   -4.5771313   -1.9429253 
C    -6.2287242   -3.9399848   -0.7737430 
C    -6.0938072   -2.5502150   -0.6340507 
C    -5.5361353   -1.7795739   -1.6698583 
C    -5.4130748   -0.2638237   -1.5144242 
C    -6.2862624    0.5022024   -2.5237698 
N    -4.0037338    0.1316261   -1.6569570 
C    -3.1781630    0.6241603   -0.7215118 
O    -1.9399062    0.6996339   -0.9175986 
C    -3.7096984    1.0421300    0.6195807 
C    -4.5766843    2.1320902    0.7968960 
C    -4.9664566    2.5146436    2.0885366 
C    -4.5028540    1.7952794    3.2003832 
C    -3.6387664    0.7051336    3.0245529 
C    -3.2283730    0.3285956    1.7374998 
C    -2.2695724   -0.8156254    1.4727785 
C     0.0465136   -0.9239474    2.9087115 
N    -1.0309056   -1.8478860    3.3260221 
N    -2.2185955   -1.8182970    2.5313518 
C    -0.8760805   -2.7722018    4.3344112 
O     0.0653846   -2.7015531    5.1340677 
C    -1.9023036   -3.8841865    4.3581484 
C    -3.3160621   -3.3596984    4.0989468 
C    -3.3835510   -2.5045651    2.8505206 
O    -4.3826880   -2.3655071    2.1519299 
C     1.4128176   -1.5869162    2.8891487 
C     2.4869367   -1.1053423    3.6691520 
C     3.7727031   -1.6473055    3.4882674 
C     3.9890306   -2.6876626    2.5778681 
C     2.9109585   -3.2019176    1.8410152 
C     1.6368627   -2.6476352    1.9954634 
C     2.3256493   -0.0098233    4.6950744 
O     3.0352856    1.0157340    4.6733241 
N     1.3749822   -0.2513350    5.6229010 
C     1.0392307    0.6692012    6.7123701 
C    -0.4128926    1.1640125    6.5455292 
C     1.2635004    0.0307832    8.0804543 
C     0.8519250   -1.2890413    8.3513488 
C     1.0272438   -1.8388606    9.6290686 
C     1.6099733   -1.0775784   10.6535899 
C     2.0211594    0.2373544   10.3922971 
C     1.8494351    0.7853145    9.1128432 
C    -0.3102798    1.5263587    1.3125324 
C    -0.7312070    2.2382207    2.4472358 
C    -0.5189275    3.6202414    2.5447489 
C     0.1379272    4.2985623    1.5120921 
C     0.5685704    3.5956630    0.3782834 
C     0.3395348    2.2142406    0.2577797 
C     0.4741629    1.7480117   -2.8557551 
C    -0.8513927    2.4510920   -3.0372541 
C    -1.0451925    3.7635468   -2.5729604 
C    -2.2828893    4.4018427   -2.7103087 
C    -3.3499023    3.7310011   -3.3262703 
C    -3.1615027    2.4344973   -3.8200508 
C    -1.9164176    1.7927827   -3.6913789 
C    -1.8053286    0.4007622   -4.2740417 
O    -2.4241374   -0.5693962   -3.7919234 
N    -1.0735700    0.2861545   -5.4031572 
C    -1.0535392   -0.9540117   -6.2014793 
C    -0.2700579   -0.6916726   -7.4976291 
C    -2.4705415   -1.4508246   -6.4820607 
C    -2.7732162   -2.8179515   -6.3724112 
C    -4.0664709   -3.2868436   -6.6449873 
C    -5.0768332   -2.3891634   -7.0202779 
C    -4.7809619   -1.0217759   -7.1354706 
C    -3.4842241   -0.5578732   -6.8750551 
C     2.7396168    2.1282660   -1.3229133 
N     2.5121509    3.0044483   -2.4702787 
N     1.6096087    2.4930567   -3.4237861 
C     3.1738179    4.2117358   -2.6651850 
O     3.9397793    4.6561970   -1.8217843 
C     2.8998456    4.8272745   -4.0309727 
C     2.8571938    3.7231960   -5.1016997 
C     1.7531493    2.7322259   -4.7695808 
O     0.9862416    2.2389960   -5.6027645 
C     3.9925427    1.2778948   -1.3955752 
C     4.7134590    1.1099329   -2.5842213 
C     5.9314025    0.4157276   -2.5880689 
C     6.4338617   -0.1330466   -1.4011167 
C     5.7177437    0.0258446   -0.2072186 
C     4.5042509    0.7355789   -0.1932634 
C     3.7075286    0.8461719    1.0760273 
O     2.5002007    0.5080358    1.0696421 
N     4.3286943    1.2498613    2.2016382 
C     5.4178206    2.2484348    2.2848860 
C     6.3336733    1.9136615    3.4679288 
C     4.7562123    3.6269772    2.3550098 
C     4.7252050    4.4398512    1.2086612 
C     4.0311727    5.6596911    1.2124594 
C     3.3628483    6.0813623    2.3705458 
C     3.3815124    5.2711035    3.5179394 
C     4.0687653    4.0500022    3.5111362 
H    -4.6391576   -1.8562365   -3.6618037 
H    -4.8634683   -4.3019022   -3.8897083 
H    -5.8868491   -5.6628375   -2.0486948 
H    -6.6727461   -4.5240105    0.0396755 
H    -6.4049832   -2.0664327    0.2970140 
H    -5.7235424    0.0023770   -0.4912885 
H    -6.1892602    1.5909506   -2.3688679 
H    -5.9828194    0.2666015   -3.5589810 
H    -7.3445419    0.2164356   -2.4057987 
H    -3.4940326   -0.1682617   -2.5202856 
H    -4.9353727    2.6832995   -0.0788528 
H    -5.6387412    3.3673998    2.2271977 
H    -4.8183263    2.0811160    4.2090544 
H    -3.2852471    0.1401528    3.8943409 
H    -2.5771893   -1.3343834    0.5512958 
H     0.0531419   -0.0430986    3.5697476 
H    -1.6183212   -4.5989831    3.5613957 
H    -1.8153540   -4.3968818    5.3266951 
H    -4.0473408   -4.1737534    3.9835161 
H    -3.6610765   -2.7310015    4.9433565 
H     4.6003039   -1.2458855    4.0809127 
H     4.9931035   -3.1064397    2.4541311 
H     3.0662011   -4.0285199    1.1390132 
H     0.7950615   -3.0353650    1.4121202 
H     0.9001211   -1.1697487    5.5621691 
H     1.7268763    1.5230244    6.5995769 
H    -0.5293749    1.6967951    5.5851755 
H    -0.6813250    1.8512810    7.3650300 
H    -1.1167339    0.3125646    6.5704837 
H     0.4030908   -1.9040133    7.5624137 
H     0.7096720   -2.8689016    9.8241795 
H     1.7472346   -1.5095583   11.6505155 
H     2.4834372    0.8368335   11.1838283 
H     2.1792661    1.8114756    8.9112937 
H    -1.2296888    1.7192702    3.2696973 
H    -0.8500633    4.1578808    3.4387413 
H     0.3442783    5.3695944    1.5937466 
H     1.1213748    4.1375278   -0.3956666 
H     0.4382724    0.7870252   -3.3855426 
H    -0.2148146    4.2914844   -2.0974854 
H    -2.4143276    5.4220498   -2.3355841 
H    -4.3219846    4.2222853   -3.4381853 
H    -3.9805610    1.9115061   -4.3238785 
H    -0.4772172    1.0841581   -5.6734118 
H    -0.5334094   -1.7383821   -5.6183216 
H     0.7522799   -0.3363205   -7.2814532 
H    -0.2031525   -1.6216961   -8.0837065 
H    -0.7834089    0.0678579   -8.1118179 
H    -1.9932842   -3.5205013   -6.0556071 
H    -4.2875971   -4.3561648   -6.5575554 
H    -6.0893949   -2.7529017   -7.2234508 
H    -5.5631754   -0.3147903   -7.4328578 
H    -3.2592958    0.5122363   -6.9575253 
H     2.8288466    2.7800135   -0.4386399 
H     1.9306330    5.3615302   -4.0005504 
H     3.6886235    5.5695929   -4.2207641 
H     2.6510215    4.1178338   -6.1075071 
H     3.8265042    3.1899285   -5.1451025 
H     4.3277981    1.5332534   -3.5153450 
H     6.4853913    0.3035473   -3.5245320 
H     7.3828871   -0.6788791   -1.4032322 
H     6.0935526   -0.3981720    0.7299248 
H     3.7449407    1.2070162    3.0660658 
H     5.9952704    2.1954015    1.3476924 
H     6.8217306    0.9372005    3.3049252 
H     7.1119069    2.6862182    3.5805492 
H     5.7586004    1.8539995    4.4072804 
H     5.2275084    4.1162940    0.2910528 
H     4.0166210    6.2664369    0.3018619 
H     2.8278374    7.0377774    2.3814826 
H     2.8543253    5.5906246    4.4237784 
H     4.0425574    3.4110989    4.3998962 
