197
Energy =
C    -2.3486227   -2.6885772   -3.1171697 
C    -0.9578748   -2.9381090   -3.2768374 
C    -0.1714493   -3.4677875   -2.2216923 
H    -0.4569075   -2.5813423   -4.1855663 
Pd   -1.1294366   -1.5283989   -1.6264375 
P     0.3700312   -0.4433036   -0.1920171 
P    -2.4829628    0.3206956   -1.2456376 
H    -2.9055278   -3.2940630   -2.3863064 
H    -0.6852103   -4.0957571   -1.4788818 
C    -4.7022559   -0.9812100   -6.2969258 
C    -3.3477141   -0.6390913   -6.1682288 
C    -2.5802474   -1.1764243   -5.1301534 
C    -3.1512842   -2.0711900   -4.1925459 
C    -4.5164267   -2.4045109   -4.3351598 
C    -5.2814401   -1.8676830   -5.3781857 
H    -5.3079935   -0.5417512   -7.0945289 
H    -2.8912140    0.0699492   -6.8664965 
H    -1.5343706   -0.8767080   -5.0184428 
H    -4.9675090   -3.1117663   -3.6328842 
H    -6.3373797   -2.1416252   -5.4738339 
C     4.0622609   -4.1434801   -2.6407644 
C     3.2792325   -5.0042580   -1.8568621 
C     1.9054533   -4.7685912   -1.7076529 
C     1.2873297   -3.6709222   -2.3469629 
C     2.0923519   -2.8108199   -3.1293071 
C     3.4625389   -3.0435567   -3.2769271 
H     5.1353966   -4.3265464   -2.7575109 
H     3.7363013   -5.8708748   -1.3674562 
H     1.2988248   -5.4574863   -1.1093932 
H     1.6316123   -1.9413203   -3.6119121 
H     4.0730131   -2.3546837   -3.8675657 
C    -3.2407503   -1.8317951    6.1483635 
C    -2.7526963   -2.6389293    7.1849588 
C    -3.0381106   -4.0137552    7.2020484 
C    -3.8189998   -4.5750979    6.1804977 
C    -4.2974562   -3.7657767    5.1383667 
C    -4.0078447   -2.3895256    5.1058290 
C    -4.4328220   -1.5432524    3.9089656 
C    -5.2225504   -0.2736464    4.2731578 
N    -3.2229333   -1.1767713    3.1476851 
C    -2.9724878   -1.3500958    1.8442732 
O    -1.9418133   -0.8774998    1.3036840 
C    -3.9455269   -2.0753283    0.9604830 
C    -4.2263669   -3.4434043    1.1134060 
C    -5.0724999   -4.0930873    0.2032058 
C    -5.6501980   -3.3687042   -0.8503299 
C    -5.3609576   -2.0054130   -1.0116226 
C    -4.4988946   -1.3517336   -0.1194040 
C    -4.1168466    0.1071842   -0.2834139 
C    -3.3667746    1.1779455   -2.7109056 
N    -4.7896900    1.0283038   -2.3985888 
N    -5.0792888    0.9101173   -1.0209168 
C    -5.7831206    1.2006016   -3.3525515 
O    -5.4982041    1.3974326   -4.5266620 
C    -7.1888089    1.1960381   -2.7645567 
C    -7.2221056    1.9871582   -1.4438178 
C    -6.2469606    1.3861215   -0.4383935 
O    -6.4467963    1.2504412    0.7621797 
C    -2.9620844    2.6056497   -3.0386187 
C    -1.8003089    2.8740304   -3.8018636 
C    -1.4562882    4.2049347   -4.1147670 
C    -2.2527537    5.2734818   -3.6886568 
C    -3.4181824    5.0090300   -2.9570538 
C    -3.7646694    3.6888474   -2.6440037 
C    -0.8857502    1.7621615   -4.2070461 
O    -0.6014543    0.8375513   -3.4203734 
N    -0.3487762    1.8328164   -5.4544576 
C     0.8177824    1.0281176   -5.8605901 
C     0.7978186    0.8146269   -7.3801563 
C     2.1110259    1.6731619   -5.3592618 
C     2.3735985    3.0362887   -5.5997542 
C     3.5484648    3.6324185   -5.1230959 
C     4.4785558    2.8710113   -4.3981256 
C     4.2309194    1.5140057   -4.1542912 
C     3.0531951    0.9228361   -4.6362677 
C    -1.5858102    1.5577776   -0.2318821 
C    -2.1757563    2.7705998    0.1675862 
C    -1.5156759    3.6125520    1.0718590 
C    -0.2784195    3.2320124    1.6103105 
C     0.3048892    2.0122813    1.2452213 
C    -0.3364506    1.1776766    0.3123575 
C     2.0868841   -0.0343648   -0.9257020 
C     2.4483830    1.4467187   -0.8888784 
C     1.7742531    2.2476135   -1.8292577 
C     1.9317065    3.6346037   -1.8639667 
C     2.7901547    4.2591198   -0.9498162 
C     3.4904092    3.4764772   -0.0271811 
C     3.3324145    2.0740742    0.0138120 
C     4.0479162    1.3425017    1.1181857 
O     3.4236481    0.8329448    2.0627620 
N     5.4125270    1.3216175    1.0558983 
C     6.2654113    1.8652369   -0.0175548 
C     7.4879163    0.9546049   -0.2293885 
C     6.6912947    3.3112692    0.2340365 
C     6.8790618    4.1732854   -0.8622272 
C     7.2918100    5.4984576   -0.6692582 
C     7.5226652    5.9806940    0.6283126 
C     7.3396220    5.1287123    1.7273952 
C     6.9271557    3.8022906    1.5303653 
C     1.1612658   -1.1592417    1.3778131 
N     2.4960891   -1.5831787    0.9375581 
N     2.9904620   -0.9709027   -0.2535735 
C     3.3087088   -2.3427743    1.7557700 
O     3.0166019   -2.5607434    2.9329573 
C     4.4853776   -2.9795898    1.0487194 
C     5.2027909   -1.9959806    0.1251448 
C     4.2791519   -1.1350178   -0.7150721 
O     4.6499024   -0.5446927   -1.7328384 
C     0.4021109   -2.3275059    1.9800393 
C     0.2479706   -3.5054360    1.2337981 
C    -0.4865875   -4.5854146    1.7341720 
C    -1.0777762   -4.4963493    3.0043406 
C    -0.9119624   -3.3340526    3.7673693 
C    -0.1660897   -2.2522802    3.2665364 
C     0.0090659   -1.0418525    4.1458129 
O    -0.9506713   -0.3415597    4.5226459 
N     1.2827734   -0.8000004    4.5229853 
C     1.6068543    0.2629462    5.4849485 
C     3.1283845    0.4656187    5.5151866 
C     1.0180940   -0.0679558    6.8571355 
C     0.1955893    0.8533249    7.5260310 
C    -0.3440300    0.5489791    8.7845981 
C    -0.0678724   -0.6872703    9.3875470 
C     0.7469559   -1.6176708    8.7223521 
C     1.2839198   -1.3092255    7.4653473 
H    -2.9784931   -0.7695516    6.1363193 
H    -2.1337057   -2.1910069    7.9692047 
H    -2.6538407   -4.6451199    8.0102869 
H    -4.0542908   -5.6449508    6.1926201 
H    -4.8990649   -4.2101068    4.3362068 
H    -5.0609108   -2.1620872    3.2489599 
H    -5.5463391    0.2452300    3.3543326 
H    -6.1139367   -0.5403759    4.8657004 
H    -4.6051166    0.4190821    4.8705447 
H    -2.4342805   -0.7376050    3.6841449 
H    -3.7705188   -3.9922496    1.9435153 
H    -5.2909239   -5.1591583    0.3233637 
H    -6.3299201   -3.8669716   -1.5498029 
H    -5.8046625   -1.4461676   -1.8399969 
H    -3.9793724    0.5787956    0.7012770 
H    -3.1583302    0.5316279   -3.5796649 
H    -7.8626011    1.6200269   -3.5233234 
H    -7.5017418    0.1491773   -2.5852011 
H    -6.9536381    3.0461150   -1.6246467 
H    -8.2177636    1.9797694   -0.9760065 
H    -0.5345732    4.4033281   -4.6731723 
H    -1.9675032    6.3025905   -3.9278477 
H    -4.0624684    5.8310934   -2.6292212 
H    -4.6855386    3.4943358   -2.0867898 
H    -0.6483716    2.5922402   -6.0643365 
H     0.7030585    0.0565262   -5.3517884 
H     1.6589820    0.1973923   -7.6819948 
H     0.8737587    1.7777719   -7.9165535 
H    -0.1309811    0.3058350   -7.6917267 
H     1.6549427    3.6432324   -6.1642276 
H     3.7375033    4.6938636   -5.3157872 
H     5.3915534    3.3408008   -4.0176869 
H     4.9257618    0.9113197   -3.5647419 
H     2.8602786   -0.1346610   -4.4275950 
H    -3.1608597    3.0532403   -0.2110501 
H    -1.9803915    4.5580674    1.3693307 
H     0.2339276    3.8798309    2.3285116 
H     1.2641672    1.7190104    1.6857843 
H     2.0365309   -0.3315414   -1.9853259 
H     1.0975139    1.7604120   -2.5320046 
H     1.3824585    4.2215107   -2.6061550 
H     2.9242249    5.3454830   -0.9556656 
H     4.1679312    3.9538567    0.6867687 
H     5.8669717    0.9261025    1.8817577 
H     5.6545630    1.8342437   -0.9350823 
H     7.1729022   -0.0387624   -0.5861166 
H     8.1516961    1.4005919   -0.9873965 
H     8.0705859    0.8511587    0.7039886 
H     6.6865316    3.8035042   -1.8763079 
H     7.4273113    6.1586373   -1.5326717 
H     7.8414419    7.0168771    0.7821970 
H     7.5169949    5.4974424    2.7433163 
H     6.7728405    3.1518680    2.3986369 
H     1.2538420   -0.3214827    2.0871379 
H     5.1583133   -3.3940942    1.8128474 
H     4.0739065   -3.8198826    0.4577735 
H     5.8077138   -1.2879900    0.7193151 
H     5.8904873   -2.5048276   -0.5679100 
H     0.7341434   -3.5667362    0.2584786 
H    -0.5943328   -5.4980963    1.1374427 
H    -1.6543959   -5.3330409    3.4122420 
H    -1.3517312   -3.2629899    4.7662088 
H     2.0169807   -1.4187082    4.1455270 
H     1.1185577    1.1861011    5.1231998 
H     3.5016647    0.6995952    4.5038705 
H     3.3801236    1.2911833    6.2005337 
H     3.6345369   -0.4454534    5.8811886 
H    -0.0370898    1.8116284    7.0476391 
H    -0.9867540    1.2760656    9.2927400 
H    -0.4885939   -0.9268854   10.3700646 
H     0.9624832   -2.5874375    9.1841379 
H     1.9046539   -2.0468583    6.9430575 
