197
Energy =
C    -1.1885245   -3.5500114   -1.2240212 
C    -0.1021222   -3.6026451   -2.1337692 
C     1.2402401   -3.7794776   -1.7066754 
H    -0.2908188   -3.3562193   -3.1858683 
Pd    0.3056733   -1.9356196   -0.7837820 
P     2.1568250   -0.6001641   -0.4331839 
P    -0.8815414   -0.1253575    0.0915054 
H    -1.0796246   -4.0895815   -0.2718072 
H     1.4221459   -4.2969604   -0.7524710 
C    -5.1988281   -3.0415906   -2.7002234 
C    -4.9430103   -3.9085908   -1.6270240 
C    -3.6415356   -4.0417225   -1.1245199 
C    -2.5707807   -3.3196765   -1.6972750 
C    -2.8472149   -2.4364167   -2.7667294 
C    -4.1474380   -2.2986315   -3.2625801 
H    -6.2163635   -2.9310718   -3.0885603 
H    -5.7583892   -4.4884869   -1.1818376 
H    -3.4449041   -4.7371401   -0.3006637 
H    -2.0314474   -1.8447049   -3.1996384 
H    -4.3488920   -1.5882726   -4.0689298 
C     4.4559715   -4.0096739   -4.5679688 
C     4.5466199   -4.6727524   -3.3365361 
C     3.5060420   -4.5744385   -2.4046939 
C     2.3553795   -3.8022351   -2.6767312 
C     2.2796701   -3.1367244   -3.9240234 
C     3.3126349   -3.2505010   -4.8590802 
H     5.2721509   -4.0752271   -5.2935828 
H     5.4281450   -5.2796231   -3.1035681 
H     3.5645509   -5.1217375   -1.4611145 
H     1.4102554   -2.5128737   -4.1487577 
H     3.2324273   -2.7326033   -5.8194083 
C    -3.0587410    4.4686358    4.2658426 
C    -4.1141647    5.3517968    3.9965326 
C    -5.4415957    4.9232123    4.1411634 
C    -5.7046642    3.6008185    4.5311333 
C    -4.6477761    2.7222905    4.8031332 
C    -3.3111398    3.1512768    4.6868850 
C    -2.1596070    2.2517514    5.1096012 
C    -2.1073632    2.1078091    6.6466428 
N    -2.2596235    0.9343575    4.4580445 
C    -1.2394872    0.0515613    4.4660628 
O    -0.1497552    0.2770281    5.0339910 
C    -1.5087050   -1.2670272    3.7835063 
C    -1.2942437   -2.4338952    4.5419541 
C    -1.5457716   -3.7007607    4.0038247 
C    -2.0293219   -3.8101254    2.6904219 
C    -2.2270980   -2.6557913    1.9264519 
C    -1.9497913   -1.3817474    2.4474953 
C    -2.0985889   -0.1757789    1.5401379 
C    -2.1810119    0.6987500   -1.0435018 
N    -3.4550838    0.3358545   -0.4367973 
N    -3.4253508   -0.1362810    0.9113253 
C    -4.6092996    0.2481018   -1.1992013 
O    -4.6170176    0.6557052   -2.3581759 
C    -5.7810924   -0.3581405   -0.4533872 
C    -5.8499943    0.1608637    0.9855457 
C    -4.5424037   -0.0019027    1.7205544 
O    -4.4519142   -0.0791598    2.9481917 
C    -1.9094397    2.1668300   -1.3472964 
C    -2.6208613    3.2677305   -0.8279649 
C    -2.2416284    4.5779610   -1.1947286 
C    -1.1505512    4.8102943   -2.0365039 
C    -0.4383334    3.7162980   -2.5457376 
C    -0.8273385    2.4154285   -2.2143368 
C    -3.7155024    3.1510613    0.1995231 
O    -3.5276706    2.6285514    1.3076736 
N    -4.8770635    3.7622366   -0.1698900 
C    -5.9994634    4.0374774    0.7258488 
C    -6.2573544    5.5570828    0.7687050 
C    -7.2634192    3.2667431    0.3458288 
C    -7.4487525    2.6977135   -0.9273996 
C    -8.6362022    2.0154343   -1.2373024 
C    -9.6511117    1.8891940   -0.2789610 
C    -9.4729609    2.4504969    0.9958191 
C    -8.2904192    3.1351701    1.3022789 
C     0.2874487    1.2291299    0.5118311 
C    -0.1373265    2.4068637    1.1540384 
C     0.7934569    3.4056937    1.4648364 
C     2.1509759    3.2262368    1.1611479 
C     2.5817351    2.0470417    0.5400384 
C     1.6524042    1.0491474    0.1934704 
C     3.3719646   -0.4074626   -1.9026378 
C     3.4304020    0.9624486   -2.5610408 
C     4.4080014    1.8938538   -2.1720709 
C     4.4835456    3.1650079   -2.7528332 
C     3.5703710    3.5333710   -3.7490327 
C     2.6178002    2.6049322   -4.1794777 
C     2.5428438    1.3217357   -3.6069231 
C     1.5313203    0.3315292   -4.0942568 
O     0.8095458   -0.2830431   -3.2798338 
N     1.4119398    0.0668136   -5.4278435 
C     1.9968824    0.6461363   -6.6604656 
C     1.7410793   -0.3587146   -7.8007443 
C     3.4760649    1.0041271   -6.5850406 
C     3.9273838    2.1164013   -7.3201295 
C     5.2847248    2.4639790   -7.3308982 
C     6.2073934    1.7040687   -6.5963479 
C     5.7646625    0.5950567   -5.8607153 
C     4.4080219    0.2417090   -5.8613003 
C     3.5481728   -1.0823435    0.7766445 
N     4.7674105   -0.7453758    0.0561171 
N     4.6536682   -0.8602537   -1.3462260 
C     5.9288473   -0.2926922    0.6713912 
O     5.9576785   -0.0458109    1.8697584 
C     7.1234454   -0.2505962   -0.2770847 
C     7.0224996   -1.3762738   -1.3236141 
C     5.7366399   -1.2232979   -2.1277517 
O     5.6410389   -1.3143176   -3.3458611 
C     3.4354966   -2.5311560    1.2219047 
C     4.2510625   -3.5347676    0.6835561 
C     4.1019307   -4.8716596    1.0827183 
C     3.1052075   -5.2252522    2.0008446 
C     2.3060514   -4.2257687    2.5716140 
C     2.4840260   -2.8809846    2.2123792 
C     1.6889300   -1.7796197    2.8485734 
O     1.0481115   -0.9935589    2.1072614 
N     1.7215015   -1.5952763    4.1812879 
C     2.3492747   -2.4080148    5.2406474 
C     2.2131567   -1.6293163    6.5638453 
C     3.8086687   -2.7642255    4.9774540 
C     4.7047297   -1.8374806    4.4165493 
C     6.0551627   -2.1705682    4.2406113 
C     6.5272423   -3.4319476    4.6330988 
C     5.6412095   -4.3610513    5.1985368 
C     4.2903948   -4.0272146    5.3659800 
H    -2.0219669    4.8105284    4.1628869 
H    -3.8995290    6.3797503    3.6842912 
H    -6.2674412    5.6161593    3.9490557 
H    -6.7381534    3.2533156    4.6375765 
H    -4.8722536    1.6957887    5.1121308 
H    -1.2050308    2.6982430    4.7760071 
H    -1.2446730    1.4863960    6.9350850 
H    -2.0057427    3.1028216    7.1112940 
H    -3.0358527    1.6424241    7.0196320 
H    -3.1360677    0.6444651    3.9886410 
H    -0.9444917   -2.3316304    5.5740220 
H    -1.3890108   -4.5965692    4.6138997 
H    -2.2578235   -4.7941880    2.2664583 
H    -2.6226414   -2.7238200    0.9102358 
H    -1.9413372    0.7633936    2.0935528 
H    -2.1225678    0.1592665   -2.0036878 
H    -6.6965618   -0.1308443   -1.0164718 
H    -5.6359351   -1.4552391   -0.4584025 
H    -6.0984921    1.2359078    0.9979696 
H    -6.6276279   -0.3479612    1.5758046 
H    -2.7991335    5.4238028   -0.7770263 
H    -0.8572914    5.8347306   -2.2873732 
H     0.4267722    3.8731774   -3.1959439 
H    -0.2673796    1.5619453   -2.6084540 
H    -4.9151092    4.1391954   -1.1163593 
H    -5.6622587    3.7021864    1.7217163 
H    -7.0950325    5.7861818    1.4469226 
H    -6.5257363    5.9332474   -0.2349361 
H    -5.3586233    6.0868710    1.1270050 
H    -6.6518318    2.7436782   -1.6768608 
H    -8.7611942    1.5764537   -2.2331075 
H   -10.5756194    1.3545639   -0.5208651 
H   -10.2568101    2.3510847    1.7542544 
H    -8.1536323    3.5633253    2.3022299 
H    -1.1942750    2.5534535    1.4059958 
H     0.4544611    4.3223938    1.9581041 
H     2.8820608    3.9977085    1.4231924 
H     3.6476890    1.8976952    0.3524259 
H     3.0489389   -1.1676220   -2.6319704 
H     5.1355610    1.6122400   -1.4056964 
H     5.2588913    3.8658088   -2.4273712 
H     3.6162783    4.5257520   -4.2074277 
H     1.9233742    2.8753557   -4.9802168 
H     0.6459489   -0.5886265   -5.5998715 
H     1.4388985    1.5731227   -6.9003411 
H     0.6635299   -0.5873827   -7.8989760 
H     2.0903901    0.0673774   -8.7541449 
H     2.2943510   -1.2959555   -7.6193014 
H     3.2070414    2.7225824   -7.8834724 
H     5.6196153    3.3331841   -7.9069811 
H     7.2676413    1.9788767   -6.5949699 
H     6.4611890   -0.0041395   -5.2676666 
H     4.0885128   -0.6101123   -5.2551816 
H     3.4753427   -0.4028181    1.6396444 
H     7.1606245    0.7359703   -0.7778950 
H     8.0296862   -0.3325087    0.3416897 
H     7.8602003   -1.3628192   -2.0360791 
H     7.0265938   -2.3617696   -0.8194786 
H     5.0109681   -3.2703151   -0.0562312 
H     4.7630749   -5.6392176    0.6669857 
H     2.9719783   -6.2704323    2.2971686 
H     1.5470423   -4.4854289    3.3159095 
H     1.0937941   -0.8221411    4.5086883 
H     1.7794994   -3.3527889    5.3450269 
H     1.1584653   -1.3800552    6.7702784 
H     2.6120941   -2.2367053    7.3915649 
H     2.7875088   -0.6888141    6.5126373 
H     4.3489708   -0.8526407    4.0955594 
H     6.7270365   -1.4379476    3.7845078 
H     7.5827749   -3.6916492    4.4973807 
H     6.0001162   -5.3498059    5.5042833 
H     3.5973943   -4.7598908    5.7976253 
