197
Energy =
C    -1.9576232   -3.3351661   -2.7353827 
C    -0.5467738   -3.3973558   -2.9010012 
C     0.3174255   -3.6837908   -1.8130904 
H    -0.1113484   -3.0783279   -3.8562028 
Pd   -0.9080758   -1.8470349   -1.4156342 
P     0.4295726   -0.4014054   -0.1502335 
P    -2.5137464   -0.1806416   -1.2095114 
H    -2.4133707   -3.9263395   -1.9268595 
H    -0.0930817   -4.2891234   -0.9916442 
C    -4.5643778   -2.3650892   -6.0262590 
C    -3.2740272   -1.8170224   -5.9711334 
C    -2.4267847   -2.1141271   -4.8991022 
C    -2.8516286   -2.9685631   -3.8525628 
C    -4.1538765   -3.5111939   -3.9222127 
C    -4.9986266   -3.2148847   -4.9992726 
H    -5.2349890   -2.1131786   -6.8527248 
H    -2.9330630   -1.1342297   -6.7561610 
H    -1.4354579   -1.6548303   -4.8484929 
H    -4.4897937   -4.1913237   -3.1338644 
H    -6.0032808   -3.6490323   -5.0367664 
C     4.6009250   -3.7879999   -2.2574331 
C     3.9577548   -4.6563331   -1.3624376 
C     2.5655556   -4.6047204   -1.2069725 
C     1.7891968   -3.6881952   -1.9506749 
C     2.4542371   -2.8172844   -2.8446993 
C     3.8425250   -2.8661446   -2.9985468 
H     5.6882798   -3.8275447   -2.3793894 
H     4.5399352   -5.3863041   -0.7899941 
H     2.0704563   -5.3000300   -0.5200158 
H     1.8680984   -2.0844278   -3.4107682 
H     4.3415442   -2.1692007   -3.6777052 
C    -3.6560026   -3.7376055    5.6296324 
C    -3.0544359   -4.3448064    6.7428836 
C    -2.3577987   -3.5629631    7.6766065 
C    -2.2802687   -2.1719419    7.5004955 
C    -2.8910475   -1.5676772    6.3932554 
C    -3.5746236   -2.3463350    5.4379577 
C    -4.1299362   -1.7126609    4.1653991 
C    -5.0978360   -0.5406505    4.4057609 
N    -2.9939665   -1.2602841    3.3392031 
C    -2.7301464   -1.5411636    2.0573481 
O    -1.7849823   -0.9866525    1.4431194 
C    -3.5922093   -2.4956669    1.2830929 
C    -3.6680803   -3.8636582    1.5938693 
C    -4.4187270   -4.7277795    0.7837057 
C    -5.1065006   -4.2186138   -0.3281083 
C    -5.0209661   -2.8551609   -0.6473854 
C    -4.2552755   -1.9868423    0.1440382 
C    -4.0920598   -0.5161753   -0.1906033 
C    -3.5243570    0.3675115   -2.7397424 
N    -4.9075217    0.0490957   -2.3790430 
N    -5.1667956    0.0496409   -0.9903322 
C    -5.9223296   -0.0338617   -3.3223542 
O    -5.6776233    0.0663513   -4.5175725 
C    -7.3079502   -0.1737226   -2.7041803 
C    -7.4467725    0.7509142   -1.4806405 
C    -6.3870462    0.4166821   -0.4374210 
O    -6.5561342    0.3933705    0.7752533 
C    -3.3367408    1.7925726   -3.2328875 
C    -2.2346924    2.1384976   -4.0514050 
C    -2.0924128    3.4614863   -4.5171574 
C    -3.0324129    4.4448187   -4.1897664 
C    -4.1391321    4.0986204   -3.4031390 
C    -4.2853748    2.7858027   -2.9383102 
C    -1.1724134    1.1309600   -4.3573088 
O    -0.7475671    0.3506709   -3.4825859 
N    -0.6663630    1.1370628   -5.6195550 
C     0.5981097    0.4642508   -5.9681084 
C     0.5924184    0.0872861   -7.4557353 
C     1.7921342    1.3342101   -5.5712397 
C     2.8385755    0.8053235   -4.7974039 
C     3.9256366    1.6036652   -4.4102031 
C     3.9761406    2.9475574   -4.8023907 
C     2.9402834    3.4886926   -5.5799933 
C     1.8564977    2.6865729   -5.9607941 
C    -1.7972261    1.2801454   -0.3634747 
C    -2.5537962    2.4331228   -0.0863547 
C    -2.0145055    3.4594352    0.6999354 
C    -0.7292811    3.3253358    1.2438509 
C     0.0220690    2.1684348    1.0020286 
C    -0.5001562    1.1487704    0.1861072 
C     2.0637721    0.1607245   -0.9667426 
C     2.2075094    1.6723450   -1.1075427 
C     1.4168591    2.2540011   -2.1158438 
C     1.3715610    3.6358073   -2.3115865 
C     2.1382791    4.4783168   -1.4962021 
C     2.9525145    3.9160671   -0.5087576 
C     2.9990881    2.5198620   -0.3044443 
C     3.8204203    2.0314509    0.8589443 
O     3.2828789    1.5506217    1.8695668 
N     5.1732437    2.1998372    0.7684223 
C     5.9323066    2.7293747   -0.3798301 
C     7.2731587    1.9853774   -0.5107952 
C     6.1450010    4.2410468   -0.3084690 
C     6.2020110    4.9841724   -1.5020413 
C     6.4201317    6.3681380   -1.4747847 
C     6.5843334    7.0296223   -0.2479981 
C     6.5302062    6.2974160    0.9471463 
C     6.3125621    4.9117676    0.9159827 
C     1.3275448   -0.8121459    1.4707954 
N     2.7065686   -1.0880163    1.0495626 
N     3.0982678   -0.5527513   -0.2144829 
C     3.6266076   -1.6233195    1.9291271 
O     3.3774970   -1.7433854    3.1300330 
C     4.8784331   -2.1620362    1.2712385 
C     5.4386955   -1.1989172    0.2253643 
C     4.3938860   -0.5819286   -0.6845319 
O     4.6678112   -0.0652232   -1.7707202 
C     0.7504626   -2.0003008    2.2183929 
C     0.7654249   -3.2662578    1.6140840 
C     0.2014777   -4.3765036    2.2509880 
C    -0.3862771   -4.2283953    3.5172159 
C    -0.3872649   -2.9741991    4.1397035 
C     0.1870754   -1.8604906    3.5015861 
C     0.1905121   -0.5449072    4.2352905 
O    -0.8580908    0.0474403    4.5564518 
N     1.4185233   -0.0804615    4.5503550 
C     1.5931501    1.1183094    5.3824052 
C     3.0683934    1.5422053    5.3480993 
C     1.0760736    0.8591076    6.7982578 
C     1.5273837   -0.2570121    7.5276164 
C     1.0568124   -0.4996873    8.8249754 
C     0.1237287    0.3716216    9.4100095 
C    -0.3367451    1.4820795    8.6868465 
C     0.1368062    1.7207877    7.3881220 
H    -4.1907278   -4.3533020    4.8963081 
H    -3.1277258   -5.4293620    6.8788485 
H    -1.8775795   -4.0354325    8.5401216 
H    -1.7285663   -1.5523238    8.2150837 
H    -2.7896433   -0.4867451    6.2571056 
H    -4.6633530   -2.4878419    3.5932360 
H    -5.5017119   -0.1819657    3.4431661 
H    -5.9353047   -0.8677256    5.0449227 
H    -4.5867854    0.2984121    4.9084189 
H    -2.2749683   -0.6527964    3.8046165 
H    -3.1288685   -4.2432361    2.4675973 
H    -4.4776484   -5.7936195    1.0269492 
H    -5.7133047   -4.8857246   -0.9496318 
H    -5.5494875   -2.4636839   -1.5210564 
H    -4.0182445    0.0794417    0.7318081 
H    -3.2294051   -0.3359431   -3.5359731 
H    -8.0419801    0.0583710   -3.4895791 
H    -7.4632218   -1.2271562   -2.4005168 
H    -7.3371880    1.8095782   -1.7861726 
H    -8.4272508    0.6539362   -0.9912675 
H    -1.2155408    3.7267965   -5.1183679 
H    -2.9033433    5.4709199   -4.5476408 
H    -4.8934551    4.8506252   -3.1504128 
H    -5.1621216    2.5240896   -2.3390321 
H    -1.0803234    1.7720991   -6.3005894 
H     0.6277468   -0.4531180   -5.3568401 
H     1.5288439   -0.4329792   -7.7128387 
H     0.5258305    0.9880260   -8.0924593 
H    -0.2584192   -0.5765740   -7.6878842 
H     2.7993117   -0.2403467   -4.4744492 
H     4.7045860    1.1717067   -3.7775505 
H     4.8172214    3.5787534   -4.4970684 
H     2.9753783    4.5389755   -5.8885122 
H     1.0530115    3.1226113   -6.5671107 
H    -3.5735377    2.5255964   -0.4673693 
H    -2.6094050    4.3558240    0.9023624 
H    -0.3095770    4.1181346    1.8710203 
H     1.0181059    2.0683480    1.4471671 
H     2.0491187   -0.2614241   -1.9841206 
H     0.8119983    1.5970497   -2.7419094 
H     0.7367553    4.0481679   -3.1014816 
H     2.1133682    5.5646190   -1.6285196 
H     3.5600929    4.5647839    0.1289245 
H     5.6850676    1.9731947    1.6238304 
H     5.3279416    2.5020107   -1.2735682 
H     7.1042755    0.9217508   -0.7418152 
H     7.8614884    2.4287655   -1.3301916 
H     7.8692789    2.0785141    0.4152146 
H     6.0608564    4.4722735   -2.4612798 
H     6.4556403    6.9331670   -2.4124373 
H     6.7513136    8.1115249   -0.2235452 
H     6.6563805    6.8062521    1.9087534 
H     6.2567690    4.3543111    1.8577725 
H     1.3026542    0.1059208    2.0793670 
H     5.6098192   -2.3844062    2.0613019 
H     4.5895292   -3.1153877    0.7893954 
H     5.9387683   -0.3477884    0.7210820 
H     6.1880237   -1.6802206   -0.4219375 
H     1.2490072   -3.3687272    0.6407704 
H     0.2246043   -5.3578366    1.7639934 
H    -0.8299153   -5.0873152    4.0313624 
H    -0.8240347   -2.8532932    5.1350044 
H     2.2315903   -0.6265926    4.2261764 
H     0.9695827    1.9146526    4.9368009 
H     3.3913912    1.7141366    4.3074451 
H     3.2036247    2.4663826    5.9330761 
H     3.7076629    0.7605729    5.7960253 
H     2.2423513   -0.9507524    7.0696139 
H     1.4170272   -1.3720425    9.3812086 
H    -0.2453617    0.1832466   10.4239272 
H    -1.0717463    2.1610276    9.1326981 
H    -0.2388435    2.5777377    6.8172450 
