197
Energy =
C     1.5551422   -2.7752415   -2.0174334 
C     1.9404811   -3.7153224   -1.0263395 
C     0.9634042   -4.3665852   -0.2275584 
H     3.0045318   -3.8548224   -0.8003462 
Pd    0.7872600   -2.1369063    0.0012599 
P    -0.7537996   -2.0166856    1.7226707 
P     0.3103154    0.0990805   -0.2990184 
H     0.5145728   -2.8392035   -2.3719799 
H    -0.0444699   -4.4450787   -0.6602788 
C     4.2366234   -1.2968913   -5.0350582 
C     2.8482467   -1.2933169   -5.2405315 
C     1.9886328   -1.7095611   -4.2168147 
C     2.4925761   -2.1527582   -2.9719684 
C     3.8912580   -2.0966927   -2.7619450 
C     4.7515894   -1.6814099   -3.7840307 
H     4.9148399   -0.9867824   -5.8365381 
H     2.4287888   -0.9698259   -6.1985322 
H     0.9087730   -1.7224346   -4.3948566 
H     4.3152962   -2.4050268   -1.8005686 
H     5.8319096   -1.6616178   -3.6075802 
C     1.7943792   -7.3930739    2.7163234 
C     0.5013057   -7.2294170    2.1969251 
C     0.2477350   -6.2292263    1.2505487 
C     1.2718854   -5.3543047    0.8232104 
C     2.5626144   -5.5119570    1.3779276 
C     2.8226969   -6.5314481    2.2980407 
H     2.0030436   -8.1873680    3.4408527 
H    -0.3146876   -7.8900447    2.5082888 
H    -0.7605972   -6.1400053    0.8333942 
H     3.3708315   -4.8292310    1.0963906 
H     3.8325955   -6.6463019    2.7048703 
C    -4.6754010   -1.8613379   -4.5136902 
C    -5.0026262   -0.6443428   -5.1254083 
C    -3.9859426    0.2006803   -5.5983218 
C    -2.6447488   -0.1780783   -5.4603343 
C    -2.3238749   -1.3983023   -4.8458064 
C    -3.3294169   -2.2521909   -4.3636855 
C    -2.9740030   -3.5662594   -3.6653662 
C    -3.3828520   -4.8080500   -4.4693407 
N    -3.5947230   -3.6073407   -2.3286859 
C    -3.0291694   -3.0459462   -1.2274558 
O    -1.8291544   -2.7036667   -1.2026353 
C    -3.9484415   -2.8151844   -0.0647487 
C    -5.2692020   -2.3850013   -0.3153248 
C    -6.1631189   -2.1343977    0.7304006 
C    -5.7430062   -2.3386833    2.0510466 
C    -4.4320337   -2.7554233    2.3088930 
C    -3.5072103   -2.9756164    1.2728915 
C    -2.0873687   -3.4042300    1.5971856 
C    -0.5092365   -2.3064755    3.5873683 
N    -1.5472013   -3.2672672    3.9455768 
N    -1.9612024   -4.0962023    2.8806464 
C    -2.0765741   -3.3711595    5.2246791 
O    -1.7827073   -2.5615877    6.0952218 
C    -2.9526851   -4.6054239    5.4179235 
C    -2.4463459   -5.7794356    4.5597468 
C    -2.4287056   -5.3838076    3.0897956 
O    -2.8341876   -6.0667644    2.1557791 
C     0.9017944   -2.7270758    3.9694984 
C     1.9184803   -1.7435908    4.0570988 
C     3.2163833   -2.1101400    4.4447253 
C     3.5068969   -3.4375413    4.7834703 
C     2.4955499   -4.4040163    4.7264733 
C     1.2058639   -4.0523038    4.3049384 
C     1.5601335   -0.3428781    3.6695851 
O     0.9586069   -0.1719589    2.5804190 
N     1.7952820    0.7146630    4.4718593 
C     2.5626868    0.8307699    5.7237159 
C     2.2893650    2.2332540    6.3014763 
C     2.2580497   -0.2486758    6.7560772 
C     0.9587735   -0.7489546    6.9486709 
C     0.7079045   -1.7200980    7.9278342 
C     1.7522433   -2.1890211    8.7386841 
C     3.0496131   -1.6852101    8.5633456 
C     3.2986574   -0.7240792    7.5742633 
C    -1.6041307   -0.3864008    1.6561713 
C    -2.6258573   -0.0349722    2.5549737 
C    -3.1227097    1.2753805    2.5818958 
C    -2.5768537    2.2523413    1.7382159 
C    -1.5388829    1.9244223    0.8564442 
C    -1.0642535    0.6024019    0.7992902 
C    -0.2076578    0.5400379   -2.0775213 
C    -1.5495851    1.2506857   -2.1924201 
C    -2.6807591    0.4251634   -2.0563435 
C    -3.9764845    0.9466968   -2.0738239 
C    -4.1685416    2.3235550   -2.2447826 
C    -3.0559441    3.1566864   -2.3997277 
C    -1.7448725    2.6368487   -2.3729663 
C    -0.6042252    3.6198512   -2.3705603 
O     0.0832061    3.7716629   -1.3471109 
N    -0.3881942    4.3578079   -3.4931876 
C    -1.1434340    4.3063375   -4.7545726 
C    -0.1997979    4.5979762   -5.9352018 
C    -2.3404569    5.2567501   -4.7690350 
C    -2.3202667    6.4815508   -4.0781863 
C    -3.4238273    7.3463957   -4.1282763 
C    -4.5610528    6.9967838   -4.8712969 
C    -4.5886711    5.7768198   -5.5646066 
C    -3.4852585    4.9143662   -5.5122417 
C     1.6041500    1.4840569   -0.2794206 
N     2.0200579    1.5247940   -1.6932891 
N     0.9670718    1.2355896   -2.6160083 
C     3.2684131    1.9398670   -2.1277090 
O     4.1291005    2.3455129   -1.3477704 
C     3.4959061    1.8503492   -3.6191586 
C     2.2632622    2.3020376   -4.3968816 
C     1.0344430    1.5333148   -3.9629808 
O     0.1255931    1.1851373   -4.7186701 
C     2.7479790    1.2252546    0.6755720 
C     3.5483760    0.0777329    0.5284144 
C     4.6055450   -0.1779876    1.4030873 
C     4.8804327    0.7195237    2.4481577 
C     4.0735087    1.8488667    2.6202735 
C     3.0035231    2.1119477    1.7432028 
C     2.0782708    3.2560495    2.0951203 
O     1.3244425    3.1560499    3.0806824 
N     2.0902947    4.3783674    1.3301810 
C     3.1369703    4.7776658    0.3760059 
C     4.2402556    5.5858050    1.0934195 
C     2.5769887    5.5581579   -0.8098297 
C     3.1925513    5.4131864   -2.0679208 
C     2.7514746    6.1526866   -3.1755903 
C     1.6877935    7.0606130   -3.0395327 
C     1.0742803    7.2187579   -1.7859232 
C     1.5168191    6.4738301   -0.6843392 
H    -5.4810979   -2.5119611   -4.1509522 
H    -6.0532893   -0.3537074   -5.2316034 
H    -4.2420625    1.1578843   -6.0648926 
H    -1.8370596    0.4766874   -5.7950255 
H    -1.2719014   -1.6792717   -4.7269984 
H    -1.8863825   -3.5835722   -3.4891111 
H    -3.0844827   -5.7301986   -3.9419833 
H    -4.4753244   -4.8321431   -4.6342549 
H    -2.8978296   -4.7890007   -5.4584680 
H    -4.5638306   -3.9153206   -2.2637823 
H    -5.5898129   -2.2185685   -1.3497066 
H    -7.1787593   -1.7882072    0.5154467 
H    -6.4326970   -2.1692017    2.8840749 
H    -4.1188016   -2.9150512    3.3438339 
H    -1.7197545   -4.0844841    0.8186704 
H    -0.7571847   -1.3544020    4.0830902 
H    -2.9457713   -4.8390198    6.4932562 
H    -3.9972551   -4.3570594    5.1478159 
H    -1.4219642   -6.0636685    4.8681751 
H    -3.0833902   -6.6709910    4.6536563 
H     3.9985417   -1.3474861    4.4907344 
H     4.5164517   -3.7113103    5.1059983 
H     2.7064464   -5.4406347    5.0030599 
H     0.4300844   -4.8199236    4.2410118 
H     1.5193547    1.6131374    4.0190461 
H     3.6429120    0.7709713    5.4784283 
H     2.5176202    3.0173508    5.5585963 
H     2.9089143    2.3923908    7.1981884 
H     1.2282804    2.3248149    6.5894106 
H     0.1358893   -0.4022016    6.3150055 
H    -0.3059923   -2.1149397    8.0356546 
H     1.5565854   -2.9486422    9.5032515 
H     3.8713931   -2.0476897    9.1904260 
H     4.3177001   -0.3449591    7.4273600 
H    -3.0229926   -0.7731887    3.2563222 
H    -3.9228461    1.5353565    3.2824531 
H    -2.9471675    3.2816525    1.7749031 
H    -1.0959804    2.6984104    0.2206149 
H    -0.3069368   -0.4253408   -2.6016406 
H    -2.5267599   -0.6467627   -1.9249987 
H    -4.8313101    0.2741847   -1.9597280 
H    -5.1760327    2.7513690   -2.2608323 
H    -3.1966821    4.2340027   -2.5264766 
H     0.3284481    5.0842746   -3.3840783 
H    -1.5130005    3.2718830   -4.8550408 
H     0.5718999    3.8172381   -6.0189974 
H    -0.7761973    4.6200860   -6.8739245 
H     0.2845042    5.5834608   -5.8140938 
H    -1.4427290    6.7549449   -3.4821106 
H    -3.3958657    8.2960697   -3.5830576 
H    -5.4234325    7.6706148   -4.9079210 
H    -5.4750086    5.4938848   -6.1426071 
H    -3.5151031    3.9559505   -6.0448926 
H     1.0693493    2.4185259   -0.0432234 
H     4.3816017    2.4605076   -3.8473492 
H     3.7385361    0.8015199   -3.8605260 
H     2.0668056    3.3740605   -4.2105806 
H     2.3768894    2.1574877   -5.4814251 
H     3.3391764   -0.6089648   -0.2993858 
H     5.2209562   -1.0738716    1.2704937 
H     5.7167905    0.5356941    3.1306978 
H     4.2636954    2.5387053    3.4493566 
H     1.4534326    5.0999744    1.6751903 
H     3.5807688    3.8451470   -0.0098417 
H     4.6852653    4.9837139    1.9046490 
H     5.0362802    5.8580793    0.3805971 
H     3.8295901    6.5167116    1.5233284 
H     4.0252247    4.7098268   -2.1729809 
H     3.2451396    6.0275723   -4.1458087 
H     1.3475944    7.6490892   -3.8987903 
H     0.2481126    7.9276499   -1.6649325 
H     1.0105423    6.6123559    0.2771922 
