197
Energy =
C    -2.1786015   -2.9977917   -2.9882428 
C    -0.7717467   -3.1992219   -3.0177024 
C    -0.0554029   -3.6239392   -1.8695352 
H    -0.2111233   -2.8837573   -3.9066434 
Pd   -1.1285982   -1.6894675   -1.4865813 
P     0.2083978   -0.4482344   -0.0213037 
P    -2.5743072    0.1230342   -1.3439234 
H    -2.7715649   -3.5743440   -2.2623420 
H    -0.6057565   -4.2173914   -1.1246544 
C    -4.3255973   -1.6033513   -6.4545876 
C    -2.9993609   -1.1976050   -6.2433831 
C    -2.2996545   -1.6339689   -5.1140216 
C    -2.9120109   -2.4882303   -4.1648795 
C    -4.2477535   -2.8874991   -4.3923046 
C    -4.9444336   -2.4523435   -5.5264268 
H    -4.8803937   -1.2423619   -7.3252962 
H    -2.5132181   -0.5177587   -6.9506487 
H    -1.2778550   -1.2846687   -4.9415968 
H    -4.7283422   -3.5664104   -3.6819104 
H    -5.9783160   -2.7759172   -5.6860311 
C     4.2173612   -4.1683673   -1.9094685 
C     3.6352721   -3.1446345   -2.6758242 
C     2.2511674   -2.9525247   -2.6515099 
C     1.4144845   -3.7791193   -1.8661797 
C     2.0147391   -4.7995842   -1.0952953 
C     3.4027091   -4.9941128   -1.1200791 
H     5.3015421   -4.3197289   -1.9295698 
H     4.2679684   -2.4810799   -3.2719134 
H     1.8036322   -2.1409797   -3.2364746 
H     1.3849813   -5.4618107   -0.4909559 
H     3.8469718   -5.8017869   -0.5286780 
C    -4.9581072   -3.8511218    4.8776890 
C    -4.6540854   -4.7060546    5.9482998 
C    -4.0037336   -4.2024581    7.0840351 
C    -3.6683306   -2.8402947    7.1450753 
C    -3.9745009   -1.9876000    6.0756393 
C    -4.6169900   -2.4873645    4.9252835 
C    -4.8871112   -1.5876555    3.7229306 
C    -5.7087573   -0.3276294    4.0495453 
N    -3.6062678   -1.1958249    3.1048292 
C    -3.2184890   -1.3779456    1.8344420 
O    -2.1782269   -0.8467169    1.3756428 
C    -4.0570873   -2.2044863    0.9014911 
C    -4.2606927   -3.5798713    1.1056937 
C    -4.9956313   -4.3283512    0.1755315 
C    -5.5433890   -3.6949398   -0.9502466 
C    -5.3269118   -2.3256129   -1.1645821 
C    -4.5717896   -1.5734951   -0.2524603 
C    -4.2576977   -0.1069447   -0.4775082 
C    -3.3938318    0.8281908   -2.9226405 
N    -4.8267970    0.6344392   -2.6906355 
N    -5.2026316    0.5968869   -1.3292361 
C    -5.7608820    0.6853995   -3.7161579 
O    -5.4068313    0.8082045   -4.8814371 
C    -7.2012173    0.6549802   -3.2195098 
C    -7.3578032    1.5344768   -1.9651012 
C    -6.4274390    1.0526451   -0.8581455 
O    -6.7015838    0.9882473    0.3336209 
C    -3.0292842    2.2464864   -3.3310452 
C    -1.8251419    2.5171458   -4.0252598 
C    -1.5190251    3.8374466   -4.4136526 
C    -2.3941433    4.8922011   -4.1319635 
C    -3.5993768    4.6229505   -3.4699597 
C    -3.9083375    3.3134227   -3.0817796 
C    -0.8314107    1.4272201   -4.2715529 
O    -0.5773671    0.5741909   -3.3981262 
N    -0.1904923    1.4373100   -5.4706276 
C     1.0371853    0.6598958   -5.7196126 
C     1.1523801    0.3370393   -7.2156101 
C     2.2589618    1.3958106   -5.1668902 
C     2.4815519    2.7520375   -5.4765689 
C     3.5894799    3.4317927   -4.9537302 
C     4.4921920    2.7622252   -4.1127762 
C     4.2851783    1.4123116   -3.8011302 
C     3.1743421    0.7369536   -4.3292530 
C    -1.8024725    1.4687831   -0.3686825 
C    -2.4559229    2.6880735   -0.1136167 
C    -1.8880803    3.6237313    0.7610855 
C    -0.6804522    3.3342471    1.4119383 
C    -0.0367826    2.1109304    1.1891322 
C    -0.5856751    1.1792245    0.2914281 
C     1.9595589   -0.0247114   -0.6624465 
C     2.2697490    1.4682236   -0.7169822 
C     1.6228264    2.1727166   -1.7490428 
C     1.7408557    3.5574946   -1.8836080 
C     2.5341135    4.2781543   -0.9813370 
C     3.2082115    3.5920516    0.0329057 
C     3.0860238    2.1927414    0.1768899 
C     3.7503258    1.5704685    1.3737446 
O     3.0760011    1.0924997    2.3017130 
N     5.1138441    1.6068719    1.4163261 
C     6.0278549    2.1090388    0.3749922 
C     7.2773506    1.2133419    0.2982809 
C     6.4069930    3.5764971    0.5738172 
C     6.7322739    4.3581600   -0.5506051 
C     7.1065746    5.7006202   -0.4060262 
C     7.1605876    6.2816882    0.8704520 
C     6.8390451    5.5108553    1.9969491 
C     6.4650044    4.1665429    1.8487571 
C     0.9055142   -1.0087365    1.6553391 
N     2.2843739   -1.4059041    1.3412296 
N     2.8412175   -0.8749654    0.1391464 
C     3.0618851   -2.0629901    2.2745806 
O     2.6914357   -2.1919900    3.4419354 
C     4.3075934   -2.7084892    1.7084092 
C     5.0546950   -1.7776096    0.7541697 
C     4.1652733   -1.0229145   -0.2153164 
O     4.5897746   -0.4991346   -1.2486917 
C     0.1562479   -2.1691687    2.2893608 
C     0.1097065   -3.3922537    1.6027678 
C    -0.6040673   -4.4829824    2.1087453 
C    -1.2912089   -4.3579713    3.3260154 
C    -1.2372032   -3.1489056    4.0290398 
C    -0.5040292   -2.0560807    3.5306530 
C    -0.4722490   -0.8012646    4.3659325 
O    -1.5199953   -0.2150595    4.7122602 
N     0.7593523   -0.3948859    4.7389374 
C     0.9715207    0.7717760    5.6179216 
C     0.8460768    2.0879171    4.8247147 
C     2.3081440    0.6356632    6.3327808 
C     3.5110610    0.5627187    5.6004108 
C     4.7378777    0.4445165    6.2673268 
C     4.7844455    0.4073777    7.6696868 
C     3.5924824    0.4842911    8.4039016 
C     2.3628061    0.5937143    7.7371830 
H    -5.4690907   -4.2486341    3.9926122 
H    -4.9289179   -5.7651871    5.8962380 
H    -3.7629023   -4.8667747    7.9206501 
H    -3.1610670   -2.4399305    8.0293307 
H    -3.6754474   -0.9358021    6.1255289 
H    -5.4418718   -2.1723476    2.9727382 
H    -5.9379399    0.2214766    3.1200559 
H    -6.6558478   -0.6109580    4.5388316 
H    -5.1553300    0.3426016    4.7298560 
H    -2.9074401   -0.7049509    3.7127818 
H    -3.8359705   -4.0539754    1.9959047 
H    -5.1541416   -5.3995957    0.3367941 
H    -6.1417491   -4.2695999   -1.6652728 
H    -5.7426882   -1.8386006   -2.0508781 
H    -4.2116171    0.4299314    0.4817430 
H    -3.0996272    0.1314470   -3.7252879 
H    -7.8406601    0.9911902   -4.0487470 
H    -7.4797398   -0.3905187   -2.9840432 
H    -7.1239158    2.5897814   -2.2053502 
H    -8.3815660    1.5120258   -1.5630654 
H    -0.5665448    4.0417332   -4.9153540 
H    -2.1383449    5.9141116   -4.4284088 
H    -4.3037855    5.4328168   -3.2548173 
H    -4.8590729    3.1137709   -2.5794703 
H    -0.4688882    2.1353081   -6.1588471 
H     0.9186875   -0.2768153   -5.1498224 
H     2.0588591   -0.2613061   -7.3997101 
H     1.2360274    1.2617335   -7.8148409 
H     0.2732614   -0.2338148   -7.5619035 
H     1.7831095    3.2880793   -6.1309324 
H     3.7467948    4.4872675   -5.2001742 
H     5.3502283    3.2986230   -3.6942649 
H     4.9575231    0.8804566   -3.1238508 
H     3.0116172   -0.3134534   -4.0658135 
H    -3.4186644    2.9039081   -0.5825848 
H    -2.4018678    4.5724508    0.9464151 
H    -0.2397871    4.0542134    2.1084835 
H     0.8972113    1.8875814    1.7141172 
H     1.9949482   -0.4009079   -1.6973987 
H     0.9971687    1.6115782   -2.4439042 
H     1.2125240    4.0675641   -2.6944536 
H     2.6367111    5.3646746   -1.0658201 
H     3.8340096    4.1444200    0.7399827 
H     5.5182500    1.2871204    2.2990822 
H     5.4817970    2.0140013   -0.5782679 
H     7.0023687    0.1962514   -0.0230694 
H     7.9855833    1.6299810   -0.4358231 
H     7.7948317    1.1728321    1.2739604 
H     6.6816145    3.9109662   -1.5506907 
H     7.3509898    6.2968916   -1.2916645 
H     7.4492917    7.3315820    0.9858500 
H     6.8768489    5.9566766    2.9965681 
H     6.1995573    3.5815403    2.7363778 
H     0.9094005   -0.1174353    2.3027794 
H     4.9374049   -3.0289185    2.5505748 
H     3.9693855   -3.6117763    1.1659943 
H     5.5950566   -1.0012560    1.3248001 
H     5.8048232   -2.3150653    0.1536506 
H     0.6650923   -3.4780955    0.6668386 
H    -0.6232224   -5.4295141    1.5570301 
H    -1.8579569   -5.1989850    3.7385921 
H    -1.7608548   -3.0460972    4.9834978 
H     1.5595007   -0.9766004    4.4434871 
H     0.1565547    0.7449364    6.3623423 
H    -0.1446007    2.1324281    4.3418394 
H     0.9470955    2.9475752    5.5088503 
H     1.6326371    2.1512093    4.0546318 
H     3.4855098    0.5996688    4.5056033 
H     5.6674240    0.3811227    5.6892959 
H     5.7451037    0.3171037    8.1880331 
H     3.6179894    0.4542087    9.4984932 
H     1.4327234    0.6465758    8.3152031 
