197
Energy =
C     1.3638514   -3.2175909   -2.3013339 
C     1.8322673   -4.0942862   -1.2904473 
C     0.9274241   -4.6434512   -0.3396126 
H     2.9102760   -4.2493429   -1.1615627 
Pd    0.8585764   -2.4160773   -0.2483533 
P    -0.4381318   -2.1215775    1.6520938 
P     0.4815392   -0.1656519   -0.6150595 
H     0.2888087   -3.2644484   -2.5340254 
H    -0.1200256   -4.7374805   -0.6615227 
C     3.7115858   -1.6341400   -5.5441700 
C     4.3607089   -2.1337970   -4.4014123 
C     3.6167598   -2.6272851   -3.3247227 
C     2.2014624   -2.6292651   -3.3618542 
C     1.5664162   -2.1034039   -4.5100134 
C     2.3093624   -1.6169534   -5.5916211 
H     4.2981365   -1.2632026   -6.3911253 
H     5.4544953   -2.1476662   -4.3547647 
H     4.1453035   -3.0278129   -2.4536997 
H     0.4733034   -2.0895058   -4.5624248 
H     1.7852239   -1.2252820   -6.4690141 
C     2.0348721   -7.4162871    2.7567498 
C     0.7085827   -7.3328930    2.3067430 
C     0.3615759   -6.4099840    1.3118922 
C     1.3294285   -5.5412192    0.7598632 
C     2.6547256   -5.6121030    1.2470395 
C     3.0042895   -6.5505372    2.2218706 
H     2.3142044   -8.1489756    3.5212676 
H    -0.0603526   -7.9989655    2.7124764 
H    -0.6722891   -6.3748464    0.9530702 
H     3.4162477   -4.9201217    0.8723354 
H     4.0376081   -6.5975014    2.5799991 
C    -5.1554990   -1.9079731   -4.0419845 
C    -5.4969495   -0.6675413   -4.5953439 
C    -4.5087101    0.1303206   -5.1939775 
C    -3.1834440   -0.3194599   -5.2396872 
C    -2.8469674   -1.5621440   -4.6801412 
C    -3.8234667   -2.3693536   -4.0741449 
C    -3.4497585   -3.7033763   -3.4240648 
C    -4.0480026   -4.9204427   -4.1413577 
N    -3.8723668   -3.6926970   -2.0106917 
C    -3.1379215   -3.1079001   -1.0273537 
O    -1.9259084   -2.8481191   -1.1737454 
C    -3.8886029   -2.7310427    0.2166910 
C    -5.1947521   -2.2101696    0.0935224 
C    -5.9231106   -1.8036720    1.2162313 
C    -5.3525823   -1.9401960    2.4887180 
C    -4.0567844   -2.4527338    2.6205964 
C    -3.2968163   -2.8326593    1.4999134 
C    -1.8948802   -3.3795288    1.6829012 
C    -0.0673019   -2.3862654    3.5099090 
N    -1.1324321   -3.2796581    3.9680677 
N    -1.7039004   -4.0756592    2.9517473 
C    -1.4526508   -3.4508681    5.3085229 
O    -0.9357901   -2.7568778    6.1749219 
C    -2.4143398   -4.6066035    5.5601645 
C    -2.0902097   -5.7896418    4.6308280 
C    -2.1932544   -5.3528041    3.1775123 
O    -2.7057373   -5.9970020    2.2685071 
C     1.3358924   -2.8467246    3.8664589 
C     2.3830276   -1.8956804    3.8565217 
C     3.6681756   -2.2601335    4.2934426 
C     3.9194065   -3.5617535    4.7489125 
C     2.8828483   -4.5036992    4.7549486 
C     1.6018112   -4.1479062    4.3097231 
C     2.1490032   -0.5445680    3.2475200 
O     1.6519468   -0.4927730    2.0967801 
N     2.5317372    0.5634497    3.9057610 
C     2.5334275    0.7484799    5.3717440 
C     3.6346149    1.7420724    5.7605145 
C     1.1156247    1.1673441    5.7680234 
C     0.2409021    0.2096064    6.3117426 
C    -1.0981146    0.5327916    6.5806128 
C    -1.5738246    1.8249297    6.3139866 
C    -0.7084097    2.7841604    5.7621001 
C     0.6260580    2.4581574    5.4836330 
C    -1.1297127   -0.4121473    1.6421077 
C    -1.9537546    0.0701701    2.6751857 
C    -2.3176061    1.4219781    2.7189434 
C    -1.8460483    2.3104555    1.7426723 
C    -1.0121084    1.8502953    0.7165806 
C    -0.6601668    0.4891156    0.6567743 
C    -0.2485744    0.2719988   -2.3204033 
C    -1.5492327    1.0634305   -2.2599842 
C    -2.6826703    0.3222530   -1.8751504 
C    -3.9324788    0.9227407   -1.7111813 
C    -4.0792034    2.2966100   -1.9420479 
C    -2.9692058    3.0445661   -2.3442108 
C    -1.7018090    2.4438861   -2.5058687 
C    -0.5464985    3.3571238   -2.8167606 
O     0.3522166    3.5588113   -1.9840241 
N    -0.5680047    3.9912565   -4.0263273 
C    -1.5506782    3.8196491   -5.1108063 
C    -0.8397074    3.8693653   -6.4753663 
C    -2.6968474    4.8295297   -5.0455550 
C    -3.9431689    4.4849145   -5.6019729 
C    -5.0121637    5.3902565   -5.5820356 
C    -4.8485781    6.6584686   -5.0032253 
C    -3.6104950    7.0118389   -4.4479130 
C    -2.5416836    6.1025914   -4.4697238 
C     1.8317012    1.1441090   -0.7960509 
N     2.0041760    1.2626425   -2.2470581 
N     0.8822388    0.8685054   -3.0394596 
C     3.0739801    1.9490476   -2.7857169 
O     3.8483355    2.5935365   -2.0752437 
C     3.2707276    1.7459833   -4.2703956 
C     1.9508163    1.8470096   -5.0333489 
C     0.8082428    1.0750584   -4.4007481 
O    -0.1805533    0.6923801   -5.0309607 
C     3.1188560    0.7414087   -0.1029333 
C     3.7568613   -0.4560324   -0.4664742 
C     4.8811124   -0.9079278    0.2308559 
C     5.3782115   -0.1639625    1.3125409 
C     4.7598958    1.0397706    1.6701905 
C     3.6416857    1.5075951    0.9575421 
C     3.0157435    2.8119148    1.3816729 
O     2.5546530    2.9783179    2.5284659 
N     3.0105626    3.7796058    0.4417980 
C     2.4543119    5.1135684    0.7072581 
C     2.4120463    5.9054194   -0.6086084 
C     3.2459933    5.8366091    1.7953318 
C     4.6524705    5.8509028    1.7695876 
C     5.3762727    6.5416629    2.7510482 
C     4.7007944    7.2302627    3.7706532 
C     3.2984534    7.2203356    3.8032605 
C     2.5777907    6.5248592    2.8216110 
H    -5.9396453   -2.5226663   -3.5822451 
H    -6.5358514   -0.3225377   -4.5599626 
H    -4.7750216    1.1050551   -5.6156005 
H    -2.3930973    0.2921953   -5.6807154 
H    -1.8045909   -1.8974497   -4.7070469 
H    -2.3513820   -3.7882618   -3.4075199 
H    -3.7334599   -5.8563802   -3.6490565 
H    -5.1522528   -4.8772148   -4.1451931 
H    -3.7124116   -4.9381361   -5.1906855 
H    -4.8447209   -3.9198272   -1.8068110 
H    -5.6330161   -2.0957102   -0.9040214 
H    -6.9287949   -1.3884435    1.0984489 
H    -5.9139771   -1.6454245    3.3810916 
H    -3.6251386   -2.5656479    3.6189215 
H    -1.6704303   -4.0964482    0.8829222 
H    -0.2316968   -1.4048681    3.9863957 
H    -2.3296896   -4.8710448    6.6244678 
H    -3.4520261   -4.2622883    5.3850645 
H    -1.0652659   -6.1620999    4.8217271 
H    -2.7812083   -6.6339067    4.7704197 
H     4.4688201   -1.5135992    4.2646952 
H     4.9199892   -3.8377694    5.0972004 
H     3.0659913   -5.5235749    5.1057679 
H     0.8026331   -4.8938228    4.3139971 
H     2.4264591    1.4544014    3.3660793 
H     2.7402867   -0.2299976    5.8353082 
H     4.6249463    1.3260188    5.5069003 
H     3.6016558    1.9464750    6.8431567 
H     3.5187290    2.6955568    5.2178518 
H     0.5922833   -0.8079197    6.5131595 
H    -1.7562153   -0.2346136    7.0007631 
H    -2.6150155    2.0863293    6.5346942 
H    -1.0759165    3.7929211    5.5430887 
H     1.2787947    3.2050800    5.0190889 
H    -2.2910459   -0.5955315    3.4740018 
H    -2.9457778    1.7828894    3.5382352 
H    -2.1124222    3.3710813    1.7871349 
H    -0.6311471    2.5539673   -0.0318465 
H    -0.4776208   -0.6946136   -2.7980568 
H    -2.5639018   -0.7467475   -1.6926780 
H    -4.7881623    0.3143374   -1.4059579 
H    -5.0501158    2.7861694   -1.8168677 
H    -3.0744594    4.1177624   -2.5281498 
H     0.1654681    4.6929285   -4.1479813 
H    -1.9700214    2.8080439   -4.9819189 
H    -0.1437872    3.0219436   -6.5784860 
H    -1.5860361    3.8053668   -7.2833850 
H    -0.2937593    4.8218377   -6.6011810 
H    -4.0780152    3.4928452   -6.0495111 
H    -5.9768230    5.1042513   -6.0147414 
H    -5.6832867    7.3668425   -4.9836172 
H    -3.4741096    7.9990818   -3.9937953 
H    -1.5849828    6.3858549   -4.0171288 
H     1.4198255    2.0840253   -0.3953635 
H     4.0063588    2.4848330   -4.6188045 
H     3.7070023    0.7374674   -4.3978974 
H     1.6149612    2.8989010   -5.0736316 
H     2.0449465    1.4981921   -6.0730249 
H     3.3582401   -1.0349017   -1.3059675 
H     5.3668226   -1.8446872   -0.0632488 
H     6.2533197   -0.5159305    1.8687498 
H     5.1420260    1.6354726    2.5049554 
H     3.3917296    3.5399848   -0.4869239 
H     1.4230330    4.9694878    1.0803835 
H     1.8051331    5.3673715   -1.3558989 
H     1.9715533    6.8992749   -0.4276723 
H     3.4330704    6.0529249   -1.0030443 
H     5.1836573    5.3041014    0.9814364 
H     6.4714341    6.5428613    2.7208057 
H     5.2656453    7.7692612    4.5387392 
H     2.7641379    7.7493084    4.6000040 
H     1.4819218    6.5055905    2.8581080 
