197
Energy =
C     1.0582595   -2.9889820   -2.3935909 
C     1.5402185   -3.8814066   -1.4029200 
C     0.6372654   -4.4652968   -0.4737854 
H     2.6198004   -4.0274299   -1.2772863 
Pd    0.5529838   -2.2308333   -0.3208923 
P    -0.6874702   -2.0262248    1.6281570 
P     0.1384663    0.0290796   -0.6036823 
H    -0.0155336   -3.0469926   -2.6308774 
H    -0.4098394   -4.5346666   -0.8008815 
C     3.3735685   -1.3374201   -5.6176609 
C     1.9705787   -1.3145341   -5.6455675 
C     1.2379068   -1.8137690   -4.5632381 
C     1.8892885   -2.3725505   -3.4409339 
C     3.3046050   -2.3819186   -3.4220229 
C     4.0363887   -1.8646221   -4.4958794 
H     3.9503068   -0.9483530   -6.4633381 
H     1.4362533   -0.8986722   -6.5060048 
H     0.1450317   -1.7952432   -4.6006140 
H     3.8411399   -2.8051160   -2.5665102 
H     5.1307594   -1.8825229   -4.4644903 
C     1.6906596   -7.4068154    2.4789819 
C     2.6831231   -6.5518565    1.9693864 
C     2.3537726   -5.5542515    1.0478985 
C     1.0240166   -5.4102777    0.5896692 
C     0.0319485   -6.2651027    1.1221947 
C     0.3602041   -7.2487236    2.0635808 
H     1.9555730   -8.1878969    3.1994946 
H     3.7197897   -6.6560636    2.3050235 
H     3.1359710   -4.8785544    0.6869265 
H    -1.0060497   -6.1747625    0.7845962 
H    -0.4266788   -7.9035833    2.4531601 
C    -2.0380382   -3.8767904   -5.2609565 
C    -1.6494806   -2.9178125   -6.2072674 
C    -2.1403678   -1.6062349   -6.1242965 
C    -3.0385897   -1.2683756   -5.1022465 
C    -3.4543927   -2.2389213   -4.1801337 
C    -2.9497718   -3.5492765   -4.2399641 
C    -3.3746622   -4.6429352   -3.2574295 
C    -4.3397355   -5.6507986   -3.9038848 
N    -4.0082283   -4.1034657   -2.0463100 
C    -3.3456377   -3.3225861   -1.1542939 
O    -2.1490829   -3.0162612   -1.3169915 
C    -4.1429457   -2.8127952    0.0106991 
C    -5.4778199   -2.3989240   -0.1792719 
C    -6.2349315   -1.8905517    0.8821070 
C    -5.6633172   -1.8166126    2.1599705 
C    -4.3457854   -2.2439168    2.3609512 
C    -3.5606367   -2.7313995    1.3005888 
C    -2.1639143   -3.2566423    1.5735119 
C    -0.3310403   -2.4117855    3.4675007 
N    -1.4664187   -3.2351449    3.8868697 
N    -2.0663025   -3.9707771    2.8438869 
C    -1.8225669   -3.4310883    5.2151098 
O    -1.2756577   -2.8086093    6.1162144 
C    -2.8687027   -4.5240723    5.4029459 
C    -2.5833242   -5.7079204    4.4611151 
C    -2.6024045   -5.2361047    3.0148516 
O    -3.0959994   -5.8391828    2.0667521 
C     1.0347135   -2.9907071    3.7906039 
C     2.1545614   -2.1263348    3.7730213 
C     3.4135671   -2.6020957    4.1790120 
C     3.5656626   -3.9244233    4.6175157 
C     2.4543414   -4.7764944    4.6413656 
C     1.1999453   -4.3124252    4.2219206 
C     2.0142734   -0.7306166    3.2360497 
O     1.4924426   -0.5632167    2.1064160 
N     2.4991029    0.3004288    3.9509308 
C     2.5316692    0.3998744    5.4265619 
C     3.7100259    1.2834764    5.8524374 
C     1.1565374    0.9054337    5.8719891 
C     0.7692214    2.2476496    5.6813215 
C    -0.5309325    2.6597451    6.0038198 
C    -1.4638446    1.7396885    6.5103374 
C    -1.0901527    0.3994516    6.6868935 
C     0.2142945   -0.0116009    6.3714825 
C    -1.3486863   -0.3098769    1.7404784 
C    -2.1079872    0.1348436    2.8393957 
C    -2.4678542    1.4827893    2.9548671 
C    -2.0690875    2.4027032    1.9748934 
C    -1.3035338    1.9788047    0.8824653 
C    -0.9393772    0.6239054    0.7600899 
C    -0.7064763    0.5434275   -2.2394531 
C    -2.0672707    1.2005945   -2.0628266 
C    -3.1022546    0.3320747   -1.6645332 
C    -4.4041359    0.7930946   -1.4506572 
C    -4.7090599    2.1449913   -1.6584447 
C    -3.6949903    3.0169504   -2.0647203 
C    -2.3696662    2.5654417   -2.2529439 
C    -1.3310029    3.6166649   -2.5374652 
O    -0.3586170    3.7986252   -1.7871224 
N    -1.6080502    4.3985917   -3.6173878 
C    -0.8844881    5.6178770   -3.9790027 
C    -1.8365418    6.8288158   -3.8955006 
C    -0.2130831    5.5077774   -5.3501767 
C    -0.4984283    4.4650258   -6.2508037 
C     0.1340152    4.4105633   -7.5034892 
C     1.0633082    5.3926031   -7.8708196 
C     1.3608506    6.4321791   -6.9750215 
C     0.7261883    6.4889109   -5.7281734 
C     1.4256837    1.4006421   -0.7758420 
N     1.4715870    1.7047467   -2.2128960 
N     0.3343574    1.2684531   -2.9638530 
C     2.1958051    2.8106724   -2.6351285 
O     2.9413916    3.4188635   -1.8656012 
C     2.0537287    3.1541682   -4.0979814 
C     1.5826862    1.9613536   -4.9300658 
C     0.3255071    1.3493122   -4.3459713 
O    -0.6517733    0.9640117   -4.9864286 
C     2.7784164    1.0263857   -0.2086206 
C     3.4762902   -0.0556119   -0.7703566 
C     4.6775636   -0.5020414   -0.2112649 
C     5.1888386    0.1245706    0.9361935 
C     4.5030873    1.2059879    1.4999883 
C     3.3080664    1.6795026    0.9261315 
C     2.6249105    2.8373803    1.6102286 
O     2.3641123    2.8010053    2.8299572 
N     2.3332134    3.9108620    0.8481621 
C     1.6388547    5.0781979    1.4110045 
C     1.2807878    6.0419073    0.2689659 
C     2.4665283    5.7500994    2.5046965 
C     3.8212964    6.0612565    2.2902095 
C     4.5723161    6.6976270    3.2879994 
C     3.9755611    7.0333701    4.5132479 
C     2.6248618    6.7258487    4.7347842 
C     1.8779152    6.0858527    3.7354110 
H    -1.6234541   -4.8907690   -5.3165686 
H    -0.9381993   -3.1904659   -6.9941838 
H    -1.8033730   -0.8397141   -6.8276233 
H    -3.4002165   -0.2398025   -5.0112125 
H    -4.1654955   -1.9656706   -3.3942499 
H    -2.4568104   -5.1746585   -2.9391344 
H    -4.5913499   -6.4639483   -3.1998168 
H    -5.2678102   -5.1454033   -4.2244812 
H    -3.8744253   -6.0974516   -4.7960598 
H    -4.9419951   -4.4312541   -1.8046452 
H    -5.9186495   -2.4548588   -1.1808777 
H    -7.2644371   -1.5594360    0.7135554 
H    -6.2460262   -1.4338249    3.0039405 
H    -3.9216058   -2.2219435    3.3689012 
H    -1.8867473   -3.9679217    0.7864352 
H    -0.4158126   -1.4444856    3.9907826 
H    -2.8476589   -4.8140393    6.4636038 
H    -3.8717954   -4.1071891    5.1885265 
H    -1.5932993   -6.1507684    4.6833379 
H    -3.3314702   -6.5087557    4.5561936 
H     4.2714551   -1.9219771    4.1482186 
H     4.5467434   -4.2853652    4.9428096 
H     2.5587876   -5.8099718    4.9844849 
H     0.3413278   -4.9882828    4.2393469 
H     2.4080018    1.2317562    3.4777985 
H     2.6684259   -0.6157758    5.8323614 
H     4.6622046    0.8170079    5.5462515 
H     3.7138532    1.4158775    6.9468131 
H     3.6502290    2.2782708    5.3790538 
H     1.4707652    2.9699200    5.2519510 
H    -0.8172114    3.7071858    5.8553615 
H    -2.4771571    2.0686584    6.7677882 
H    -1.8011890   -0.3389006    7.0710342 
H     0.4849841   -1.0645649    6.5040709 
H    -2.3935041   -0.5587855    3.6352164 
H    -3.0382230    1.8145712    3.8271675 
H    -2.3392830    3.4594856    2.0673093 
H    -0.9828421    2.7072417    0.1287844 
H    -0.8831647   -0.3980878   -2.7881116 
H    -2.8653979   -0.7251817   -1.5106249 
H    -5.1769082    0.0950386   -1.1172479 
H    -5.7246241    2.5201434   -1.4969905 
H    -3.9159975    4.0808444   -2.2060698 
H    -2.4265329    4.1479215   -4.1711889 
H    -0.1010582    5.7242288   -3.2078353 
H    -2.2577543    6.9149977   -2.8793584 
H    -1.3000835    7.7615637   -4.1340534 
H    -2.6632920    6.7210723   -4.6199652 
H    -1.1846196    3.6592776   -5.9707901 
H    -0.1007678    3.5893419   -8.1892956 
H     1.5573826    5.3484480   -8.8469570 
H     2.0925185    7.2000226   -7.2476716 
H     0.9733220    7.3000888   -5.0332099 
H     1.0011419    2.2708761   -0.2515350 
H     1.3334774    3.9867762   -4.1715054 
H     3.0235261    3.5456753   -4.4415472 
H     1.3705432    2.2422548   -5.9709589 
H     2.3597955    1.1746330   -4.9332680 
H     3.0652405   -0.5481044   -1.6576803 
H     5.2125511   -1.3427583   -0.6661315 
H     6.1246193   -0.2236435    1.3857510 
H     4.8911694    1.7056904    2.3930482 
H     2.6028343    3.8823364   -0.1497955 
H     0.7092408    4.7055392    1.8818644 
H     0.6624638    5.5313723   -0.4886132 
H     0.7266175    6.9044604    0.6734952 
H     2.1970478    6.4228689   -0.2156101 
H     4.2946271    5.7879677    1.3396446 
H     5.6276665    6.9315134    3.1099059 
H     4.5625229    7.5290850    5.2937872 
H     2.1542018    6.9769022    5.6916503 
H     0.8276080    5.8275569    3.9174044 
