197
Energy =
C    -1.1638687   -2.9576993   -2.6640843 
C     0.2024304   -3.0837860   -3.0465523 
C     1.0864587   -3.8131349   -2.2108097 
H     0.5915993   -2.4972229   -3.8866071 
Pd    0.1966407   -2.0578824   -1.1335096 
P     1.9561336   -1.1878544    0.1077465 
P    -1.0550261   -0.3573403   -0.1456649 
H    -1.5764869   -3.7843173   -2.0687002 
H     0.6313195   -4.5466082   -1.5269707 
C    -4.0816766   -0.6678026   -4.8465511 
C    -4.4618739   -1.8175179   -4.1389879 
C    -3.5091910   -2.5460039   -3.4131652 
C    -2.1531454   -2.1494820   -3.4023598 
C    -1.7807080   -0.9904739   -4.1264733 
C    -2.7383952   -0.2572828   -4.8342499 
H    -4.8266988   -0.0872635   -5.3997319 
H    -5.5037705   -2.1555382   -4.1593211 
H    -3.8130069   -3.4481563   -2.8697706 
H    -0.7384683   -0.6505248   -4.1015686 
H    -2.4436966    0.6552115   -5.3610564 
C     5.2595577   -4.5515940   -2.9260422 
C     4.6167867   -3.5081469   -3.6118565 
C     3.2631008   -3.2451496   -3.3852098 
C     2.5202996   -4.0241487   -2.4670977 
C     3.1787488   -5.0751539   -1.7905650 
C     4.5347201   -5.3375591   -2.0177350 
H     6.3209874   -4.7503504   -3.1077398 
H     5.1767524   -2.8875245   -4.3127004 
H     2.7842418   -2.4246425   -3.9287220 
H     2.6149780   -5.6890480   -1.0810766 
H     5.0241882   -6.1610017   -1.4861460 
C    -4.7945696    3.1325079    4.0590954 
C    -5.6019988    4.1434392    3.5213661 
C    -6.7365304    3.8097440    2.7637578 
C    -7.0556571    2.4574078    2.5589789 
C    -6.2546282    1.4496117    3.1149675 
C    -5.1093437    1.7758261    3.8650580 
C    -4.2417878    0.7050235    4.5126263 
C    -4.8723934    0.1736794    5.8181170 
N    -3.9753850   -0.4008900    3.5805911 
C    -2.9141523   -1.2262794    3.7138434 
O    -2.0679615   -1.1261040    4.6276132 
C    -2.8397734   -2.3223874    2.6835045 
C    -2.7924378   -3.6529137    3.1377206 
C    -2.7893245   -4.7166264    2.2282219 
C    -2.8525354   -4.4527632    0.8507798 
C    -2.8682339   -3.1302461    0.3975295 
C    -2.8303098   -2.0560435    1.2992430 
C    -2.6798456   -0.6409627    0.7791196 
C    -1.8647034    0.9183479   -1.2989857 
N    -3.2961161    0.6050327   -1.2396864 
N    -3.7067420   -0.2955577   -0.2089488 
C    -4.1842581    1.3013528   -2.0403860 
O    -3.7644591    2.1090165   -2.8682547 
C    -5.6589763    1.0509044   -1.7808445 
C    -5.9529847   -0.3060749   -1.1409135 
C    -5.0357178   -0.5625548    0.0332485 
O    -5.4107603   -1.0384523    1.1102546 
C    -1.4338442    2.3492450   -1.0049722 
C    -2.1685329    3.3111842   -0.2772291 
C    -1.5840768    4.5628999    0.0080692 
C    -0.2874034    4.8696894   -0.4143564 
C     0.4334304    3.9242939   -1.1550971 
C    -0.1408768    2.6843220   -1.4524429 
C    -3.5028725    3.0213027    0.3575742 
O    -3.6143422    2.1326761    1.2190491 
N    -4.5572848    3.8099578    0.0094810 
C    -4.6083893    4.8213839   -1.0612755 
C    -5.9935602    4.7930117   -1.7328233 
C    -4.2738613    6.2298492   -0.5727958 
C    -3.5864915    7.1150104   -1.4233674 
C    -3.2937397    8.4218181   -1.0086426 
C    -3.6852191    8.8605305    0.2656054 
C    -4.3720791    7.9846586    1.1196737 
C    -4.6647063    6.6782779    0.7014161 
C     0.0002444    0.5856211    1.0240083 
C    -0.5250963    1.5654292    1.8873700 
C     0.3204109    2.2416586    2.7743485 
C     1.6874105    1.9362549    2.8201641 
C     2.2106738    0.9458565    1.9812999 
C     1.3774122    0.2679955    1.0714134 
C     3.4323817   -0.6825617   -0.9928447 
C     3.6635081    0.7910399   -1.2582783 
C     4.4031703    1.5806764   -0.3611265 
C     4.6517112    2.9333800   -0.6202538 
C     4.1691925    3.5192324   -1.7991576 
C     3.4589252    2.7367958   -2.7181351 
C     3.2036383    1.3770959   -2.4590461 
C     2.4201819    0.5566890   -3.4506705 
O     1.3122553    0.0743939   -3.1445331 
N     2.9570969    0.3794700   -4.6867042 
C     4.3144396    0.7150437   -5.1646050 
C     4.2643509    1.8598828   -6.1948263 
C     5.0216481   -0.5065718   -5.7463076 
C     4.3966693   -1.3345811   -6.6989890 
C     5.0822302   -2.4176158   -7.2670099 
C     6.4126488   -2.6754994   -6.9029696 
C     7.0464341   -1.8507954   -5.9616985 
C     6.3535194   -0.7773626   -5.3828586 
C     3.0826272   -2.0287117    1.4072574 
N     4.4397218   -1.6849509    0.9823010 
N     4.5798981   -1.3563379   -0.3863761 
C     5.5146940   -1.6616155    1.8619037 
O     5.3586081   -1.9121310    3.0505988 
C     6.8534040   -1.3808331    1.1901269 
C     6.9075705   -2.0193298   -0.2087249 
C     5.7839217   -1.4545647   -1.0609399 
O     5.8884965   -1.0391091   -2.2113765 
C     2.8413958   -3.5025812    1.6818187 
C     3.7787526   -4.4808680    1.3261197 
C     3.5797758   -5.8257718    1.6701678 
C     2.4342883   -6.2070868    2.3811968 
C     1.4969594   -5.2343250    2.7570926 
C     1.6930213   -3.8839400    2.4178549 
C     0.6197147   -2.8762022    2.7357483 
O     0.0792077   -2.2617430    1.7867611 
N     0.2236616   -2.7033908    4.0088149 
C     1.0404961   -2.9223570    5.2198929 
C     0.1468307   -3.4368010    6.3555948 
C     1.7724265   -1.6155740    5.5316488 
C     1.0757726   -0.4811693    5.9963008 
C     1.7566491    0.7237074    6.2153242 
C     3.1350992    0.8173605    5.9595395 
C     3.8279079   -0.2995306    5.4716209 
C     3.1483087   -1.5101086    5.2639501 
H    -3.9030255    3.4004803    4.6377224 
H    -5.3454015    5.1937866    3.6964794 
H    -7.3758927    4.5981581    2.3500916 
H    -7.9430266    2.1843992    1.9769781 
H    -6.5258010    0.4029662    2.9408122 
H    -3.2577794    1.1407328    4.7604805 
H    -4.2007148   -0.5691104    6.2798426 
H    -5.0302646    1.0027335    6.5283168 
H    -5.8481610   -0.2979395    5.6099808 
H    -4.6147161   -0.5883834    2.7906795 
H    -2.7733210   -3.8418818    4.2156517 
H    -2.7633241   -5.7489685    2.5924016 
H    -2.8835799   -5.2789651    0.1321634 
H    -2.9160447   -2.9069222   -0.6708152 
H    -2.6984116    0.0996639    1.5924719 
H    -1.5101417    0.6651122   -2.3111076 
H    -5.9898133    1.8634672   -1.1091082 
H    -6.1853401    1.1815384   -2.7386987 
H    -6.9895298   -0.3788857   -0.7820736 
H    -5.7798009   -1.1163882   -1.8728524 
H    -2.1551947    5.2940300    0.5872947 
H     0.1514026    5.8418857   -0.1682056 
H     1.4492425    4.1427335   -1.4957213 
H     0.4276133    1.9409958   -2.0223086 
H    -5.3848224    3.6717192    0.5992457 
H    -3.8588654    4.5156789   -1.8103614 
H    -6.0512791    5.5864337   -2.4951159 
H    -6.7921409    4.9800867   -0.9920991 
H    -6.1675090    3.8241607   -2.2268333 
H    -3.2667730    6.7716762   -2.4144080 
H    -2.7530775    9.0978848   -1.6797784 
H    -3.4545231    9.8800371    0.5919984 
H    -4.6809716    8.3193407    2.1160156 
H    -5.1859059    5.9947287    1.3792623 
H    -1.5949176    1.8015663    1.8676093 
H    -0.0976927    3.0003409    3.4435135 
H     2.3457043    2.4430324    3.5311527 
H     3.2678518    0.6812171    2.0710487 
H     3.2376892   -1.1965053   -1.9467890 
H     4.8138735    1.1198623    0.5421574 
H     5.2280762    3.5281799    0.0955047 
H     4.3549306    4.5774924   -2.0086051 
H     3.0892036    3.1831191   -3.6465060 
H     2.3449711   -0.1248322   -5.3317926 
H     4.8763755    1.0389987   -4.2752198 
H     3.8011745    2.7629067   -5.7629256 
H     5.2849445    2.1097763   -6.5285190 
H     3.6815484    1.5584477   -7.0829743 
H     3.3641757   -1.1391353   -7.0158300 
H     4.5787792   -3.0566817   -7.9998291 
H     6.9508348   -3.5178594   -7.3496612 
H     8.0815489   -2.0500573   -5.6650863 
H     6.8404388   -0.1629610   -4.6197088 
H     2.8929715   -1.4870217    2.3499905 
H     6.9907990   -0.2847103    1.1121673 
H     7.6371631   -1.7637086    1.8604291 
H     7.8556589   -1.8149984   -0.7268582 
H     6.7889112   -3.1177309   -0.1372366 
H     4.6773446   -4.1861178    0.7779180 
H     4.3253274   -6.5746057    1.3830889 
H     2.2746010   -7.2556953    2.6520750 
H     0.5977654   -5.5147830    3.3159347 
H    -0.5798576   -2.0512580    4.1474267 
H     1.7975402   -3.6851672    4.9757000 
H    -0.2873474   -4.4143148    6.0832732 
H     0.7339938   -3.5527694    7.2811722 
H    -0.6830873   -2.7368703    6.5505793 
H    -0.0057225   -0.5294256    6.1627366 
H     1.2067826    1.5968572    6.5838691 
H     3.6643082    1.7602954    6.1379241 
H     4.8979592   -0.2445952    5.2477411 
H     3.7005104   -2.3699862    4.8711162 
