197
Energy =
C    -1.1455074   -2.6303978   -2.4297034 
C     0.1603266   -2.2703505   -2.8189052 
C     1.2678101   -2.6003965   -1.9747798 
H     0.3106591   -1.6278746   -3.6965217 
Pd   -0.0760380   -1.2421442   -0.8988137 
P     1.4039574   -0.4623113    0.6917251 
P    -1.5559002    0.3608734   -0.0438874 
H    -1.2510604   -3.4120272   -1.6621431 
H     1.1688186   -3.4971545   -1.3444683 
C    -4.6005358   -2.0571247   -4.9257490 
C    -4.4231699   -3.2496319   -4.2071416 
C    -3.3172896   -3.4058803   -3.3605279 
C    -2.3385953   -2.3919437   -3.2631257 
C    -2.5128086   -1.2071440   -4.0129638 
C    -3.6453307   -1.0322199   -4.8157083 
H    -5.4798734   -1.9256831   -5.5650839 
H    -5.1596924   -4.0561089   -4.2918333 
H    -3.2001754   -4.3260459   -2.7779344 
H    -1.7584776   -0.4179857   -3.9466305 
H    -3.7890450   -0.0845902   -5.3451911 
C     5.2978901   -1.5697029   -3.0557531 
C     4.2491685   -0.6881797   -3.3595754 
C     2.9346174   -0.9970997   -2.9940224 
C     2.6498501   -2.2049463   -2.3134382 
C     3.7166570   -3.0760383   -1.9992557 
C     5.0290932   -2.7635686   -2.3728202 
H     6.3225681   -1.3138638   -3.3376287 
H     4.4609187    0.2493550   -3.8801735 
H     2.1207812   -0.3000950   -3.2253450 
H     3.4998920   -4.0169568   -1.4847309 
H     5.8443767   -3.4546592   -2.1324776 
C    -4.1102262   -0.9300700    7.1014603 
C    -3.5153442   -1.8691833    7.9584586 
C    -3.7959035   -3.2337395    7.8153949 
C    -4.6735044   -3.6540829    6.8031347 
C    -5.2608103   -2.7147357    5.9469054 
C    -4.9871104   -1.3385002    6.0821591 
C    -5.6943356   -0.3349801    5.1644281 
C    -5.1551339    1.1052684    5.2144106 
N    -5.7434051   -0.8427718    3.7766271 
C    -4.6332797   -1.0508097    3.0246979 
O    -3.4889361   -0.8968112    3.4944992 
C    -4.8873519   -1.5036673    1.6128935 
C    -5.8526705   -2.5035067    1.3853535 
C    -6.1581692   -2.9228863    0.0856615 
C    -5.4959140   -2.3394777   -1.0019657 
C    -4.5161344   -1.3606500   -0.7866529 
C    -4.1961086   -0.9345032    0.5122429 
C    -3.2958411    0.2592858    0.7353559 
C    -2.1355894    1.6038323   -1.3730524 
N    -3.5604983    1.7956184   -1.0989550 
N    -3.9364896    1.4958000    0.2235420 
C    -4.4676661    2.0282445   -2.1226340 
O    -4.0878135    2.1331958   -3.2841737 
C    -5.8907778    2.2242118   -1.6149343 
C    -5.8730948    2.8873303   -0.2226370 
C    -5.1229531    1.9848428    0.7476438 
O    -5.5170077    1.6302974    1.8550727 
C    -1.4148686    2.9254180   -1.5598922 
C    -0.7033451    3.2129923   -2.7507530 
C    -0.1305021    4.4875422   -2.9277641 
C    -0.2363256    5.4729402   -1.9392791 
C    -0.9620950    5.1987703   -0.7719509 
C    -1.5578056    3.9431514   -0.6012426 
C    -0.5589886    2.1779669   -3.8299013 
O    -0.3242446    0.9860168   -3.5864596 
N    -0.6757178    2.6331299   -5.1135829 
C    -0.6804174    1.6901659   -6.2459623 
C    -0.9473192    2.4674293   -7.5438807 
C     0.6182845    0.8938562   -6.3128275 
C     1.8684540    1.5374271   -6.2609126 
C     3.0540053    0.7984681   -6.3783833 
C     3.0035669   -0.5940632   -6.5428466 
C     1.7616378   -1.2430663   -6.5888744 
C     0.5768961   -0.5015358   -6.4760183 
C    -0.7188793    1.2292858    1.3667105 
C    -1.3818049    2.1651946    2.1875237 
C    -0.7689972    2.6709642    3.3391837 
C     0.4976428    2.2101504    3.7218874 
C     1.1504957    1.2518172    2.9415577 
C     0.5689434    0.7848564    1.7477740 
C     3.1943641    0.1523333    0.3815902 
C     3.4537134    1.5745073    0.8566625 
C     4.1594581    1.8362304    2.0425520 
C     4.3094141    3.1447119    2.5203509 
C     3.7406225    4.2181275    1.8205285 
C     3.0745139    3.9784896    0.6115840 
C     2.9525140    2.6694241    0.1141729 
C     2.2514731    2.3503958   -1.1718870 
O     1.2946692    1.5547370   -1.1559407 
N     2.7154493    2.8809634   -2.3334340 
C     3.8889621    3.7554208   -2.5566233 
C     3.4703003    4.9804428   -3.3788242 
C     5.0660503    2.9652879   -3.1293367 
C     5.8314817    2.1743658   -2.2505419 
C     6.9257424    1.4373924   -2.7178734 
C     7.2656200    1.4732251   -4.0792003 
C     6.5032799    2.2478330   -4.9659431 
C     5.4119070    2.9940164   -4.4925436 
C     1.9898038   -1.7558802    1.9773595 
N     3.4175389   -1.4860639    2.1449787 
N     4.0266064   -0.8525845    1.0335347 
C     4.1477626   -2.0204273    3.1946330 
O     3.5892512   -2.6471293    4.0893875 
C     5.6518362   -1.8167669    3.0758583 
C     6.1046474   -1.9850386    1.6154922 
C     5.3695236   -0.9985461    0.7217488 
O     5.8822167   -0.3260149   -0.1654386 
C     1.6624557   -3.1914129    1.5881234 
C     2.6740257   -4.0712961    1.1698322 
C     2.3842597   -5.3861513    0.7849449 
C     1.0581286   -5.8406664    0.7935364 
C     0.0373056   -4.9706156    1.1923332 
C     0.3241713   -3.6567233    1.6096369 
C    -0.8663672   -2.7690695    1.8933980 
O    -1.7000698   -2.6000414    0.9799769 
N    -0.9922665   -2.1567002    3.0942633 
C    -0.3425568   -2.5504108    4.3615256 
C    -1.2377352   -3.5545589    5.1142747 
C    -0.0347102   -1.3230331    5.2182775 
C     1.2606681   -1.1260704    5.7330978 
C     1.5348603   -0.0398567    6.5801528 
C     0.5159994    0.8581394    6.9288411 
C    -0.7763396    0.6682445    6.4138100 
C    -1.0518980   -0.4116798    5.5652098 
H    -3.8736231    0.1288772    7.2342522 
H    -2.8234268   -1.5269540    8.7350132 
H    -3.3313630   -3.9666739    8.4832078 
H    -4.9000483   -4.7186337    6.6796107 
H    -5.9403425   -3.0517283    5.1560389 
H    -6.7546356   -0.3100227    5.4775963 
H    -5.6841278    1.7207824    4.4699834 
H    -5.3155831    1.5417448    6.2143093 
H    -4.0794315    1.1276291    4.9776022 
H    -6.6211627   -0.7382493    3.2713189 
H    -6.3616911   -2.9597519    2.2412303 
H    -6.9110638   -3.7010042   -0.0767211 
H    -5.7307395   -2.6470683   -2.0232656 
H    -3.9990458   -0.9235281   -1.6469839 
H    -3.1310527    0.3849640    1.8118135 
H    -2.0605051    1.0169250   -2.2978801 
H    -6.4306385    2.8283305   -2.3593885 
H    -6.3843401    1.2346141   -1.5635244 
H    -5.3663043    3.8696514   -0.2800910 
H    -6.8832226    3.0454566    0.1822889 
H     0.4255484    4.6979047   -3.8468960 
H     0.2303220    6.4524909   -2.0871500 
H    -1.0765288    5.9648230    0.0019298 
H    -2.1636855    3.7540754    0.2871117 
H    -1.0935865    3.5515380   -5.2580869 
H    -1.5051950    0.9702206   -6.0856456 
H    -0.9871558    1.7677232   -8.3935395 
H    -0.1410731    3.1961731   -7.7390290 
H    -1.9121682    3.0041027   -7.4920371 
H     1.9108211    2.6258047   -6.1270928 
H     4.0218653    1.3069516   -6.3319647 
H     3.9303743   -1.1713768   -6.6181108 
H     1.7145896   -2.3310481   -6.7050755 
H    -0.3933758   -1.0113892   -6.4991067 
H    -2.3993645    2.4856587    1.9452811 
H    -1.3012407    3.3992458    3.9594021 
H     0.9638613    2.5646882    4.6445062 
H     2.1109900    0.8557072    3.2780496 
H     3.3603773    0.0598135   -0.7054048 
H     4.5848586    1.0027921    2.6089613 
H     4.8600508    3.3227762    3.4495413 
H     3.8284768    5.2387961    2.2059180 
H     2.6348897    4.8093411    0.0493510 
H     2.2477687    2.5128403   -3.1666848 
H     4.2001001    4.0997586   -1.5597469 
H     2.7122378    5.5616613   -2.8293369 
H     4.3412585    5.6265910   -3.5758865 
H     3.0351283    4.6873558   -4.3510303 
H     5.5642255    2.1138907   -1.1902610 
H     7.4905810    0.8213666   -2.0124483 
H     8.1211860    0.8984902   -4.4497799 
H     6.7633281    2.2815826   -6.0294911 
H     4.8382691    3.6046762   -5.1973198 
H     1.4925189   -1.4977727    2.9240548 
H     5.9104064   -0.8036073    3.4403254 
H     6.1310043   -2.5408343    3.7510539 
H     7.1819044   -1.8042005    1.4882477 
H     5.8955307   -3.0134924    1.2629375 
H     3.7074877   -3.7186083    1.1361223 
H     3.1955030   -6.0521818    0.4733268 
H     0.8204959   -6.8649212    0.4892272 
H    -1.0069750   -5.2988810    1.1848976 
H    -1.8887400   -1.6370837    3.1820150 
H     0.6097760   -3.0472719    4.1079976 
H    -1.3919623   -4.4597737    4.5009841 
H    -0.7684562   -3.8458742    6.0686169 
H    -2.2203207   -3.1055613    5.3360882 
H     2.0594352   -1.8269678    5.4702093 
H     2.5472438    0.0941214    6.9773320 
H     0.7255727    1.6990301    7.5993801 
H    -1.5793698    1.3664063    6.6764005 
H    -2.0655258   -0.5449960    5.1769295 
