197
Energy =
C     1.9688899   -3.2132489   -2.6094562 
C     1.4910831   -3.8569621   -1.4345791 
C     0.1275292   -3.7392680   -1.0644720 
H     2.2032524   -4.3350789   -0.7511997 
Pd    1.1027775   -1.6955528   -1.2185992 
P    -0.2735127   -0.3190668    0.0304344 
P     1.7873069    0.2610132   -2.2492704 
H     1.2190318   -3.0153247   -3.3885783 
H    -0.5780735   -3.4502114   -1.8587178 
C     5.9766993   -3.5002553   -4.1439051 
C     4.9161914   -3.1001910   -4.9705654 
C     3.6218118   -2.9905502   -4.4471327 
C     3.3642465   -3.2617893   -3.0840020 
C     4.4489144   -3.6280369   -2.2544959 
C     5.7355455   -3.7604749   -2.7839162 
H     6.9869664   -3.6064887   -4.5531275 
H     5.0854002   -2.8914858   -6.0324433 
H     2.8001440   -2.7056060   -5.1127903 
H     4.2890357   -3.8034747   -1.1855464 
H     6.5612895   -4.0553685   -2.1285605 
C    -1.8090897   -5.7738207    2.1944140 
C    -0.4046159   -5.7320419    2.1473497 
C     0.2476127   -5.0551877    1.1114243 
C    -0.4913979   -4.3937736    0.1010174 
C    -1.9021906   -4.4244990    0.1776536 
C    -2.5545007   -5.1146181    1.2048952 
H    -2.3154324   -6.3196814    2.9973931 
H     0.1848518   -6.2415029    2.9166111 
H     1.3421187   -5.0563655    1.0837065 
H    -2.4971683   -3.9245019   -0.5915833 
H    -3.6489526   -5.1335109    1.2241060 
C    -4.0650625    0.0192090    5.7694193 
C    -4.1588919   -1.0726647    6.6447212 
C    -5.3298993   -1.8431963    6.6866248 
C    -6.4121163   -1.5111904    5.8546229 
C    -6.3232788   -0.4098045    4.9922556 
C    -5.1465729    0.3641039    4.9391276 
C    -5.0135566    1.5546587    3.9965220 
C    -6.1190426    2.6048929    4.1810097 
N    -4.9457107    1.1421480    2.5794845 
C    -3.7865037    1.1722345    1.8672277 
O    -2.6851671    1.3759694    2.4063769 
C    -3.9131039    1.1055903    0.3675924 
C    -4.7998226    2.0258188   -0.2328267 
C    -4.8359075    2.2082199   -1.6194908 
C    -3.9742673    1.4576103   -2.4297057 
C    -3.1182297    0.5175574   -1.8477982 
C    -3.0754746    0.3178368   -0.4562026 
C    -2.1192859   -0.7725147    0.0103602 
C    -0.2534384   -0.2073706    1.9194892 
N    -1.3660471   -1.0730793    2.3281576 
N    -2.3594941   -1.3341982    1.3369771 
C    -1.5492415   -1.4357379    3.6441257 
O    -0.8840118   -0.9166697    4.5467975 
C    -2.5272436   -2.5692293    3.8528670 
C    -3.8065872   -2.3778277    3.0359601 
C    -3.5584185   -1.9790442    1.5975612 
O    -4.3698243   -2.1438406    0.6866797 
C     1.0643914   -0.6703168    2.5125541 
C     1.8856126    0.1920159    3.2693267 
C     3.1642997   -0.2417921    3.6684050 
C     3.6112415   -1.5318788    3.3641264 
C     2.7739690   -2.4062389    2.6540445 
C     1.5153484   -1.9707753    2.2293873 
C     1.4855249    1.5912221    3.6589842 
O     2.2419944    2.5615665    3.4394301 
N     0.2945069    1.7159655    4.2834565 
C    -0.2046434    3.0232682    4.7446791 
C    -0.7185478    3.8607042    3.5627903 
C    -1.2034403    2.8079762    5.8806901 
C    -2.4216963    3.5097665    5.9517479 
C    -3.2964596    3.3252844    7.0346837 
C    -2.9717995    2.4306423    8.0625817 
C    -1.7623025    1.7213369    8.0009011 
C    -0.8885591    1.9093526    6.9222097 
C    -0.1321436    1.4070441   -0.5699744 
C    -0.8234599    2.4710252    0.0372316 
C    -0.6304335    3.7810646   -0.4168830 
C     0.2609102    4.0387275   -1.4673949 
C     0.9597897    2.9846791   -2.0683390 
C     0.7640434    1.6608184   -1.6335732 
C     1.5331049    0.1267178   -4.1498042 
C     0.3837886    0.9026211   -4.7656331 
C     0.5781537    2.2253955   -5.2013933 
C    -0.4584453    2.9637161   -5.7842444 
C    -1.7201363    2.3794456   -5.9614532 
C    -1.9202190    1.0504347   -5.5719387 
C    -0.8844836    0.3046253   -4.9727167 
C    -1.1327251   -1.1188697   -4.5663365 
O    -0.7472263   -1.5724593   -3.4723550 
N    -1.8253805   -1.8817348   -5.4517596 
C    -2.1444572   -3.2959007   -5.2080073 
C    -2.6841810   -3.9065844   -6.5122453 
C    -3.1160139   -3.4913939   -4.0431159 
C    -3.9376326   -2.4564408   -3.5655024 
C    -4.8202751   -2.6757891   -2.4988226 
C    -4.9231196   -3.9492822   -1.9218763 
C    -4.1261099   -4.9962961   -2.4086273 
C    -3.2162271   -4.7638608   -3.4500506 
C     3.4882415    1.1045633   -2.4477483 
N     3.5996819    1.3545003   -3.8865681 
N     2.8385781    0.4832792   -4.6964414 
C     4.5000559    2.2586343   -4.4345287 
O     5.1699495    2.9952489   -3.7219446 
C     4.6043203    2.1610179   -5.9522127 
C     4.5596553    0.6886370   -6.3989268 
C     3.2592790    0.0447381   -5.9416802 
O     2.5725744   -0.7335398   -6.5958797 
C     4.6703120    0.3822312   -1.8268448 
C     5.6471409   -0.2470681   -2.6082201 
C     6.7899383   -0.8025862   -2.0166377 
C     6.9605145   -0.7508410   -0.6274120 
C     5.9844068   -0.1332506    0.1655505 
C     4.8437201    0.4416862   -0.4232269 
C     3.7676140    1.0148367    0.4545795 
O     2.5853142    0.6317992    0.2981616 
N     4.1183388    1.8713726    1.4373308 
C     5.1671902    2.9097779    1.3175673 
C     5.7083550    3.2542308    2.7093813 
C     4.5480808    4.0841633    0.5559387 
C     4.8480589    4.2612796   -0.8065575 
C     4.2067677    5.2587145   -1.5578276 
C     3.2599873    6.0947706   -0.9488352 
C     2.9473251    5.9177649    0.4093572 
C     3.5816645    4.9163469    1.1568145 
H    -3.1410414    0.6035755    5.7266381 
H    -3.3073002   -1.3184795    7.2878790 
H    -5.4041136   -2.6979594    7.3674507 
H    -7.3302522   -2.1076001    5.8844251 
H    -7.1782779   -0.1590559    4.3530467 
H    -4.0355261    2.0192521    4.1944175 
H    -5.9341248    3.4780760    3.5317369 
H    -7.1168673    2.1960870    3.9400009 
H    -6.1388449    2.9420375    5.2304494 
H    -5.8057486    0.8879694    2.0942245 
H    -5.4397396    2.6387138    0.4113700 
H    -5.5198029    2.9414565   -2.0586913 
H    -3.9687270    1.5990500   -3.5148094 
H    -2.4571833   -0.0841486   -2.4777841 
H    -2.2053649   -1.5928964   -0.7224235 
H    -0.4809380    0.8393404    2.1693591 
H    -2.0070640   -3.4927821    3.5348973 
H    -2.7414741   -2.6412049    4.9269772 
H    -4.4304381   -3.2841987    3.0258415 
H    -4.4218434   -1.5734619    3.4789566 
H     3.8006150    0.4502728    4.2284365 
H     4.6040736   -1.8586139    3.6905010 
H     3.1058023   -3.4245300    2.4243101 
H     0.8614141   -2.6451084    1.6679133 
H    -0.2465359    0.8518023    4.4628634 
H     0.6788373    3.5474713    5.1590785 
H     0.0711243    3.9136738    2.7960500 
H    -0.9475700    4.8905247    3.8860196 
H    -1.6193319    3.4031395    3.1238633 
H    -2.6967092    4.2141556    5.1616161 
H    -4.2373670    3.8850326    7.0711670 
H    -3.6572674    2.2823686    8.9031994 
H    -1.4969072    1.0177414    8.7972532 
H     0.0517870    1.3487973    6.8846342 
H    -1.4961061    2.2740042    0.8781277 
H    -1.1639642    4.6038425    0.0694937 
H     0.4378665    5.0638128   -1.8054547 
H     1.6856106    3.2095714   -2.8544175 
H     1.3905615   -0.9454718   -4.3350081 
H     1.5677214    2.6792361   -5.0945302 
H    -0.2782807    3.9951438   -6.1036842 
H    -2.5391635    2.9504849   -6.4097505 
H    -2.9002959    0.5825709   -5.7179892 
H    -2.0074604   -1.4993786   -6.3785293 
H    -1.1975178   -3.8021588   -4.9371387 
H    -1.9474878   -3.8079025   -7.3294203 
H    -2.8969543   -4.9767384   -6.3648949 
H    -3.6265301   -3.4130312   -6.8087094 
H    -3.8742797   -1.4623726   -4.0192340 
H    -5.4133198   -1.8465977   -2.1022155 
H    -5.5991071   -4.1103350   -1.0772327 
H    -4.1893942   -5.9917998   -1.9566440 
H    -2.5750105   -5.5811784   -3.8020870 
H     3.3918831    2.0839119   -1.9494986 
H     3.7654212    2.7190635   -6.4115267 
H     5.5378485    2.6628334   -6.2460273 
H     4.6137519    0.5806247   -7.4923075 
H     5.4103762    0.1268786   -5.9672362 
H     5.5208267   -0.3007582   -3.6925683 
H     7.5449208   -1.2797870   -2.6481951 
H     7.8503847   -1.1870470   -0.1622043 
H     6.0934264   -0.0910915    1.2544334 
H     3.3452931    2.1396558    2.0840441 
H     5.9813816    2.4966084    0.7002214 
H     6.1973887    2.3705688    3.1540847 
H     6.4439264    4.0723397    2.6417569 
H     4.8941927    3.5669629    3.3845598 
H     5.5733183    3.6071464   -1.3022475 
H     4.4582358    5.3692037   -2.6174328 
H     2.7658179    6.8829040   -1.5282996 
H     2.2018320    6.5615189    0.8894126 
H     3.3024036    4.7655964    2.2051101 
