197
Energy =
C     2.3991353   -3.1546489   -2.0986191 
C     1.9041217   -3.7163265   -0.8937599 
C     0.5197635   -3.6689816   -0.5846314 
H     2.6112846   -4.0799469   -0.1390747 
Pd    1.3193432   -1.5784471   -0.8815166 
P    -0.3133053   -0.2745847    0.0981136 
P     1.9061448    0.3590950   -2.0036503 
H     1.6731388   -3.0362139   -2.9158310 
H    -0.1682255   -3.5213705   -1.4310903 
C     6.4715237   -3.3643446   -3.4746479 
C     6.1744485   -3.6750709   -2.1367888 
C     4.8661344   -3.5661703   -1.6571819 
C     3.8123054   -3.1809586   -2.5174730 
C     4.1252613   -2.8799538   -3.8628953 
C     5.4412507   -2.9541259   -4.3341139 
H     7.4995187   -3.4466305   -3.8431174 
H     6.9729953   -3.9923581   -1.4581981 
H     4.6673489   -3.7826418   -0.6028783 
H     3.3326886   -2.5930777   -4.5619373 
H     5.6480676   -2.7077804   -5.3806493 
C    -1.3504987   -5.5538145    2.8082936 
C    -2.1140993   -5.1027591    1.7206564 
C    -1.4902930   -4.4649622    0.6428720 
C    -0.0901872   -4.2717138    0.6154792 
C     0.6638121   -4.7247818    1.7247799 
C     0.0404969   -5.3536991    2.8073585 
H    -1.8325409   -6.0602262    3.6509301 
H    -3.1997661   -5.2445421    1.7059722 
H    -2.0974850   -4.1197653   -0.1984789 
H     1.7505502   -4.5935707    1.7424217 
H     0.6440976   -5.6987120    3.6530775 
C    -7.8652407    0.2944319    4.5755626 
C    -8.8325164   -0.6256287    5.0020038 
C    -9.0157313   -1.8323282    4.3106919 
C    -8.2172127   -2.1116210    3.1937995 
C    -7.2448823   -1.1932339    2.7689024 
C    -7.0564369    0.0270538    3.4518031 
C    -5.9697327    1.0196864    3.0336910 
C    -6.3520805    2.5043560    3.1842012 
N    -5.5259852    0.7488571    1.6626106 
C    -4.2427677    0.9057322    1.2447581 
O    -3.3149920    1.2139065    2.0143803 
C    -4.0388105    0.7364103   -0.2347660 
C    -4.8359603    1.5261026   -1.0909917 
C    -4.6532367    1.5074802   -2.4777623 
C    -3.6838363    0.6586530   -3.0256605 
C    -2.9115748   -0.1508111   -2.1877852 
C    -3.0550031   -0.1131139   -0.7891967 
C    -2.0734801   -0.9952785   -0.0288226 
C    -0.4946438    0.0419336    1.9540405 
N    -1.5302592   -0.9152780    2.3693246 
N    -2.4091821   -1.3793270    1.3433506 
C    -1.7899452   -1.1469636    3.7045974 
O    -1.2366467   -0.4887961    4.5886694 
C    -2.7303163   -2.2960129    3.9840119 
C    -3.9466494   -2.2434383    3.0614227 
C    -3.5863776   -2.0551902    1.6016857 
O    -4.3017944   -2.4242939    0.6673223 
C     0.8036423   -0.1804194    2.7124769 
C     1.4109464    0.8408595    3.4726453 
C     2.6498605    0.5979436    4.0944737 
C     3.2738390   -0.6499567    3.9921808 
C     2.6591191   -1.6726216    3.2531385 
C     1.4363516   -1.4322330    2.6201241 
C     0.8091554    2.2138694    3.6421190 
O     1.4424407    3.2435184    3.3300892 
N    -0.4276633    2.2392780    4.1797342 
C    -1.1458320    3.4987630    4.4533313 
C    -1.7174739    4.0963134    3.1508932 
C    -2.2177096    3.2502104    5.5045323 
C    -3.2169856    2.2796356    5.2891945 
C    -4.2038080    2.0486241    6.2572113 
C    -4.2173863    2.7950878    7.4458488 
C    -3.2336503    3.7704984    7.6623097 
C    -2.2374020    3.9911341    6.6991052 
C    -0.3368176    1.3797081   -0.6907531 
C    -1.2180493    2.3937014   -0.2764631 
C    -1.1526279    3.6619141   -0.8665531 
C    -0.1909423    3.9317463   -1.8503068 
C     0.7094008    2.9334946   -2.2456260 
C     0.6349057    1.6468747   -1.6832321 
C     2.0373172    0.0867040   -3.9063084 
C     0.9775135    0.7135403   -4.7935391 
C     1.1688816    1.9990021   -5.3298107 
C     0.2163145    2.5970159   -6.1629643 
C    -0.9572216    1.9055335   -6.4918670 
C    -1.1474947    0.6105820   -5.9982638 
C    -0.1939955    0.0039220   -5.1546833 
C    -0.4516831   -1.3757790   -4.6290397 
O    -0.2279193   -1.6853842   -3.4416704 
N    -0.9813725   -2.2660266   -5.5074262 
C    -1.5152684   -3.5682459   -5.0693286 
C    -1.7247564   -4.4720835   -6.2916393 
C    -2.7895725   -3.3625802   -4.2513684 
C    -3.8445491   -2.5794170   -4.7558040 
C    -5.0016867   -2.3636393   -3.9947757 
C    -5.1156132   -2.9258046   -2.7152160 
C    -4.0795857   -3.7247941   -2.2125568 
C    -2.9245047   -3.9416369   -2.9779408 
C     3.5416440    1.3287992   -1.9506183 
N     3.8847330    1.5393379   -3.3517581 
N     3.3952843    0.5383918   -4.2162222 
C     4.6235725    2.6234304   -3.8078647 
O     4.9254092    3.5426405   -3.0576500 
C     5.0590023    2.4819780   -5.2638662 
C     5.3150994    1.0055659   -5.6209397 
C     4.0536615    0.1864889   -5.3831334 
O     3.5849772   -0.6548314   -6.1423161 
C     4.6083795    0.6229982   -1.1314840 
C     5.6540646   -0.0819326   -1.7417263 
C     6.6499668   -0.6919314   -0.9672747 
C     6.5851678   -0.6404585    0.4303239 
C     5.5441903    0.0611554    1.0499369 
C     4.5686301    0.7152559    0.2812013 
C     3.4527393    1.4950488    0.9080818 
O     2.2752900    1.2655154    0.5312749 
N     3.6986790    2.4617072    1.8157450 
C     4.9592550    2.8942518    2.4486108 
C     4.6643495    4.1959551    3.2203740 
C     6.1177960    3.0957461    1.4784753 
C     7.4229214    2.7810980    1.8979119 
C     8.5198324    3.0033831    1.0545422 
C     8.3205848    3.5384275   -0.2268356 
C     7.0225800    3.8557381   -0.6539188 
C     5.9292455    3.6425531    0.1972746 
H    -7.7419969    1.2296975    5.1302743 
H    -9.4484364   -0.3948038    5.8775612 
H    -9.7755649   -2.5481849    4.6409614 
H    -8.3459702   -3.0508326    2.6451200 
H    -6.6183796   -1.4518278    1.9078793 
H    -5.0750868    0.8434192    3.6584442 
H    -5.5136460    3.1302393    2.8369926 
H    -7.2544353    2.7392556    2.5937400 
H    -6.5405505    2.7638574    4.2378844 
H    -6.2270702    0.4935862    0.9677506 
H    -5.5863675    2.1919074   -0.6502874 
H    -5.2654250    2.1481463   -3.1204682 
H    -3.5314189    0.6141010   -4.1077020 
H    -2.1759310   -0.8343552   -2.6208546 
H    -1.9631386   -1.9179753   -0.6223265 
H    -0.8709181    1.0713495    2.0639779 
H    -2.1628597   -3.2306943    3.8199210 
H    -3.0135160   -2.2441458    5.0448330 
H    -4.5708908   -3.1465584    3.1341957 
H    -4.5939608   -1.3916262    3.3357612 
H     3.1117819    1.4022313    4.6758379 
H     4.2290174   -0.8283451    4.4971817 
H     3.1325115   -2.6567237    3.1711181 
H     0.9483768   -2.2296343    2.0514116 
H    -0.8296704    1.3329100    4.4711086 
H    -0.3972007    4.2051049    4.8535131 
H    -0.8996168    4.2533592    2.4276059 
H    -2.1956716    5.0675205    3.3635951 
H    -2.4675762    3.4164967    2.7137267 
H    -3.2183275    1.7075304    4.3545872 
H    -4.9673352    1.2800125    6.0877151 
H    -4.9889680    2.6144727    8.2019728 
H    -3.2356498    4.3568768    8.5873204 
H    -1.4637075    4.7466466    6.8787047 
H    -1.9433672    2.1975355    0.5192732 
H    -1.8425687    4.4454857   -0.5378305 
H    -0.1227647    4.9289896   -2.2967043 
H     1.4895353    3.1738272   -2.9723526 
H     2.0191494   -1.0031116   -4.0280935 
H     2.0900223    2.5408539   -5.0985160 
H     0.3934486    3.6033495   -6.5556912 
H    -1.7142473    2.3672677   -7.1332712 
H    -2.0618331    0.0626787   -6.2516822 
H    -1.0695294   -1.9992843   -6.4867234 
H    -0.7538860   -4.0178487   -4.4079150 
H    -0.7782798   -4.6161747   -6.8414391 
H    -2.0961859   -5.4565406   -5.9662217 
H    -2.4757923   -4.0409102   -6.9778308 
H    -3.7564142   -2.1204151   -5.7481066 
H    -5.8089052   -1.7414479   -4.3952992 
H    -6.0007493   -2.7353324   -2.1009097 
H    -4.1720486   -4.1517902   -1.2106296 
H    -2.1119431   -4.5636740   -2.5836472 
H     3.3147507    2.3135139   -1.5135432 
H     4.2736618    2.9027664   -5.9209854 
H     5.9561258    3.1058812   -5.3933043 
H     5.6008701    0.8741378   -6.6747836 
H     6.1340140    0.5994850   -4.9965188 
H     5.6964039   -0.1551952   -2.8315262 
H     7.4707906   -1.2164286   -1.4632533 
H     7.3541107   -1.1278609    1.0380920 
H     5.4929825    0.1163173    2.1406815 
H     2.8332210    2.8512056    2.2512305 
H     5.2641578    2.1268285    3.1886281 
H     3.8290263    4.0539246    3.9269435 
H     5.5641194    4.5080787    3.7739332 
H     4.3921845    5.0002327    2.5158687 
H     7.5801340    2.3478053    2.8934379 
H     9.5296021    2.7501963    1.3954993 
H     9.1749288    3.7045443   -0.8919738 
H     6.8451861    4.2573838   -1.6554303 
H     4.9207809    3.8853427   -0.1541440 
