197
Energy =
C     2.4444646    1.0689124    3.5387680 
C     1.1808197    0.8313825    4.1447720 
C     0.6127143   -0.4704191    4.0324036 
H     0.5856870    1.6571416    4.5528503 
Pd    0.9546647    0.4588155    2.0195767 
P    -0.5057807   -0.5841916    0.5278474 
P     1.5453668    1.7792023    0.2093168 
H     3.0697776    0.1790123    3.3645981 
H     1.3280560   -1.3015740    3.9569688 
C     4.7894637    4.6687392    3.6996802 
C     5.3774604    3.4388230    3.3674173 
C     4.5883582    2.2865410    3.2802820 
C     3.2010840    2.3329116    3.5482528 
C     2.6175172    3.5852073    3.8528096 
C     3.4040869    4.7404133    3.9215365 
H     5.4041963    5.5713218    3.7828576 
H     6.4507200    3.3734475    3.1637561 
H     5.0548513    1.3311372    3.0167915 
H     1.5415008    3.6520889    4.0390433 
H     2.9403213    5.7031037    4.1560454 
C    -3.2758467   -1.5483381    5.5202479 
C    -3.0753432   -0.2834584    4.9435604 
C    -1.8182867    0.0789268    4.4496765 
C    -0.7340971   -0.8288517    4.5174714 
C    -0.9505215   -2.1045491    5.0857492 
C    -2.2091027   -2.4562413    5.5924852 
H    -4.2650928   -1.8288179    5.8950879 
H    -3.9141048    0.4133197    4.8544421 
H    -1.6773116    1.0546998    3.9708353 
H    -0.1182050   -2.8144858    5.1547948 
H    -2.3557540   -3.4425537    6.0457799 
C    -6.6181981   -6.0981040   -0.4750810 
C    -7.2542412   -6.7900086    0.5627709 
C    -7.6843755   -6.1024754    1.7088813 
C    -7.4643310   -4.7225122    1.8076337 
C    -6.8220845   -4.0298756    0.7684695 
C    -6.3953288   -4.7083946   -0.3886950 
C    -5.6807752   -4.0012517   -1.5430606 
C    -6.4824066   -4.0526471   -2.8597904 
N    -5.3503721   -2.6147484   -1.2144757 
C    -4.1006456   -2.0789132   -1.2738406 
O    -3.0809101   -2.7421570   -1.5282165 
C    -4.0611299   -0.5836285   -1.1140155 
C    -4.8185309    0.1654371   -2.0405833 
C    -4.7574740    1.5616255   -2.0659042 
C    -3.9483745    2.2256345   -1.1349401 
C    -3.2166978    1.4945387   -0.1940077 
C    -3.2488768    0.0865918   -0.1728838 
C    -2.3813826   -0.5769319    0.8881611 
C    -0.5071246   -2.4462213    0.1839269 
N    -1.7017100   -2.9460280    0.8782962 
N    -2.6712508   -1.9628389    1.2405414 
C    -2.0821077   -4.2647252    0.6838563 
O    -1.3722733   -5.0446728    0.0476006 
C    -3.3660123   -4.6684081    1.3709663 
C    -3.7412684   -3.7297492    2.5212274 
C    -3.7325866   -2.2797998    2.0762058 
O    -4.5634964   -1.4266410    2.3731696 
C     0.7291122   -3.1969180    0.6451118 
C     1.6264615   -3.8124951   -0.2538593 
C     2.7641337   -4.4697104    0.2549066 
C     3.0128301   -4.5326101    1.6311512 
C     2.1055381   -3.9390252    2.5242208 
C     0.9754774   -3.2842747    2.0262413 
C     1.4635034   -3.8221521   -1.7580978 
O     2.3803343   -3.4410745   -2.5052528 
N     0.2855815   -4.3237441   -2.2022596 
C     0.0057542   -4.5037096   -3.6381456 
C    -0.4839909   -3.1874236   -4.2735229 
C    -0.9827477   -5.6446645   -3.8337146 
C    -0.6395573   -6.7566260   -4.6227230 
C    -1.5541684   -7.8007509   -4.8272439 
C    -2.8243192   -7.7467542   -4.2362333 
C    -3.1729865   -6.6420779   -3.4438955 
C    -2.2635179   -5.5945983   -3.2457827 
C    -0.3204834    0.2021333   -1.1193239 
C    -1.0192201   -0.2758002   -2.2412495 
C    -0.9276507    0.3968870   -3.4660463 
C    -0.1429511    1.5517229   -3.5765593 
C     0.5732303    2.0197071   -2.4682284 
C     0.5021795    1.3481289   -1.2351583 
C     3.3423834    1.8757935   -0.4178560 
C     3.5204072    1.3716964   -1.8402626 
C     3.7090161    2.2592145   -2.9101464 
C     3.7733046    1.7856646   -4.2279120 
C     3.6303624    0.4162405   -4.4900240 
C     3.4931504   -0.4875592   -3.4282825 
C     3.4670459   -0.0173613   -2.1063038 
C     3.3680806   -0.9391495   -0.9306365 
O     2.4302056   -0.7826538   -0.1133610 
N     4.3415223   -1.8435321   -0.6812225 
C     5.4060414   -2.3746468   -1.5588935 
C     6.2896875   -3.3052098   -0.7071878 
C     6.2594996   -1.2949759   -2.2126686 
C     6.6187629   -0.1207562   -1.5292169 
C     7.4370971    0.8372854   -2.1427387 
C     7.9217228    0.6223469   -3.4415371 
C     7.5782742   -0.5535245   -4.1257286 
C     6.7479378   -1.5031926   -3.5148971 
C     1.4560925    3.6705472    0.5003119 
N     2.6991191    4.2119891   -0.0681393 
N     3.7541034    3.2613617   -0.2142261 
C     3.0076423    5.5598642    0.0610113 
O     2.2163296    6.3467277    0.5734168 
C     4.3795204    5.9196899   -0.4764192 
C     5.4302187    5.0215029    0.1885113 
C     5.0904763    3.5472445    0.0518572 
O     5.9153487    2.6409246    0.1063722 
C     0.2106637    4.3456936   -0.0381002 
C     0.1835102    4.9547783   -1.3066779 
C    -0.9837666    5.5430833   -1.8018584 
C    -2.1576430    5.5274548   -1.0355284 
C    -2.1412420    4.9434761    0.2343422 
C    -0.9631855    4.3659152    0.7431086 
C    -1.0099293    3.7864624    2.1366074 
O    -1.2927532    2.5919186    2.3332341 
N    -0.7743609    4.6504645    3.1621550 
C    -0.2577488    6.0412659    3.0692677 
C     0.0796814    6.5200664    4.4904798 
C    -1.2332279    6.9920896    2.3841588 
C    -0.7806346    7.8205183    1.3429131 
C    -1.6688700    8.6992466    0.7055699 
C    -3.0130334    8.7564020    1.1020670 
C    -3.4676971    7.9350338    2.1467411 
C    -2.5799874    7.0602493    2.7868101 
H    -6.2783602   -6.6499608   -1.3591898 
H    -7.4115720   -7.8704263    0.4783114 
H    -8.1834672   -6.6422407    2.5203385 
H    -7.7866390   -4.1745136    2.6995716 
H    -6.6230732   -2.9607051    0.8940913 
H    -4.7058532   -4.4922292   -1.7067944 
H    -7.4420521   -3.5172371   -2.7513275 
H    -6.7056271   -5.0948612   -3.1404523 
H    -5.9002301   -3.5904697   -3.6748241 
H    -6.1167411   -1.9765468   -1.0021995 
H    -5.4366209   -0.3672891   -2.7720967 
H    -5.3355075    2.1239008   -2.8062296 
H    -3.8833681    3.3167675   -1.1379649 
H    -2.5979548    2.0165529    0.5444252 
H    -2.4913670    0.0184965    1.8108563 
H    -0.6544398   -2.5495520   -0.9033845 
H    -4.1626302   -4.6772189    0.6081860 
H    -3.2446583   -5.7106174    1.7049097 
H    -4.7387195   -3.9537757    2.9247328 
H    -3.0079408   -3.8194097    3.3450351 
H     3.4428177   -4.9514119   -0.4563988 
H     3.8949539   -5.0620704    2.0064160 
H     2.2729130   -4.0013740    3.6051329 
H     0.2417588   -2.8484253    2.7104863 
H    -0.3702724   -4.6976951   -1.4961010 
H     0.9692884   -4.7697057   -4.1071591 
H    -0.6162830   -3.3199699   -5.3608969 
H    -1.4509700   -2.8862027   -3.8365936 
H     0.2571999   -2.3895180   -4.0988432 
H     0.3550266   -6.8061401   -5.0811878 
H    -1.2714236   -8.6595087   -5.4454546 
H    -3.5382192   -8.5630023   -4.3904667 
H    -4.1630363   -6.5992082   -2.9755358 
H    -2.5465557   -4.7358264   -2.6267312 
H    -1.6443740   -1.1707816   -2.1573354 
H    -1.4744369    0.0125752   -4.3326719 
H    -0.0693437    2.0837497   -4.5301784 
H     1.2103668    2.8961136   -2.5768575 
H     3.9328802    1.2610258    0.2818158 
H     3.7994902    3.3311089   -2.7059787 
H     3.9253841    2.4910964   -5.0513415 
H     3.6544286    0.0465604   -5.5199376 
H     3.3947362   -1.5617991   -3.6082313 
H     4.1089565   -2.4309345    0.1251914 
H     4.9154513   -2.9785656   -2.3443177 
H     5.6956965   -4.1181896   -0.2532021 
H     7.0664518   -3.7582820   -1.3429717 
H     6.7895320   -2.7344947    0.0945600 
H     6.2346279    0.0726458   -0.5226594 
H     7.6788315    1.7538875   -1.5963032 
H     8.5623472    1.3699289   -3.9217774 
H     7.9489603   -0.7276887   -5.1416504 
H     6.4644092   -2.4120441   -4.0591359 
H     1.4899652    3.7714050    1.6030957 
H     4.5534606    6.9858514   -0.2733638 
H     4.3857194    5.7671064   -1.5726853 
H     5.5032980    5.2483030    1.2661714 
H     6.4340174    5.1620205   -0.2419366 
H     1.1017562    4.9918277   -1.8999482 
H    -0.9728831    6.0242250   -2.7850532 
H    -3.0735121    5.9947096   -1.4100374 
H    -3.0388891    4.9621927    0.8588349 
H    -0.9015678    4.2475719    4.0928162 
H     0.6664936    6.0144509    2.4640282 
H    -0.8347492    6.5984418    5.1046415 
H     0.5392393    7.5195785    4.4419608 
H     0.7843509    5.8349607    4.9945213 
H     0.2603949    7.7462468    1.0113897 
H    -1.3109002    9.3336536   -0.1123429 
H    -3.7065841    9.4398694    0.6006060 
H    -4.5156430    7.9778117    2.4626792 
H    -2.9421087    6.4066725    3.5895823 
