197
Energy =
C     2.9186930    0.3879625    1.8561165 
C     1.8805137   -0.1722807    2.6480561 
C     1.3086127   -1.4282438    2.2952730 
H     1.4033899    0.4281198    3.4326320 
Pd    1.1182034    0.0587755    0.6285690 
P    -0.6419935   -0.6643752   -0.6917597 
P     1.1791751    1.8968767   -0.7756338 
H     3.5374259   -0.3123539    1.2729408 
H     1.9544161   -2.1449091    1.7666919 
C     4.8613019    4.1626210    2.5515892 
C     3.5758441    3.9432397    3.0762541 
C     2.9187263    2.7293341    2.8487878 
C     3.5326111    1.7100972    2.0811737 
C     4.8049950    1.9635511    1.5240670 
C     5.4677043    3.1726125    1.7650152 
H     5.3823832    5.1037171    2.7580664 
H     3.0897448    4.7243508    3.6685916 
H     1.9207117    2.5700804    3.2690389 
H     5.2877748    1.1950170    0.9148008 
H     6.4565589    3.3349620    1.3259429 
C    -1.8790269   -3.1022637    4.6514954 
C    -0.8728584   -3.9235653    4.1224657 
C     0.1294935   -3.3722103    3.3141923 
C     0.1648636   -1.9883647    3.0454526 
C    -0.8623351   -1.1707808    3.5745021 
C    -1.8730089   -1.7277307    4.3649186 
H    -2.6756945   -3.5319265    5.2670108 
H    -0.8655455   -4.9995641    4.3276339 
H     0.9078483   -4.0181628    2.9028028 
H    -0.8870265   -0.1037158    3.3275049 
H    -2.6773788   -1.0885491    4.7424270 
C    -8.2982100   -1.3968946    0.1496200 
C    -9.5029586   -0.8316670   -0.2917837 
C   -10.0906839   -1.2728339   -1.4868942 
C    -9.4682821   -2.2839448   -2.2351049 
C    -8.2650486   -2.8493829   -1.7893344 
C    -7.6673649   -2.4100706   -0.5940707 
C    -6.3677309   -3.0245182   -0.0800400 
C    -6.6337887   -4.3178575    0.7086946 
N    -5.3980594   -3.3098773   -1.1558147 
C    -4.4366246   -2.4733414   -1.6439220 
O    -3.5986474   -2.8541522   -2.4770643 
C    -4.5048161   -1.0362257   -1.1955552 
C    -5.5772262   -0.2747323   -1.7076271 
C    -5.6775673    1.0951480   -1.4489584 
C    -4.7093042    1.7146700   -0.6473257 
C    -3.6484193    0.9669440   -0.1285033 
C    -3.5179236   -0.4085369   -0.4053875 
C    -2.2847226   -1.0865588    0.1695237 
C    -0.7791009   -2.2983722   -1.6442902 
N    -1.3134399   -3.2317856   -0.6313704 
N    -2.2823122   -2.5551164    0.1958402 
C    -1.5060274   -4.5770105   -0.9262831 
O    -0.7760414   -5.1686535   -1.7249981 
C    -2.5987077   -5.2664188   -0.1390141 
C    -2.7000285   -4.7000686    1.2765463 
C    -2.9596851   -3.2106225    1.2160409 
O    -3.7275249   -2.5870880    1.9429444 
C     0.3575860   -2.7150841   -2.5484302 
C     1.6292171   -3.2175025   -2.1825441 
C     2.5918766   -3.4562448   -3.1810636 
C     2.3380270   -3.1802126   -4.5295613 
C     1.0902124   -2.6643563   -4.8957589 
C     0.1189285   -2.4494279   -3.9129255 
C     2.1234999   -3.5653082   -0.7972004 
O     3.0361798   -2.9071144   -0.2472508 
N     1.6377190   -4.7147884   -0.2861009 
C     2.2851205   -5.4283520    0.8244262 
C     3.5242340   -6.1938736    0.3074968 
C     1.3199965   -6.3591963    1.5474660 
C     0.3144950   -7.0757773    0.8712053 
C    -0.5252136   -7.9580757    1.5689054 
C    -0.3677772   -8.1463485    2.9492399 
C     0.6465279   -7.4542113    3.6284460 
C     1.4831542   -6.5725252    2.9305337 
C    -0.9577009    0.5928813   -2.0036610 
C    -1.9491512    0.4175655   -2.9877024 
C    -2.1049230    1.3608413   -4.0125181 
C    -1.2643946    2.4794262   -4.0756023 
C    -0.2729431    2.6637569   -3.1033071 
C    -0.1169004    1.7348542   -2.0608587 
C     2.8191464    2.4298135   -1.5797136 
C     2.9942573    2.2017374   -3.0719040 
C     2.9951353    3.2467020   -4.0059641 
C     3.2188180    2.9824335   -5.3652957 
C     3.4568059    1.6707074   -5.7998440 
C     3.4701057    0.6191988   -4.8714394 
C     3.2386118    0.8828701   -3.5130388 
C     3.0542120   -0.2001246   -2.4912290 
O     1.8896020   -0.3594499   -2.0608051 
N     4.0868435   -0.9099259   -2.0110835 
C     5.5082324   -0.7227739   -2.3291636 
C     6.0583366   -1.9317517   -3.1087898 
C     6.3057284   -0.4581051   -1.0546560 
C     6.2106205   -1.3282729    0.0516879 
C     6.9804712   -1.1005147    1.2013339 
C     7.8610641   -0.0081576    1.2573850 
C     7.9546575    0.8644466    0.1635023 
C     7.1750972    0.6456306   -0.9831335 
C     0.9586483    3.6010893    0.0731030 
N     1.9737585    4.4778398   -0.5215601 
N     3.0565029    3.8106996   -1.1688051 
C     2.1284827    5.7886771   -0.0982481 
O     1.3850374    6.2758264    0.7499602 
C     3.2701190    6.5181300   -0.7825657 
C     4.5583911    5.6955904   -0.6571443 
C     4.3734544    4.2688881   -1.1409961 
O     5.2771752    3.5450041   -1.5448254 
C    -0.4433185    4.1677611   -0.0211223 
C    -0.8288165    5.0250789   -1.0683509 
C    -2.1379969    5.5059146   -1.1617026 
C    -3.0944463    5.1290106   -0.2080583 
C    -2.7224804    4.2887371    0.8452305 
C    -1.4016525    3.8156630    0.9505585 
C    -1.0573602    2.9154799    2.1118649 
O    -1.1828214    1.6820317    2.0242354 
N    -0.6413616    3.5203605    3.2574170 
C    -0.3238318    4.9586639    3.4486610 
C     0.3223997    5.1250717    4.8329549 
C    -1.5477146    5.8555237    3.2939625 
C    -2.7433179    5.5729656    3.9804927 
C    -3.8636677    6.3996312    3.8232101 
C    -3.7955592    7.5219402    2.9814602 
C    -2.6026525    7.8124252    2.3032733 
C    -1.4819669    6.9832208    2.4574715 
H    -7.8315951   -1.0379531    1.0744851 
H    -9.9800168   -0.0393067    0.2950147 
H   -11.0292292   -0.8293710   -1.8357052 
H    -9.9207169   -2.6329326   -3.1695513 
H    -7.7791726   -3.6279425   -2.3888404 
H    -5.8777322   -2.3052272    0.5972183 
H    -7.0771891   -5.0922459    0.0563597 
H    -7.3479537   -4.1163672    1.5227365 
H    -5.6999092   -4.7016148    1.1509034 
H    -5.4257777   -4.2296885   -1.6002055 
H    -6.3338626   -0.7711544   -2.3222820 
H    -6.5128068    1.6686504   -1.8633128 
H    -4.7728148    2.7843302   -0.4284404 
H    -2.8897666    1.4468124    0.4982366 
H    -2.1673230   -0.7423536    1.2112003 
H    -1.6404936   -2.0998083   -2.3091368 
H    -3.5426602   -5.1029766   -0.6893997 
H    -2.3828543   -6.3435571   -0.1462937 
H    -3.5035202   -5.1643744    1.8658465 
H    -1.7507189   -4.8660465    1.8167120 
H     3.5627323   -3.8662857   -2.8852800 
H     3.1064657   -3.3805113   -5.2837121 
H     0.8619445   -2.4448378   -5.9435302 
H    -0.8636728   -2.0672881   -4.2059695 
H     0.9230959   -5.1838447   -0.8590146 
H     2.6339264   -4.6529742    1.5277053 
H     4.0367025   -6.6991058    1.1430899 
H     3.2223385   -6.9584281   -0.4286388 
H     4.2290426   -5.4902448   -0.1675423 
H     0.1665804   -6.9512762   -0.2074005 
H    -1.3021661   -8.5071123    1.0256221 
H    -1.0242812   -8.8349289    3.4912107 
H     0.7867591   -7.5988869    4.7049034 
H     2.2720005   -6.0355246    3.4705516 
H    -2.6112318   -0.4540902   -2.9622269 
H    -2.8843368    1.2115850   -4.7664062 
H    -1.3749824    3.2099587   -4.8833400 
H     0.3916914    3.5274004   -3.1681908 
H     3.5754331    1.8123691   -1.0585121 
H     2.8423443    4.2753545   -3.6628320 
H     3.2183934    3.8070609   -6.0854759 
H     3.6350211    1.4661417   -6.8604028 
H     3.6407264   -0.4116919   -5.1977024 
H     3.8021866   -1.6366821   -1.3186580 
H     5.5710908    0.1749180   -2.9662914 
H     5.4874123   -2.0798175   -4.0415333 
H     7.1198703   -1.7720453   -3.3599855 
H     5.9850360   -2.8507840   -2.5015297 
H     5.5237477   -2.1828571    0.0264381 
H     6.8937594   -1.7796353    2.0561803 
H     8.4643050    0.1660569    2.1543846 
H     8.6296030    1.7260708    0.2032997 
H     7.2270290    1.3506961   -1.8193609 
H     1.2207799    3.4081212    1.1313996 
H     3.3616295    7.5097861   -0.3171635 
H     3.0096243    6.6580078   -1.8494689 
H     4.8816932    5.6454947    0.3974140 
H     5.3907557    6.1297183   -1.2325904 
H    -0.0821810    5.3393361   -1.8028398 
H    -2.4096701    6.1835131   -1.9774346 
H    -4.1188326    5.5093464   -0.2674182 
H    -3.4497135    4.0187029    1.6162668 
H    -0.4896104    2.8845681    4.0430024 
H     0.4049129    5.2468581    2.6700243 
H    -0.3984365    4.8839127    5.6343329 
H     0.6387835    6.1711447    4.9676074 
H     1.2072242    4.4739174    4.9472678 
H    -2.8056683    4.6867554    4.6235221 
H    -4.7916684    6.1696021    4.3578588 
H    -4.6713508    8.1677833    2.8568442 
H    -2.5464152    8.6827181    1.6406377 
H    -0.5607073    7.1851149    1.9012955 
