197
Energy =
C    -2.5605606   -1.7059740   -1.9231116 
C    -3.2141544   -0.4552594   -1.8648975 
C    -2.6956403    0.7177807   -2.4985850 
H    -4.0585282   -0.3309473   -1.1741743 
Pd   -1.2355226   -0.0434457   -1.0514193 
P     0.1433072    1.8178997   -0.8604336 
P     0.3525663   -1.0344436    0.3390360 
H    -1.8213510   -1.8725736   -2.7226072 
H    -2.1468893    0.5957004   -3.4443053 
C    -3.9775086   -5.2869979    0.0222165 
C    -4.8207963   -4.1685285   -0.0834672 
C    -4.3735330   -2.9964642   -0.7047710 
C    -3.0736502   -2.9229061   -1.2606106 
C    -2.2605613   -4.0756146   -1.1873083 
C    -2.6925660   -5.2357201   -0.5362423 
H    -4.3305319   -6.1999195    0.5125561 
H    -5.8386056   -4.2100144    0.3194455 
H    -5.0523245   -2.1410336   -0.7758853 
H    -1.2754015   -4.0709803   -1.6598375 
H    -2.0306852   -6.1066788   -0.5025551 
C    -4.9357553    4.3666670   -2.0083282 
C    -4.5760470    3.6103513   -0.8808637 
C    -3.8207627    2.4411599   -1.0300053 
C    -3.3949868    2.0142713   -2.3101929 
C    -3.7324503    2.8000997   -3.4324239 
C    -4.5135634    3.9552901   -3.2819832 
H    -5.5377250    5.2738327   -1.8929621 
H    -4.8893370    3.9331639    0.1172594 
H    -3.5370944    1.8528754   -0.1481080 
H    -3.3929106    2.4959616   -4.4277122 
H    -4.7924779    4.5370356   -4.1671498 
C    -2.5324672   -6.3342973   -3.7336056 
C    -3.3133843   -7.3831344   -3.2294400 
C    -2.7204310   -8.3881569   -2.4513912 
C    -1.3427202   -8.3395903   -2.1883979 
C    -0.5616603   -7.2946547   -2.7026710 
C    -1.1507852   -6.2741685   -3.4744074 
C    -0.3189899   -5.1602822   -4.0900571 
C     0.4990352   -5.6715776   -5.2966929 
N     0.5816647   -4.5346980   -3.0978509 
C     1.1684496   -3.3424986   -3.3587276 
O     0.8458942   -2.6650942   -4.3565336 
C     2.3409354   -2.9735787   -2.4749929 
C     3.5779904   -2.8924115   -3.1451017 
C     4.7683479   -2.6994786   -2.4350010 
C     4.7345923   -2.6172753   -1.0359052 
C     3.5059497   -2.6681368   -0.3683600 
C     2.2948823   -2.8011093   -1.0707990 
C     0.9723468   -2.7256608   -0.3361178 
C     0.1582281   -1.6778719    2.1096338 
N     0.8353309   -2.9865222    2.0828678 
N     0.8682909   -3.6258134    0.8249390 
C     1.3172807   -3.5895894    3.2327106 
O     1.2846563   -3.0040584    4.3110070 
C     1.7875697   -5.0210798    3.0118096 
C     0.8463512   -5.7329749    2.0240260 
C     0.8374298   -4.9933786    0.6971687 
O     0.8683410   -5.5372905   -0.4110216 
C    -1.2119011   -1.7162753    2.7516802 
C    -1.3746514   -1.2040799    4.0655269 
C    -2.6347457   -1.2998732    4.6906631 
C    -3.7239018   -1.8850491    4.0324487 
C    -3.5544767   -2.4017553    2.7410853 
C    -2.3038819   -2.3226404    2.1126829 
C    -0.2567117   -0.4987656    4.7927182 
O     0.4818286    0.3316837    4.2439562 
N    -0.1490524   -0.7730443    6.1238813 
C     0.9079854   -0.1279816    6.9153356 
C     1.1785182   -0.9540084    8.1807004 
C     0.5330475    1.3196892    7.2308559 
C     1.4449096    2.3629081    6.9943172 
C     1.1141390    3.6888253    7.3135220 
C    -0.1364615    3.9869463    7.8750232 
C    -1.0553650    2.9519050    8.1117359 
C    -0.7219526    1.6295717    7.7884890 
C     1.7534534    0.1206062    0.6403213 
C     2.8174412   -0.1893629    1.5052120 
C     3.8422239    0.7364863    1.7356494 
C     3.8048389    1.9851199    1.1046901 
C     2.7215318    2.3222801    0.2840142 
C     1.6800738    1.4059833    0.0611906 
C    -0.5195102    3.4613879   -0.1177509 
C     0.2068270    3.8710604    1.1549495 
C     1.1592894    4.9047332    1.1493915 
C     1.9168365    5.2022546    2.2881088 
C     1.7508894    4.4489035    3.4578057 
C     0.7812486    3.4431279    3.4954801 
C    -0.0134623    3.1695034    2.3677532 
C    -1.0298202    2.0728884    2.4257685 
O    -1.0587228    1.1974006    1.5311604 
N    -1.9391288    2.0419072    3.4291438 
C    -2.1790853    3.0195736    4.5096538 
C    -3.4185485    2.5636782    5.2962538 
C    -2.3514422    4.4328166    3.9653866 
C    -1.7670622    5.5202010    4.6351732 
C    -1.9432495    6.8263267    4.1558027 
C    -2.7001879    7.0549989    2.9983816 
C    -3.2855337    5.9732047    2.3247098 
C    -3.1155359    4.6714891    2.8087888 
C     0.6087771    2.6456029   -2.5044347 
N    -0.1552841    3.8781750   -2.5018568 
N    -0.3894540    4.4419914   -1.2134544 
C    -0.7772011    4.3161870   -3.6686981 
O    -0.6732283    3.6699725   -4.7070289 
C    -1.4857464    5.6518426   -3.5403084 
C    -0.8725288    6.5008023   -2.4191492 
C    -0.9220301    5.7232925   -1.1140434 
O    -1.3843755    6.1370006   -0.0594314 
C     2.0930593    2.8116322   -2.7504805 
C     2.7424349    4.0465125   -2.5938303 
C     4.1337593    4.1414691   -2.7379574 
C     4.8895947    2.9970062   -3.0343430 
C     4.2446019    1.7684487   -3.2340896 
C     2.8476447    1.6729835   -3.1114661 
C     2.1104565    0.3759501   -3.3017340 
O     1.4266176   -0.0855767   -2.3545293 
N     2.1529717   -0.2450845   -4.4901588 
C     2.7537202    0.1986545   -5.7603407 
C     1.6484168    0.6697524   -6.7221483 
C     3.6182174   -0.9442677   -6.2884056 
C     5.0195486   -0.8784625   -6.1845270 
C     5.8210687   -1.9656675   -6.5650110 
C     5.2268633   -3.1381926   -7.0544266 
C     3.8296125   -3.2107787   -7.1713705 
C     3.0317661   -2.1213758   -6.7947936 
H    -3.0032248   -5.5425417   -4.3274629 
H    -4.3882055   -7.4095315   -3.4369706 
H    -3.3284169   -9.2074060   -2.0530962 
H    -0.8705784   -9.1214032   -1.5838427 
H     0.5113396   -7.2751700   -2.4851570 
H    -0.9923805   -4.3620410   -4.4472135 
H    -0.1796837   -6.0924809   -6.0570258 
H     1.1989875   -6.4628309   -4.9779284 
H     1.0685754   -4.8416582   -5.7468687 
H     0.8408817   -5.0346626   -2.2326981 
H     3.6020496   -3.0048848   -4.2334660 
H     5.7179983   -2.6429710   -2.9765965 
H     5.6609133   -2.5056497   -0.4630857 
H     3.4836171   -2.6072964    0.7218813 
H     0.1640253   -3.0042074   -1.0263476 
H     0.7766033   -0.9965906    2.7092744 
H     2.8192092   -5.0053247    2.6101787 
H     1.8178104   -5.5142745    3.9944002 
H     1.1506191   -6.7706253    1.8235909 
H    -0.1862904   -5.7517575    2.4234012 
H    -2.7618381   -0.8900176    5.6984240 
H    -4.6994116   -1.9373559    4.5269499 
H    -4.3918584   -2.8661163    2.2145537 
H    -2.1793716   -2.7336490    1.1065008 
H    -0.5842339   -1.6219985    6.4807469 
H     1.8156326   -0.1121539    6.2854966 
H     1.4853370   -1.9800546    7.9112564 
H     1.9868285   -0.4884109    8.7667689 
H     0.2810442   -1.0026345    8.8233584 
H     2.4171364    2.1340211    6.5431536 
H     1.8334829    4.4920158    7.1206428 
H    -0.3948613    5.0203808    8.1287429 
H    -2.0342626    3.1770476    8.5483231 
H    -1.4469549    0.8263213    7.9645541 
H     2.8434509   -1.1493551    2.0283122 
H     4.6632027    0.4798004    2.4126313 
H     4.6026929    2.7159223    1.2693392 
H     2.6903741    3.3109179   -0.1708584 
H    -1.5893011    3.2813581    0.0885201 
H     1.3233054    5.4738473    0.2309663 
H     2.6492849    6.0154369    2.2518348 
H     2.3635889    4.6493651    4.3426255 
H     0.6539800    2.8341163    4.3933727 
H    -2.5235135    1.2033939    3.4116523 
H    -1.3217981    3.0080658    5.2048264 
H    -3.2620906    1.5587394    5.7259854 
H    -3.6058805    3.2669559    6.1222285 
H    -4.3117329    2.5467490    4.6469049 
H    -1.1547437    5.3358765    5.5249956 
H    -1.4730202    7.6659241    4.6791490 
H    -2.8178245    8.0709521    2.6082041 
H    -3.8489494    6.1447300    1.4028858 
H    -3.5538374    3.8232047    2.2698024 
H     0.1710136    2.0127854   -3.2923472 
H    -2.5504690    5.4501551   -3.3264595 
H    -1.4345306    6.1446874   -4.5233818 
H    -1.4165376    7.4432911   -2.2633142 
H     0.1812944    6.7440483   -2.6564562 
H     2.1509533    4.9336008   -2.3450231 
H     4.6294207    5.1092166   -2.6094462 
H     5.9786400    3.0642935   -3.1240966 
H     4.8230957    0.8710756   -3.4778845 
H     1.6216220   -1.1486183   -4.5083302 
H     3.4077196    1.0564551   -5.5405866 
H     0.9224004   -0.1372607   -6.9211739 
H     2.0870349    0.9864500   -7.6834700 
H     1.1032629    1.5211122   -6.2783955 
H     5.4895801    0.0346467   -5.8003992 
H     6.9110404   -1.8953893   -6.4816468 
H     5.8494055   -3.9892763   -7.3498331 
H     3.3574803   -4.1211118   -7.5565304 
H     1.9428109   -2.2029495   -6.8703468 
