197
Energy =
C     1.5625505    1.0425721    3.3774169 
C     0.2470908    1.2971671    3.8788661 
C    -0.6397184    0.2343506    4.1488757 
H    -0.1226163    2.3295395    3.9166868 
Pd    0.0577092    0.3230704    1.9419668 
P    -1.7264083   -0.2989126    0.5556562 
P     1.3359928    0.1999800    0.0127684 
H     2.0349313    0.0927844    3.6723300 
H    -0.1970658   -0.7593504    4.3186761 
C     4.2417230    4.3436016    2.7172067 
C     2.9170232    4.4143473    2.2607528 
C     2.0439395    3.3347430    2.4409859 
C     2.4901366    2.1573318    3.0860132 
C     3.8330704    2.0874643    3.5168812 
C     4.6978803    3.1751471    3.3427082 
H     4.9238144    5.1842841    2.5571643 
H     2.5638096    5.3127343    1.7467488 
H     1.0195863    3.3727093    2.0522486 
H     4.1892486    1.1797686    4.0183002 
H     5.7354667    3.1062745    3.6849862 
C    -4.5897932    0.6823164    5.7926520 
C    -4.1239603    1.6105986    4.8475158 
C    -2.8379550    1.4867897    4.3097342 
C    -2.0008924    0.4132365    4.6896511 
C    -2.4783264   -0.5092827    5.6487817 
C    -3.7578175   -0.3719080    6.2006624 
H    -5.5977751    0.7805074    6.2089438 
H    -4.7751189    2.4192015    4.5039409 
H    -2.4821825    2.2067077    3.5668819 
H    -1.8299771   -1.3330590    5.9675427 
H    -4.1082974   -1.0912317    6.9487630 
C     0.7224400    7.1113066    2.5667441 
C     1.5441712    8.2108066    2.2767301 
C     1.1834831    9.1117569    1.2635946 
C    -0.0106204    8.9135654    0.5537529 
C    -0.8278116    7.8114461    0.8452720 
C    -0.4646993    6.8872402    1.8451108 
C    -1.3405053    5.6839493    2.1785807 
C    -2.5349886    6.0512631    3.0805439 
N    -1.7931167    5.0223857    0.9439810 
C    -1.9215358    3.6518917    0.8529129 
O    -1.5244134    2.9137051    1.7636853 
C    -2.5962463    3.1665588   -0.3984883 
C    -2.6069710    3.9837132   -1.5515325 
C    -3.3458952    3.6427810   -2.6866781 
C    -4.1266575    2.4789250   -2.6706993 
C    -4.0957073    1.6418946   -1.5517630 
C    -3.3055094    1.9369855   -0.4246890 
C    -3.2095464    0.9199607    0.6950802 
C    -2.8697517   -1.8160594    0.4318195 
N    -4.2113701   -1.2237609    0.2346750 
N    -4.3721657    0.0489671    0.8206250 
C    -5.2996912   -1.9756017   -0.1736164 
O    -5.1554129   -3.1125800   -0.6153874 
C    -6.6350968   -1.2854137    0.0746802 
C    -6.6166152   -0.6168047    1.4621834 
C    -5.5109060    0.4289001    1.5186949 
O    -5.5878667    1.5343742    2.0398440 
C    -2.8618444   -2.8452231    1.5408306 
C    -2.8181528   -4.2272233    1.2206876 
C    -2.8551348   -5.1765354    2.2624915 
C    -2.9706999   -4.7761939    3.5999016 
C    -3.0709953   -3.4120918    3.9064178 
C    -3.0130427   -2.4579405    2.8818494 
C    -2.7386195   -4.7077289   -0.2082567 
O    -1.9903683   -4.1989994   -1.0533818 
N    -3.5437345   -5.7707141   -0.4993018 
C    -3.6947302   -6.2440155   -1.8787266 
C    -5.1800752   -6.5362497   -2.1540683 
C    -2.8016400   -7.4460198   -2.1817832 
C    -2.3512174   -7.6628664   -3.4972972 
C    -1.5841347   -8.7920987   -3.8155311 
C    -1.2468479   -9.7187691   -2.8167074 
C    -1.6811675   -9.5056500   -1.4999163 
C    -2.4554415   -8.3782671   -1.1875668 
C    -1.1258577   -0.2513778   -1.1905358 
C    -1.9872250   -0.5549013   -2.2613840 
C    -1.5133188   -0.5825414   -3.5774128 
C    -0.1633539   -0.3173126   -3.8347686 
C     0.7117204   -0.0460693   -2.7770101 
C     0.2449816   -0.0133689   -1.4497998 
C     2.4889470   -1.3383047    0.0475677 
C     2.2715845   -2.2717294   -1.1277491 
C     3.0195110   -2.1518481   -2.3108345 
C     2.7016550   -2.9162680   -3.4393999 
C     1.6120855   -3.7990001   -3.4062775 
C     0.8928800   -3.9697733   -2.2191833 
C     1.2420193   -3.2368223   -1.0712552 
C     0.4982678   -3.4155323    0.2148897 
O    -0.1038105   -2.4441229    0.7229660 
N     0.4862233   -4.6229778    0.8404569 
C     1.5463955   -5.6737790    0.9212258 
C     2.6318934   -5.2187927    1.9112214 
C     2.0813360   -6.1331554   -0.4304753 
C     3.3347656   -5.7171071   -0.9177609 
C     3.7884002   -6.1605237   -2.1681588 
C     3.0023473   -7.0254410   -2.9428187 
C     1.7547125   -7.4497322   -2.4601730 
C     1.3005777   -7.0082069   -1.2110181 
C     2.7903131    1.3702971   -0.3555466 
N     3.9739606    0.6192861    0.0547797 
N     3.8472925   -0.7970786    0.1128556 
C     5.1068194    1.2932587    0.4795016 
O     5.1727536    2.5149471    0.3765739 
C     6.2037196    0.4074838    1.0406396 
C     6.2769255   -0.9331788    0.2989868 
C     4.9290225   -1.6334067    0.3091225 
O     4.7647178   -2.8414448    0.4694600 
C     2.8863559    1.9495140   -1.7553784 
C     3.8457625    1.4777632   -2.6649236 
C     3.9065489    1.9763925   -3.9723050 
C     2.9991243    2.9598654   -4.3906186 
C     2.0749762    3.4777196   -3.4767932 
C     2.0267499    3.0012367   -2.1559442 
C     1.0724256    3.5473761   -1.1432291 
O     0.4207910    2.7516869   -0.4326429 
N     0.9257955    4.8865300   -0.9393468 
C     1.5701418    6.1258987   -1.4483413 
C     0.6123374    6.8426358   -2.4139150 
C     2.9964153    5.9401139   -1.9641330 
C     3.9250954    5.1855826   -1.2194266 
C     5.2360047    5.0044426   -1.6738530 
C     5.6523075    5.5962443   -2.8767276 
C     4.7453821    6.3652811   -3.6167010 
C     3.4266735    6.5320599   -3.1656286 
H     1.0101518    6.4113848    3.3587849 
H     2.4697979    8.3605269    2.8423373 
H     1.8255092    9.9679464    1.0329226 
H    -0.3070666    9.6176400   -0.2308008 
H    -1.7608725    7.6834344    0.2829249 
H    -0.7265483    4.9322153    2.6990585 
H    -3.2027437    6.7703877    2.5734165 
H    -2.1782150    6.5179368    4.0137652 
H    -3.1120433    5.1452738    3.3332221 
H    -2.3923524    5.5725921    0.3297102 
H    -1.9995442    4.8942397   -1.5708227 
H    -3.3228155    4.2872851   -3.5710307 
H    -4.7448441    2.2129804   -3.5341597 
H    -4.6952941    0.7272718   -1.5471492 
H    -3.0696874    1.4247775    1.6589596 
H    -2.5683450   -2.3157476   -0.4990487 
H    -6.8113047   -0.5242165   -0.7100398 
H    -7.4212589   -2.0492777   -0.0162290 
H    -7.5643051   -0.1108044    1.6980532 
H    -6.4315450   -1.3737281    2.2487551 
H    -2.7847739   -6.2418717    2.0161722 
H    -2.9942626   -5.5265814    4.3969924 
H    -3.1920257   -3.0868373    4.9431948 
H    -3.0807335   -1.3936918    3.1306454 
H    -4.2905919   -5.9824078    0.1604028 
H    -3.3641912   -5.4069155   -2.5182324 
H    -5.3168597   -6.8527908   -3.2008505 
H    -5.5445447   -7.3553801   -1.5073475 
H    -5.7802265   -5.6289204   -1.9686786 
H    -2.6043309   -6.9380422   -4.2805073 
H    -1.2423372   -8.9458265   -4.8448359 
H    -0.6436647  -10.5992037   -3.0619415 
H    -1.4172197  -10.2208159   -0.7133169 
H    -2.7879166   -8.2128993   -0.1567553 
H    -3.0357432   -0.7946249   -2.0690079 
H    -2.1989985   -0.8227930   -4.3961813 
H     0.2236989   -0.3435599   -4.8581640 
H     1.7649184    0.1223919   -2.9959904 
H     2.2670606   -1.8512593    0.9968840 
H     3.8507043   -1.4421730   -2.3501777 
H     3.2985790   -2.8099029   -4.3512935 
H     1.3418548   -4.3803712   -4.2928858 
H     0.0533656   -4.6645514   -2.1634163 
H    -0.0984967   -4.5783060    1.6807569 
H     1.0145034   -6.5379404    1.3575486 
H     2.1770461   -4.9818034    2.8892527 
H     3.3773804   -6.0183058    2.0598791 
H     3.1556937   -4.3209798    1.5415605 
H     3.9510950   -5.0182015   -0.3455883 
H     4.7602995   -5.8187879   -2.5395664 
H     3.3608309   -7.3707719   -3.9186850 
H     1.1289303   -8.1257122   -3.0507940 
H     0.3187268   -7.3357266   -0.8502491 
H     2.6753728    2.1903034    0.3740668 
H     5.9800243    0.2417874    2.1125572 
H     7.1464641    0.9713869    0.9837430 
H     7.0108603   -1.6203889    0.7445667 
H     6.5701897   -0.7694294   -0.7566898 
H     4.5581967    0.7146080   -2.3392262 
H     4.6631754    1.5942722   -4.6651050 
H     3.0304033    3.3436546   -5.4147961 
H     1.3865377    4.2683976   -3.7861994 
H     0.2117092    5.0682391   -0.2237564 
H     1.6437802    6.7609528   -0.5440664 
H     0.5045020    6.2930057   -3.3648332 
H     0.9657960    7.8635471   -2.6326727 
H    -0.3830853    6.9294722   -1.9484181 
H     3.6234499    4.6917666   -0.2914983 
H     5.9157490    4.3844634   -1.0826939 
H     6.6779101    5.4570057   -3.2349934 
H     5.0579688    6.8349375   -4.5555600 
H     2.7361861    7.1245911   -3.7722625 
