197
Energy =
C    -2.3250215   -2.5456827   -1.4405388 
C    -3.0298876   -1.3330148   -1.2910201 
C    -2.5666707   -0.1518779   -1.9680732 
H    -3.8155482   -1.2437203   -0.5297866 
Pd   -1.0101408   -0.8603975   -0.6329443 
P     0.5039469    0.8647592   -0.9209317 
P     0.5295234   -1.6079260    0.9625424 
H    -1.6402201   -2.6290879   -2.2997859 
H    -2.1570544   -0.2798430   -2.9807395 
C    -3.0508242   -6.2818018    0.5493640 
C    -3.9561318   -5.2218959    0.7247503 
C    -3.7473101   -4.0002994    0.0756633 
C    -2.6197994   -3.8121424   -0.7573438 
C    -1.7339752   -4.8985134   -0.9461075 
C    -1.9432828   -6.1188696   -0.2963217 
H    -3.2125088   -7.2346310    1.0634048 
H    -4.8356894   -5.3526989    1.3642520 
H    -4.4752791   -3.1926570    0.2006136 
H    -0.8704085   -4.7675819   -1.6065397 
H    -1.2335028   -6.9387996   -0.4328444 
C    -4.1219259    3.7670963   -1.0809075 
C    -4.0619605    2.7916945   -0.0722869 
C    -3.5512121    1.5190614   -0.3485453 
C    -3.0943879    1.1922611   -1.6489674 
C    -3.1336134    2.1911951   -2.6466721 
C    -3.6540519    3.4605436   -2.3661207 
H    -4.5062215    4.7671364   -0.8583128 
H    -4.4029004    3.0298255    0.9406826 
H    -3.4677493    0.7820012    0.4577759 
H    -2.7710123    1.9587769   -3.6528600 
H    -3.6852858    4.2181744   -3.1553672 
C     4.1357600   -5.2748497   -4.7332655 
C     4.6123417   -5.1309790   -6.0453754 
C     3.7092777   -4.9656566   -7.1055097 
C     2.3292331   -4.9550944   -6.8471623 
C     1.8551502   -5.1031632   -5.5365139 
C     2.7556075   -5.2573885   -4.4631758 
C     2.2517451   -5.3148840   -3.0242794 
C     1.2254382   -6.4300927   -2.7603176 
N     1.6905332   -3.9949650   -2.6789741 
C     1.9902950   -3.1979158   -1.6373270 
O     1.4113921   -2.0973339   -1.4801661 
C     2.9871660   -3.6192621   -0.5983789 
C     4.3490312   -3.8009109   -0.8945128 
C     5.2568074   -4.1192883    0.1248662 
C     4.7980042   -4.2725312    1.4410889 
C     3.4435163   -4.0722624    1.7418760 
C     2.5303636   -3.7222778    0.7354217 
C     1.0679618   -3.4416517    1.0329941 
C     0.1495786   -1.5493426    2.8261035 
N     0.6118794   -2.8629252    3.3244066 
N     0.6141158   -3.8808722    2.3449860 
C     0.7211043   -3.1450987    4.6736674 
O     0.6326240   -2.2541674    5.5156068 
C     0.8656791   -4.6312666    4.9773390 
C    -0.0789471   -5.4424501    4.0714097 
C     0.2681263   -5.1988844    2.6099352 
O     0.3192056   -6.0490165    1.7293477 
C    -1.2923574   -1.2778009    3.2037670 
C    -1.5983172   -0.3959753    4.2695293 
C    -2.9438182   -0.2096040    4.6478777 
C    -3.9802278   -0.8779018    3.9820579 
C    -3.6721476   -1.7707830    2.9460045 
C    -2.3374427   -1.9711595    2.5685187 
C    -0.5214575    0.3787941    4.9896641 
O     0.3708987    1.0026559    4.3994189 
N    -0.6277593    0.3993022    6.3496726 
C     0.4358490    1.0379960    7.1386092 
C     0.4618561    0.4295491    8.5477440 
C     0.2583252    2.5543746    7.1554277 
C    -0.9703957    3.1288267    7.5323509 
C    -1.1165193    4.5208161    7.6060426 
C    -0.0331368    5.3588610    7.2966632 
C     1.1882989    4.7959960    6.8965821 
C     1.3303731    3.4019915    6.8257800 
C     2.0287944   -0.5418003    0.9187053 
C     3.1078636   -0.7469362    1.7948018 
C     4.2156300    0.1103198    1.7693348 
C     4.2426211    1.1908950    0.8788180 
C     3.1558565    1.4204684    0.0259538 
C     2.0414291    0.5634680    0.0358407 
C     0.0812716    2.7091861   -0.7368911 
C     0.8336960    3.4232120    0.3778551 
C     1.8444716    4.3526411    0.0872817 
C     2.5941485    4.9452698    1.1121606 
C     2.3518349    4.6002841    2.4488454 
C     1.3134648    3.7147452    2.7588380 
C     0.5339127    3.1508876    1.7354221 
C    -0.6120099    2.2384832    2.0370201 
O    -0.6806504    1.1282591    1.4653035 
N    -1.6230287    2.6508502    2.8407118 
C    -1.7172962    3.8186383    3.7394415 
C    -3.1135405    3.7962746    4.3863203 
C    -1.4706426    5.1541549    3.0437169 
C    -0.9356683    6.2140934    3.7984477 
C    -0.7439289    7.4760490    3.2216251 
C    -1.0763759    7.6897857    1.8751998 
C    -1.6002566    6.6352913    1.1139391 
C    -1.8023429    5.3758197    1.6969188 
C     0.8601102    1.0462146   -2.7876285 
N     0.9391511    2.4959673   -3.0415732 
N     0.2682984    3.3029944   -2.0676172 
C     1.0790625    2.9609779   -4.3362760 
O     1.2419061    2.1870104   -5.2848704 
C     0.9484726    4.4631239   -4.4752499 
C    -0.3887767    4.8774271   -3.8464130 
C    -0.4768125    4.4327160   -2.3986555 
O    -1.1252842    5.0096349   -1.5352123 
C     2.0321516    0.2691575   -3.3521895 
C     3.3528539    0.6689666   -3.0883096 
C     4.4440938   -0.0968423   -3.5142634 
C     4.2290285   -1.2855325   -4.2251553 
C     2.9214344   -1.6766161   -4.5344063 
C     1.8227825   -0.9047622   -4.1159050 
C     0.4654703   -1.3527369   -4.5929034 
O     0.0173245   -2.5006066   -4.3907710 
N    -0.2013525   -0.4230415   -5.3219466 
C    -1.4570482   -0.7208837   -6.0248486 
C    -1.1676179   -1.1909002   -7.4659265 
C    -2.4074044    0.4691301   -5.9930019 
C    -3.7658107    0.2706379   -5.6814053 
C    -4.6736128    1.3397131   -5.7067335 
C    -4.2334477    2.6275692   -6.0442154 
C    -2.8808144    2.8376335   -6.3556361 
C    -1.9736491    1.7671531   -6.3334037 
H     4.8460704   -5.3995488   -3.9072810 
H     5.6902056   -5.1486026   -6.2391120 
H     4.0782996   -4.8493061   -8.1298502 
H     1.6179396   -4.8284665   -7.6704994 
H     0.7768151   -5.0645010   -5.3494040 
H     3.1133684   -5.4868710   -2.3619606 
H     1.6455747   -7.4075175   -3.0509579 
H     0.2974437   -6.2690315   -3.3352876 
H     0.9751422   -6.4585716   -1.6858532 
H     1.0216273   -3.5519258   -3.3502135 
H     4.6946190   -3.6743069   -1.9260050 
H     6.3175426   -4.2553818   -0.1089646 
H     5.4970310   -4.5431782    2.2390363 
H     3.0903770   -4.1841250    2.7716645 
H     0.4336999   -3.9543802    0.2907758 
H     0.7904643   -0.7693449    3.2591417 
H     1.9148996   -4.9426385    4.8091429 
H     0.6460527   -4.7693404    6.0462798 
H    -0.0098250   -6.5249349    4.2531880 
H    -1.1287835   -5.1353698    4.2428821 
H    -3.1744319    0.4765689    5.4699989 
H    -5.0206518   -0.7110877    4.2795880 
H    -4.4703502   -2.3178400    2.4352016 
H    -2.1072423   -2.6793686    1.7641530 
H    -1.1745717   -0.3411302    6.7872491 
H     1.3898207    0.8151187    6.6276673 
H     0.6355875   -0.6593533    8.4869434 
H     1.2739363    0.8833737    9.1379473 
H    -0.4879403    0.6159535    9.0805451 
H    -1.8199206    2.4774298    7.7685480 
H    -2.0756710    4.9542849    7.9093360 
H    -0.1429382    6.4464198    7.3637139 
H     2.0324776    5.4445232    6.6383775 
H     2.2828415    2.9624485    6.5081921 
H     3.0835074   -1.5732469    2.5099023 
H     5.0514932   -0.0632746    2.4545376 
H     5.0985530    1.8727993    0.8596450 
H     3.1702519    2.2926784   -0.6288010 
H    -1.0046713    2.7272100   -0.5279586 
H     2.0482502    4.6073224   -0.9576228 
H     3.3751931    5.6708326    0.8622698 
H     2.9522007    5.0389546    3.2522028 
H     1.1072550    3.4408843    3.7969289 
H    -2.3169806    1.9137847    2.9864447 
H    -0.9743832    3.6994726    4.5506112 
H    -3.2768341    2.8546883    4.9403770 
H    -3.2002677    4.6315835    5.0980683 
H    -3.8995549    3.9093916    3.6191249 
H    -0.6567851    6.0393272    4.8429212 
H    -0.3233955    8.2904932    3.8217554 
H    -0.9170740    8.6725826    1.4183542 
H    -1.8334035    6.7727450    0.0547892 
H    -2.1900878    4.5585305    1.0815776 
H    -0.0784699    0.6725252   -3.2286517 
H     1.0073949    4.7108250   -5.5444635 
H     1.7858971    4.9602542   -3.9504510 
H    -1.2319327    4.4067972   -4.3888628 
H    -0.5481698    5.9660106   -3.8688040 
H     3.5293640    1.6049470   -2.5552321 
H     5.4619470    0.2397117   -3.2919415 
H     5.0720963   -1.8958871   -4.5647681 
H     2.7438769   -2.5783921   -5.1269062 
H     0.2959777    0.4626385   -5.5023607 
H    -1.9098774   -1.5595585   -5.4710126 
H    -0.6680722   -0.3927372   -8.0420073 
H    -2.1087101   -1.4508294   -7.9788584 
H    -0.5141536   -2.0798601   -7.4456964 
H    -4.1150617   -0.7329819   -5.4124926 
H    -5.7249044    1.1671180   -5.4547258 
H    -4.9401876    3.4635755   -6.0632115 
H    -2.5314172    3.8387418   -6.6320931 
H    -0.9230429    1.9534063   -6.5836985 
