197
Energy =
C     2.0831993   -0.1992837    3.3008467 
C     0.8821965    0.3380746    3.8534829 
C    -0.2048763   -0.5190673    4.1612389 
H     0.7340302    1.4253574    3.8718980 
Pd    0.3932308   -0.6971794    1.9991970 
P    -1.5700772   -1.1075849    0.8062621 
P     1.4790152   -0.8478634   -0.0431571 
H     2.3524335   -1.2270991    3.5862956 
H     0.0226958   -1.5718866    4.3845938 
C     5.3582251    2.2399729    1.9391381 
C     5.5892642    0.9548049    2.4516112 
C     4.5149673    0.1572333    2.8662839 
C     3.1909176    0.6441074    2.8051333 
C     2.9700271    1.9383287    2.2733622 
C     4.0427445    2.7241927    1.8413104 
H     6.1958734    2.8624225    1.6076222 
H     6.6089287    0.5629679    2.5266568 
H     4.7052478   -0.8471596    3.2598349 
H     1.9466101    2.3198602    2.1802222 
H     3.8550975    3.7156466    1.4180869 
C    -4.0593356    0.8443720    5.4895880 
C    -3.5631030   -0.4028421    5.8951169 
C    -2.3088984   -0.8376332    5.4494842 
C    -1.5252969   -0.0316073    4.5972274 
C    -2.0332189    1.2259292    4.1967545 
C    -3.2867953    1.6535007    4.6404855 
H    -5.0429669    1.1863432    5.8284266 
H    -4.1543467   -1.0430074    6.5585442 
H    -1.9260593   -1.8143206    5.7613020 
H    -1.4706771    1.8651174    3.5082262 
H    -3.6668543    2.6200956    4.3075286 
C    -3.4394700    7.0858242    2.8890800 
C    -3.4433668    8.4721045    2.6693065 
C    -4.5127177    9.0725534    1.9888693 
C    -5.5747741    8.2788437    1.5253009 
C    -5.5657418    6.8946582    1.7449026 
C    -4.4995361    6.2823111    2.4327451 
C    -4.4894618    4.7775229    2.6931791 
C    -5.7243688    4.3033769    3.4787195 
N    -4.3730812    4.0127445    1.4412164 
C    -3.2652585    3.3157852    1.0845634 
O    -2.2006395    3.3603455    1.7326595 
C    -3.4225764    2.5574669   -0.2153572 
C    -3.8047350    3.3209143   -1.3387178 
C    -4.0215417    2.7239274   -2.5856301 
C    -3.8904804    1.3353904   -2.7110344 
C    -3.5154016    0.5716791   -1.5998405 
C    -3.2377117    1.1547129   -0.3500870 
C    -2.9367167    0.2635472    0.8492665 
C    -2.8420018   -2.4831165    1.2256115 
N    -4.1077666   -1.8580257    0.8796315 
N    -4.1521601   -0.4993707    1.2379287 
C    -5.1699257   -2.5186503    0.2802142 
O    -5.0737145   -3.6916874   -0.0635341 
C    -6.4252211   -1.6612995    0.1980466 
C    -6.5548644   -0.8005916    1.4689494 
C    -5.3398697    0.1128224    1.5896983 
O    -5.3810466    1.3073928    1.8683494 
C    -2.8124972   -3.0868580    2.6266426 
C    -1.6780564   -3.7966497    3.0936310 
C    -1.6962887   -4.4044576    4.3619515 
C    -2.8499409   -4.3695021    5.1552472 
C    -3.9778641   -3.6786867    4.6941608 
C    -3.9462091   -3.0298076    3.4531544 
C    -0.4065182   -3.8947726    2.2934009 
O     0.6504657   -3.4070668    2.7322008 
N    -0.4882022   -4.4963205    1.0697344 
C    -1.4602842   -5.5539240    0.7018414 
C    -1.0745282   -6.8933235    1.3633575 
C    -1.5748532   -5.6955005   -0.8103296 
C    -0.4332877   -5.8927409   -1.6111394 
C    -0.5579842   -6.1275307   -2.9865634 
C    -1.8285137   -6.1799519   -3.5803371 
C    -2.9698989   -5.9725275   -2.7920332 
C    -2.8448119   -5.7269214   -1.4160194 
C    -1.0561034   -1.6820081   -0.8833857 
C    -1.9480752   -2.3075875   -1.7758426 
C    -1.5084231   -2.7896410   -3.0147273 
C    -0.1584029   -2.6897378   -3.3669379 
C     0.7577489   -2.1175584   -2.4760748 
C     0.3198715   -1.6149704   -1.2372563 
C     3.1698038   -1.7487343   -0.0299851 
C     3.2328607   -3.1980728   -0.4833402 
C     2.7689058   -4.1491365    0.4476108 
C     2.8272750   -5.5230524    0.1858217 
C     3.3645770   -5.9808925   -1.0255754 
C     3.8621489   -5.0480491   -1.9412778 
C     3.8098000   -3.6595888   -1.6877851 
C     4.4280431   -2.7703013   -2.7452670 
O     3.7816973   -1.9519551   -3.4143447 
N     5.7478929   -3.0346450   -2.9567943 
C     6.5317919   -2.4924242   -4.0749283 
C     6.9008743   -3.6208405   -5.0585454 
C     7.7652234   -1.7360156   -3.5929491 
C     8.6229503   -2.2770747   -2.6151091 
C     9.7581115   -1.5727763   -2.1899100 
C    10.0569391   -0.3181551   -2.7434814 
C     9.2193199    0.2219781   -3.7303375 
C     8.0845843   -0.4857820   -4.1531638 
C     2.2143051    0.6795634   -0.8998741 
N     3.6315036    0.4063327   -1.0941176 
N     4.1404092   -0.8511467   -0.6580324 
C     4.4476199    1.4010425   -1.6047283 
O     4.0052328    2.5328678   -1.7864108 
C     5.8379262    0.9192945   -1.9541902 
C     6.4303326    0.0563807   -0.8380986 
C     5.4882350   -1.0283309   -0.3519327 
O     5.8446788   -2.0375090    0.2526349 
C     1.5058980    1.0485425   -2.1952048 
C     1.9743831    0.6396641   -3.4534276 
C     1.2674351    0.9806616   -4.6144647 
C     0.0887173    1.7368872   -4.5355309 
C    -0.3744062    2.1675986   -3.2857607 
C     0.3337314    1.8264738   -2.1212887 
C    -0.1798986    2.1665361   -0.7609438 
O    -0.4718855    1.2253975    0.0156925 
N    -0.2958675    3.4467067   -0.3733989 
C     0.1668377    4.6429246   -1.0978711 
C     1.2596967    5.3526120   -0.2797403 
C    -1.0200977    5.5314868   -1.4543489 
C    -1.3940412    5.7024731   -2.7998777 
C    -2.5109375    6.4804327   -3.1410988 
C    -3.2640419    7.1037366   -2.1352614 
C    -2.8920104    6.9494152   -0.7901396 
C    -1.7804483    6.1655501   -0.4526027 
H    -2.6023620    6.6189818    3.4211488 
H    -2.6098908    9.0837089    3.0305567 
H    -4.5189743   10.1540450    1.8180590 
H    -6.4117894    8.7405609    0.9907783 
H    -6.3993428    6.2874698    1.3729065 
H    -3.5712773    4.5386489    3.2542620 
H    -6.6557882    4.5548176    2.9407895 
H    -5.7594393    4.8017507    4.4613504 
H    -5.6989317    3.2103624    3.6139083 
H    -5.2360821    3.7617825    0.9597946 
H    -3.9164507    4.4041690   -1.2281589 
H    -4.2961208    3.3436954   -3.4450941 
H    -4.0719069    0.8413564   -3.6710485 
H    -3.4328223   -0.5089458   -1.7086904 
H    -2.6347452    0.8820218    1.7072611 
H    -2.6764518   -3.2833117    0.4895004 
H    -6.3547651   -1.0096762   -0.6943048 
H    -7.2803061   -2.3380794    0.0549488 
H    -7.4446814   -0.1542918    1.4484805 
H    -6.6340020   -1.4449519    2.3653374 
H    -0.7978491   -4.9251718    4.7090175 
H    -2.8637815   -4.8710518    6.1279886 
H    -4.8842813   -3.6301640    5.3057676 
H    -4.8236450   -2.4737749    3.1168710 
H     0.3945836   -4.5000131    0.5499257 
H    -2.4428516   -5.2481101    1.0975854 
H    -1.8127721   -7.6700371    1.1037965 
H    -0.0836371   -7.2281226    1.0107533 
H    -1.0447114   -6.7853179    2.4617170 
H     0.5692269   -5.8698182   -1.1699930 
H     0.3418895   -6.2755437   -3.5931574 
H    -1.9271181   -6.3764846   -4.6533469 
H    -3.9659208   -6.0000081   -3.2467510 
H    -3.7396175   -5.5430525   -0.8132181 
H    -2.9996144   -2.4500848   -1.5083499 
H    -2.2235280   -3.2711962   -3.6868888 
H     0.1937791   -3.0742951   -4.3289142 
H     1.8150625   -2.0597162   -2.7578922 
H     3.4064642   -1.7654753    1.0506306 
H     2.3678623   -3.8025251    1.4076123 
H     2.4690557   -6.2331344    0.9390843 
H     3.4182795   -7.0517871   -1.2459047 
H     4.3118751   -5.3931960   -2.8788602 
H     6.2017222   -3.6699799   -2.3010669 
H     5.8516221   -1.7848174   -4.5764871 
H     5.9900044   -4.1202591   -5.4310966 
H     7.4580067   -3.2096663   -5.9167293 
H     7.5434492   -4.3725461   -4.5662482 
H     8.4053163   -3.2512605   -2.1618858 
H    10.4086252   -2.0040943   -1.4219896 
H    10.9415885    0.2338506   -2.4094271 
H     9.4474902    1.1979295   -4.1717273 
H     7.4310643   -0.0564909   -4.9216628 
H     2.1126278    1.5026900   -0.1710061 
H     6.4657458    1.7929987   -2.1783658 
H     5.7451326    0.3199834   -2.8787878 
H     6.6748359    0.6782294    0.0401102 
H     7.3612715   -0.4375575   -1.1540860 
H     2.8819771    0.0354480   -3.5239044 
H     1.6424374    0.6473293   -5.5876834 
H    -0.4663330    1.9944848   -5.4436312 
H    -1.2929249    2.7554842   -3.1986555 
H    -0.7880072    3.5550226    0.5345760 
H     0.6248250    4.2825888   -2.0319056 
H     0.8909865    5.6389981    0.7210211 
H     1.5891570    6.2669985   -0.8004021 
H     2.1267558    4.6797473   -0.1652637 
H    -0.8028343    5.2225064   -3.5882291 
H    -2.7875008    6.6043997   -4.1938164 
H    -4.1340416    7.7158283   -2.3958595 
H    -3.4690446    7.4378606   -0.0011761 
H    -1.5180741    6.0432556    0.6041898 
