197
Energy =
C     2.2011687    1.0121089    3.3471961 
C     1.0879760    0.2920818    3.8860133 
C     0.9820352   -1.1045596    3.7257475 
H     0.2303738    0.8471773    4.2857819 
Pd    1.1012619    0.0501413    1.7216854 
P    -0.3171626   -0.9169231    0.1289237 
P     1.9958329    1.2361714   -0.0614981 
H     3.1715212    0.4948971    3.2944223 
H     1.9084071   -1.6673924    3.5323217 
C     2.3955388    5.3119445    3.4681086 
C     1.1545189    4.6645841    3.3502345 
C     1.0802435    3.2698562    3.2973251 
C     2.2552039    2.4879665    3.3930084 
C     3.4945300    3.1468546    3.5317191 
C     3.5663434    4.5459699    3.5608397 
H     2.4518398    6.4048482    3.4779647 
H     0.2342829    5.2521207    3.2779209 
H     0.1197403    2.7713141    3.1323608 
H     4.4022479    2.5429667    3.6368430 
H     4.5371959    5.0435231    3.6543897 
C    -2.2450433   -3.4556234    5.3237373 
C    -2.5168082   -2.2010690    4.7534001 
C    -1.4765981   -1.4216216    4.2357266 
C    -0.1454125   -1.8978524    4.2515110 
C     0.1144433   -3.1650147    4.8200288 
C    -0.9248101   -3.9293380    5.3658178 
H    -3.0599890   -4.0623725    5.7320877 
H    -3.5458126   -1.8361721    4.6898499 
H    -1.6921970   -0.4461705    3.7890746 
H     1.1418303   -3.5455003    4.8387676 
H    -0.7047632   -4.9022575    5.8187007 
C    -5.3474333    1.4226301    2.6742837 
C    -6.4039429    0.5626783    2.3441466 
C    -7.5056681    1.0474599    1.6235518 
C    -7.5418628    2.3930316    1.2279982 
C    -6.4738545    3.2449332    1.5415864 
C    -5.3664553    2.7688186    2.2662357 
C    -4.2354580    3.7356724    2.6014739 
C    -4.4185051    4.3465473    4.0013471 
N    -2.8780319    3.1169529    2.5604096 
C    -2.4297316    1.9978574    1.8653300 
O    -1.5798168    1.2815908    2.4183633 
C    -2.9591477    1.7246758    0.4946762 
C    -3.5696999    2.7562541   -0.2495250 
C    -4.1543441    2.5174620   -1.4940597 
C    -4.1785806    1.2120063   -2.0018575 
C    -3.5594393    0.1822369   -1.2868784 
C    -2.9061887    0.4186018   -0.0633268 
C    -2.1697445   -0.7270697    0.6016864 
C    -0.5800911   -2.6768300   -0.5624624 
N    -2.0619381   -2.7697213   -0.6666965 
N    -2.7432748   -2.0392619    0.3301652 
C    -2.6846179   -3.8332058   -1.3071517 
O    -2.0601830   -4.5726639   -2.0581295 
C    -4.1375693   -4.0174217   -0.8951081 
C    -4.2289615   -3.9370124    0.6402412 
C    -3.7559661   -2.5710276    1.1168452 
O    -4.2394628   -1.9255079    2.0411776 
C    -0.0184218   -3.8886255    0.1459621 
C     0.5728133   -4.9305951   -0.6183459 
C     0.9227541   -6.1383901    0.0153192 
C     0.7064665   -6.3183038    1.3869951 
C     0.1199808   -5.2919829    2.1387197 
C    -0.2454361   -4.0887533    1.5174498 
C     0.8633672   -4.7584748   -2.0936561 
O     1.4109281   -3.7376574   -2.5391596 
N     0.5227443   -5.8326633   -2.8629029 
C     0.4974304   -5.8463361   -4.3469246 
C     1.8213575   -5.3891447   -4.9767071 
C    -0.7402431   -5.1115917   -4.8629488 
C    -0.8199402   -3.7043435   -4.8740612 
C    -2.0011088   -3.0704831   -5.2813840 
C    -3.1162844   -3.8223486   -5.6825943 
C    -3.0424778   -5.2215612   -5.6798320 
C    -1.8608385   -5.8562520   -5.2717380 
C    -0.0207349   -0.0582360   -1.4859281 
C    -0.7442645   -0.4038981   -2.6431503 
C    -0.4136597    0.1470768   -3.8872530 
C     0.6751319    1.0184164   -3.9978216 
C     1.4178882    1.3499570   -2.8598502 
C     1.0684158    0.8397529   -1.5966126 
C     3.8090534    0.6841638   -0.3117356 
C     4.1497580    0.2063706   -1.7060050 
C     4.7372762    1.0507795   -2.6616740 
C     4.9615270    0.6020379   -3.9709681 
C     4.6031744   -0.7033298   -4.3394433 
C     4.0646579   -1.5736407   -3.3812744 
C     3.8453657   -1.1279969   -2.0669738 
C     3.3363242   -2.0556818   -1.0008391 
O     2.3376977   -1.7851129   -0.3111788 
N     4.1013747   -3.1527787   -0.7820659 
C     3.8427339   -4.0870416    0.3182955 
C     4.6274938   -3.6566122    1.5721700 
C     4.0802381   -5.5251182   -0.1361410 
C     3.9445260   -5.8780768   -1.4939050 
C     4.0663112   -7.2123606   -1.9069238 
C     4.3234472   -8.2221833   -0.9687176 
C     4.4678265   -7.8817204    0.3846288 
C     4.3520190   -6.5462205    0.7953719 
C     2.5091172    3.0901924   -0.0620578 
N     3.9795459    3.0835782   -0.0264495 
N     4.5870828    1.8118977    0.1736898 
C     4.6843316    4.2468474    0.2502933 
O     4.1142821    5.3300984    0.3177924 
C     6.1716190    4.0070969    0.4482529 
C     6.3944362    2.8715691    1.4578700 
C     5.6245138    1.6110763    1.0866802 
O     5.9155332    0.4831989    1.4688602 
C     1.9734357    3.9061176   -1.2303172 
C     2.7974983    4.2854704   -2.3050813 
C     2.2724434    4.9274176   -3.4324440 
C     0.8978804    5.1911484   -3.5165349 
C     0.0733628    4.8692633   -2.4333166 
C     0.6054380    4.2646750   -1.2787503 
C    -0.2528229    3.8923489   -0.1125294 
O    -0.1857793    2.7370688    0.3509784 
N    -1.0777706    4.8126382    0.4513372 
C    -1.1920752    6.2680873    0.1907958 
C    -0.0437888    7.0594511    0.8336899 
C    -2.6028799    6.6742169    0.6134300 
C    -2.8894799    7.1860872    1.8920425 
C    -4.2112938    7.4774356    2.2663720 
C    -5.2654223    7.2547798    1.3694893 
C    -4.9914797    6.7452279    0.0896058 
C    -3.6711698    6.4588173   -0.2815598 
H    -4.4912722    1.0203876    3.2270572 
H    -6.3447434   -0.4905789    2.6335303 
H    -8.3313216    0.3762572    1.3640196 
H    -8.3964794    2.7769906    0.6604921 
H    -6.4884913    4.2898891    1.2093543 
H    -4.2663493    4.5666728    1.8740423 
H    -4.4298006    3.5562506    4.7728659 
H    -5.3782905    4.8844719    4.0455981 
H    -3.6102184    5.0661854    4.2236596 
H    -2.4141256    3.1238701    3.4727801 
H    -3.5826165    3.7722670    0.1474464 
H    -4.6150566    3.3416707   -2.0479460 
H    -4.6712912    0.9944293   -2.9550846 
H    -3.5804751   -0.8365599   -1.6838694 
H    -2.1637134   -0.5914533    1.6899201 
H    -0.1637129   -2.6389161   -1.5766116 
H    -4.7603789   -3.2254713   -1.3535496 
H    -4.4715872   -4.9873599   -1.2909148 
H    -5.2549646   -4.0806905    1.0105619 
H    -3.5912772   -4.7140089    1.1044789 
H     1.4030468   -6.9293887   -0.5691912 
H     1.0040920   -7.2569011    1.8653314 
H    -0.0610515   -5.4218090    3.2086809 
H    -0.7177594   -3.2978503    2.1098552 
H    -0.1637310   -6.4509704   -2.4304277 
H     0.3682156   -6.9135549   -4.5982492 
H     1.7873185   -5.5872357   -6.0610430 
H     2.0023945   -4.3180255   -4.8113013 
H     2.6626079   -5.9549677   -4.5417101 
H     0.0354674   -3.1110539   -4.5368390 
H    -2.0562461   -1.9765978   -5.2906772 
H    -4.0348099   -3.3189772   -6.0037415 
H    -3.9030662   -5.8203890   -5.9969543 
H    -1.8099286   -6.9521200   -5.2660721 
H    -1.5565023   -1.1324527   -2.5853601 
H    -0.9941385   -0.1250144   -4.7738551 
H     0.9619041    1.4328505   -4.9693329 
H     2.2804485    2.0047594   -2.9679218 
H     3.9769063   -0.1244746    0.4140386 
H     5.0182001    2.0683094   -2.3730217 
H     5.4134698    1.2760695   -4.7061529 
H     4.7574429   -1.0480363   -5.3669843 
H     3.7889343   -2.5990648   -3.6470796 
H     4.9779393   -3.2386832   -1.2960170 
H     2.7651243   -3.9692619    0.5320331 
H     4.4459570   -2.5868119    1.7694865 
H     4.3015148   -4.2262714    2.4583574 
H     5.7125988   -3.8088798    1.4394191 
H     3.7070731   -5.1034121   -2.2287881 
H     3.9520618   -7.4635917   -2.9668405 
H     4.4172006   -9.2651786   -1.2888370 
H     4.6756464   -8.6597988    1.1270355 
H     4.4603367   -6.3070108    1.8572585 
H     2.1244441    3.4871002    0.8946020 
H     6.6253288    4.9528497    0.7772318 
H     6.6159879    3.7319737   -0.5277248 
H     6.0854475    3.1849142    2.4699599 
H     7.4554148    2.5834390    1.5283771 
H     3.8646258    4.0570447   -2.2654759 
H     2.9389244    5.2066703   -4.2547938 
H     0.4735800    5.6544198   -4.4127799 
H    -1.0028050    5.0611788   -2.4910882 
H    -1.5928648    4.4515323    1.2655558 
H    -1.1242044    6.4136771   -0.8972413 
H    -0.0507649    6.9779047    1.9322658 
H    -0.1221692    8.1261853    0.5640945 
H     0.9246986    6.6716705    0.4741154 
H    -2.0792698    7.3688933    2.6049929 
H    -4.4159243    7.8802710    3.2637072 
H    -6.2953807    7.4832764    1.6622905 
H    -5.8070990    6.5767263   -0.6214725 
H    -3.4616732    6.0625720   -1.2822147 
