197
Energy =
C    -2.6282942   -2.5462743   -2.0658993 
C    -3.4191173   -1.3914842   -2.2455396 
C    -3.0358623   -0.3829333   -3.1874965 
H    -4.2460230   -1.1764189   -1.5561848 
Pd   -1.4511176   -0.6238990   -1.6962997 
P    -0.1342707    1.1851321   -2.2807566 
P     0.1010957   -0.9410766    0.0055249 
H    -1.9018378   -2.7834727   -2.8576641 
H    -2.5438505   -0.7174856   -4.1125212 
C    -3.5400022   -5.9430089    0.4094525 
C    -4.4198310   -4.8475489    0.3879576 
C    -4.1292743   -3.7251611   -0.3943714 
C    -2.9449043   -3.6685170   -1.1682807 
C    -2.0658483   -4.7747995   -1.1253107 
C    -2.3598272   -5.9011373   -0.3490736 
H    -3.7759841   -6.8254264    1.0134433 
H    -5.3452301   -4.8751867    0.9726468 
H    -4.8446437   -2.8976910   -0.4238428 
H    -1.1404328   -4.7475685   -1.7087433 
H    -1.6519212   -6.7346641   -0.3235662 
C    -5.4182630    3.1945661   -3.4283283 
C    -4.9063655    2.7794373   -2.1876040 
C    -4.1139252    1.6286672   -2.1048949 
C    -3.8062886    0.8816438   -3.2673304 
C    -4.3076678    1.3199255   -4.5107160 
C    -5.1205679    2.4612103   -4.5859171 
H    -6.0393025    4.0931518   -3.4852652 
H    -5.1190093    3.3672483   -1.2891238 
H    -3.6934506    1.3126002   -1.1414550 
H    -4.0712143    0.7507526   -5.4162931 
H    -5.5259452    2.7761526   -5.5539647 
C     4.4500052   -1.2924543    5.9860822 
C     5.6087317   -0.5544658    6.2705181 
C     6.8742613   -1.1069070    6.0292145 
C     6.9771709   -2.4060627    5.5055210 
C     5.8186756   -3.1435570    5.2260489 
C     4.5424333   -2.5935943    5.4633403 
C     3.2754923   -3.3790663    5.1236085 
C     3.1436949   -4.6905119    5.9070409 
N     3.2336513   -3.6418962    3.6665606 
C     2.8051270   -2.6943488    2.7838618 
O     2.1150960   -1.7262612    3.1416936 
C     3.3168343   -2.8161088    1.3747373 
C     4.7194244   -2.9099992    1.2349856 
C     5.3330853   -2.8660030   -0.0214648 
C     4.5336117   -2.7508061   -1.1655703 
C     3.1432032   -2.6781342   -1.0362594 
C     2.5089656   -2.6897881    0.2190747 
C     0.9850703   -2.6285588    0.1891087 
C    -0.4380978   -0.9446682    1.8239329 
N    -0.3914491   -2.3673243    2.2112913 
N     0.2922899   -3.2390657    1.3152791 
C    -0.5466007   -2.7346322    3.5299602 
O    -0.8920628   -1.9194848    4.3893581 
C    -0.3313628   -4.2099293    3.8039175 
C    -0.6820503   -5.0654241    2.5806239 
C     0.1288248   -4.6159485    1.3804557 
O     0.6538547   -5.3447403    0.5447213 
C    -1.8101811   -0.3517797    2.0890525 
C    -1.9989001    0.7866272    2.9042404 
C    -3.3007356    1.2979923    3.0756179 
C    -4.4041413    0.6988984    2.4568426 
C    -4.2132943   -0.4360344    1.6520361 
C    -2.9262566   -0.9522753    1.4780941 
C    -0.8831881    1.5617061    3.5743929 
O    -0.7637565    2.7839746    3.3888993 
N    -0.0799793    0.8453845    4.3984171 
C     1.0425053    1.4663739    5.1051094 
C     2.2897973    1.5161662    4.1922929 
C     1.3523146    0.7831449    6.4339810 
C     0.8764979   -0.4945072    6.7854207 
C     1.2645562   -1.0943487    7.9954839 
C     2.1334032   -0.4334092    8.8730300 
C     2.6026627    0.8467594    8.5389839 
C     2.2123183    1.4464244    7.3349069 
C     1.4237987    0.3175077   -0.1455352 
C     2.4885097    0.3813279    0.7680436 
C     3.5475763    1.2736874    0.5531240 
C     3.5545399    2.0902139   -0.5838687 
C     2.4812384    2.0507825   -1.4847441 
C     1.3963760    1.1846172   -1.2657731 
C    -0.7536799    3.0055995   -2.4002459 
C    -0.0120602    3.9334858   -1.4590462 
C     1.0155064    4.7902231   -1.8871924 
C     1.7552212    5.5366747   -0.9611758 
C     1.4933624    5.4207200    0.4121597 
C     0.4487233    4.5980798    0.8540825 
C    -0.3192431    3.8805636   -0.0795236 
C    -1.4368664    2.9751192    0.3437452 
O    -1.3449122    1.7483311    0.1092050 
N    -2.5513995    3.5070655    0.8816426 
C    -2.8449963    4.9191785    1.2060177 
C    -3.2250820    5.0426145    2.6854782 
C    -3.8654657    5.4684034    0.2076224 
C    -5.2379864    5.5748970    0.4964600 
C    -6.1346704    6.0518128   -0.4743330 
C    -5.6674089    6.4309423   -1.7413385 
C    -4.2996463    6.3210172   -2.0395458 
C    -3.4087562    5.8426859   -1.0716347 
C     0.3079616    1.1486721   -4.1332649 
N    -0.4961034    2.2254170   -4.6826383 
N    -0.6167354    3.3556424   -3.8270065 
C    -1.2807164    2.0328091   -5.8174220 
O    -1.3002350    0.9469745   -6.3897521 
C    -1.9866107    3.2886492   -6.2981191 
C    -1.2220862    4.5471487   -5.8594363 
C    -1.1154895    4.5485946   -4.3432185 
O    -1.4600454    5.4669448   -3.6106005 
C     1.7746657    1.2143914   -4.4999592 
C     2.3719583    2.4196004   -4.9076417 
C     3.7359299    2.4766889   -5.2240114 
C     4.5255557    1.3199514   -5.1472257 
C     3.9352105    0.1044528   -4.7801032 
C     2.5664627    0.0415323   -4.4559269 
C     1.9189037   -1.2562058   -4.0774445 
O     1.1360556   -1.3512388   -3.1155140 
N     2.2199900   -2.3290691   -4.8605551 
C     1.5297846   -3.6178665   -4.7156453 
C     2.2583671   -4.6658905   -5.5726492 
C     0.0368541   -3.5300909   -5.0543449 
C    -0.8099881   -4.5833771   -4.6565410 
C    -2.1776665   -4.5605055   -4.9637994 
C    -2.7216634   -3.4770368   -5.6719430 
C    -1.8868034   -2.4237319   -6.0731686 
C    -0.5170811   -2.4533667   -5.7677035 
H     3.4660954   -0.8544117    6.1741603 
H     5.5138277    0.4555116    6.6834987 
H     7.7795340   -0.5317698    6.2510544 
H     7.9625012   -2.8474334    5.3206911 
H     5.9160721   -4.1599532    4.8235150 
H     2.4063230   -2.7346314    5.3312708 
H     3.1487865   -4.4760433    6.9879410 
H     3.9846937   -5.3753181    5.6964223 
H     2.2026176   -5.2091898    5.6550686 
H     3.8323138   -4.3832761    3.3023982 
H     5.3373687   -2.9740501    2.1382564 
H     6.4233217   -2.9226394   -0.1017908 
H     4.9877398   -2.7286233   -2.1619914 
H     2.5159214   -2.6042434   -1.9262096 
H     0.6732362   -3.1868681   -0.7086167 
H     0.3497616   -0.4092254    2.3759235 
H     0.7349338   -4.3415777    4.0653654 
H    -0.9299040   -4.4710526    4.6896173 
H    -0.4804916   -6.1344625    2.7414888 
H    -1.7538518   -4.9561092    2.3278902 
H    -3.4321935    2.1762269    3.7144649 
H    -5.4095970    1.1035322    2.6147022 
H    -5.0695702   -0.9224551    1.1731176 
H    -2.7754319   -1.8476510    0.8661885 
H    -0.2796192   -0.1618223    4.4906646 
H     0.7290459    2.5071340    5.3044458 
H     2.0409094    2.0492691    3.2591563 
H     3.1166693    2.0491886    4.6916013 
H     2.6210897    0.4932470    3.9537554 
H     0.1996069   -1.0465189    6.1276131 
H     0.8810634   -2.0892955    8.2475491 
H     2.4381962   -0.9056246    9.8126791 
H     3.2720592    1.3820939    9.2208705 
H     2.5821701    2.4487129    7.0882344 
H     2.4865389   -0.2650583    1.6508566 
H     4.3677658    1.3191695    1.2767385 
H     4.3855904    2.7782539   -0.7688666 
H     2.4927322    2.7091418   -2.3528011 
H    -1.8283889    2.9578236   -2.1413218 
H     1.2408370    4.8684333   -2.9543539 
H     2.5482279    6.2034086   -1.3153478 
H     2.0923330    5.9807192    1.1374973 
H     0.2250462    4.4820179    1.9195798 
H    -3.2567109    2.8126744    1.1454626 
H    -1.9059979    5.4678715    1.0402912 
H    -2.4107731    4.6377588    3.3067059 
H    -3.4066578    6.0987181    2.9446949 
H    -4.1443591    4.4744593    2.9145339 
H    -5.6191168    5.2954114    1.4839980 
H    -7.2000786    6.1353745   -0.2340974 
H    -6.3677630    6.8127353   -2.4923641 
H    -3.9132925    6.6000795   -3.0246752 
H    -2.3475930    5.7527197   -1.3271960 
H    -0.1346306    0.2156936   -4.5099802 
H    -3.0064937    3.2947550   -5.8732805 
H    -2.0833101    3.2106937   -7.3919390 
H    -1.7336416    5.4734042   -6.1573805 
H    -0.2077982    4.5512462   -6.3025599 
H     1.7574071    3.3224042   -4.9714816 
H     4.1829415    3.4278722   -5.5305966 
H     5.5939506    1.3624322   -5.3809342 
H     4.5435675   -0.8051355   -4.7243875 
H     2.7331536   -2.1576002   -5.7250590 
H     1.6108166   -3.9043232   -3.6514646 
H     2.2006425   -4.3999306   -6.6433595 
H     1.7854569   -5.6524147   -5.4480055 
H     3.3183530   -4.7449087   -5.2749737 
H    -0.3970214   -5.4307107   -4.0957063 
H    -2.8210646   -5.3835205   -4.6357830 
H    -3.7911699   -3.4537527   -5.9052118 
H    -2.2858788   -1.5648883   -6.6218091 
H     0.1097003   -1.6164289   -6.0914339 
