197
Energy =
C    -2.5625413   -2.8371355   -2.0531771 
C    -3.4885643   -1.7738220   -2.1255063 
C    -3.2940069   -0.7055668   -3.0632667 
H    -4.2541712   -1.6617233   -1.3472427 
Pd   -1.5597418   -0.8228759   -1.7434469 
P    -0.4701129    1.1238111   -2.3645162 
P     0.0868024   -0.9650400   -0.1154049 
H    -1.8955004   -2.9840743   -2.9159966 
H    -2.8801798   -0.9642216   -4.0485960 
C    -2.6540822   -6.2093403    0.6191529 
C    -3.7343652   -5.3109361    0.6023486 
C    -3.7233022   -4.2105962   -0.2621363 
C    -2.6230708   -3.9753586   -1.1208111 
C    -1.5479372   -4.8936476   -1.0950718 
C    -1.5619249   -5.9988359   -0.2373737 
H    -2.6707667   -7.0760728    1.2884214 
H    -4.5973052   -5.4775652    1.2555154 
H    -4.5892251   -3.5414839   -0.2843322 
H    -0.6900809   -4.7321423   -1.7555098 
H    -0.7089978   -6.6837948   -0.2313430 
C    -5.5116810    2.9854212   -2.8489859 
C    -5.1614792    2.4373968   -4.0912978 
C    -4.4493467    1.2315930   -4.1579789 
C    -4.0783919    0.5471525   -2.9806757 
C    -4.4463729    1.1046026   -1.7319413 
C    -5.1571007    2.3081788   -1.6709886 
H    -6.0484906    3.9375725   -2.7982092 
H    -5.4491178    2.9558305   -5.0124285 
H    -4.1842564    0.7974959   -5.1286517 
H    -4.1192641    0.6199863   -0.8053158 
H    -5.4158300    2.7330918   -0.6967924 
C     4.5715269   -1.1582091    5.8715155 
C     5.7415584   -0.4652732    6.2160613 
C     6.9961897   -1.0620266    6.0288146 
C     7.0765222   -2.3601654    5.4989108 
C     5.9064027   -3.0534700    5.1605774 
C     4.6413651   -2.4589327    5.3434937 
C     3.3628762   -3.1914667    4.9389756 
C     3.1506932   -4.5119684    5.6880421 
N     3.3656293   -3.4104556    3.4741106 
C     2.9261403   -2.4465613    2.6143023 
O     2.2025532   -1.5102685    2.9874671 
C     3.4578553   -2.5144466    1.2081417 
C     4.8635367   -2.4863875    1.0823425 
C     5.4808170   -2.3919507   -0.1698925 
C     4.6832989   -2.3522714   -1.3203125 
C     3.2905513   -2.4053291   -1.2034211 
C     2.6503356   -2.4680745    0.0466059 
C     1.1254155   -2.5539508    0.0183340 
C    -0.3835584   -1.0280751    1.7192803 
N    -0.2118485   -2.4468819    2.0754076 
N     0.5195846   -3.2497783    1.1524035 
C    -0.5992161   -2.9253462    3.3025481 
O    -0.9430365   -2.1545953    4.2058562 
C    -0.7105015   -4.4337303    3.3977637 
C     0.4328026   -5.1718665    2.6968281 
C     0.8312589   -4.5845611    1.3579454 
O     1.4741519   -5.1948015    0.5063563 
C    -1.8039505   -0.5779843    2.0228654 
C    -2.0911894    0.5136644    2.8692184 
C    -3.4339441    0.8690067    3.1050845 
C    -4.4871705    0.1576535    2.5183239 
C    -4.1990521   -0.9332627    1.6823843 
C    -2.8690447   -1.2913549    1.4438652 
C    -1.0426301    1.3761934    3.5347576 
O    -1.0418781    2.6084747    3.3869639 
N    -0.1637043    0.7033361    4.3183186 
C     0.8964281    1.3919268    5.0570305 
C     2.1219998    1.6339595    4.1457043 
C     1.2816608    0.6572417    6.3381558 
C     0.9031070   -0.6690355    6.6214067 
C     1.3501190   -1.3068947    7.7909703 
C     2.1801046   -0.6349057    8.6970915 
C     2.5501083    0.6932476    8.4332204 
C     2.1027024    1.3295236    7.2684566 
C     1.2510708    0.4363859   -0.2897780 
C     2.3260160    0.6217681    0.5954846 
C     3.2470190    1.6546660    0.3744706 
C     3.1057300    2.4927418   -0.7380162 
C     2.0206256    2.3281103   -1.6097879 
C     1.0718675    1.3162565   -1.3851415 
C    -1.3200209    2.8332334   -2.4987162 
C    -0.6690130    3.8790184   -1.6099027 
C     0.1770621    4.8760595   -2.1194957 
C     0.8415290    5.7598573   -1.2589774 
C     0.6889711    5.6440613    0.1297955 
C    -0.1813251    4.6804310    0.6531239 
C    -0.8799824    3.8235695   -0.2114045 
C    -1.8405922    2.7995361    0.2992034 
O    -1.6554201    1.5962326    0.0004446 
N    -2.9589890    3.1664410    0.9677393 
C    -3.3017223    4.4130404    1.6856841 
C    -4.7804326    4.3150382    2.1072055 
C    -3.0721279    5.6876278    0.8849894 
C    -3.3132445    5.7578124   -0.4980729 
C    -3.1118897    6.9578736   -1.1936383 
C    -2.6924524    8.1079440   -0.5082673 
C    -2.4675413    8.0509689    0.8752553 
C    -2.6507275    6.8446841    1.5647520 
C    -0.0365409    1.1103984   -4.2173453 
N    -0.9489728    2.0847140   -4.7927587 
N    -1.2820630    3.1720105   -3.9331807 
C    -1.5886134    1.8177891   -5.9980865 
O    -1.3969280    0.7538084   -6.5826040 
C    -2.4365669    2.9543041   -6.5454352 
C    -2.0320208    4.3097306   -5.9491300 
C    -2.0275202    4.2341480   -4.4312654 
O    -2.6053817    5.0077953   -3.6787905 
C     1.4143524    1.3222326   -4.5924923 
C     1.8856444    2.5798506   -5.0048435 
C     3.2346616    2.7708068   -5.3324615 
C     4.1347007    1.6971963   -5.2633345 
C     3.6706817    0.4295123   -4.8905814 
C     2.3180429    0.2337432   -4.5535364 
C     1.8020415   -1.1188265   -4.1659234 
O     1.0593783   -1.2880757   -3.1822962 
N     2.1733862   -2.1562703   -4.9657788 
C     1.6008877   -3.5005502   -4.8135434 
C     2.3976211   -4.4784090   -5.6924882 
C     0.0982399   -3.5388948   -5.1185765 
C    -0.5625538   -2.5028652   -5.8004162 
C    -1.9372686   -2.5849117   -6.0720908 
C    -2.6698367   -3.7118274   -5.6710040 
C    -2.0176770   -4.7565888   -4.9964533 
C    -0.6458642   -4.6672673   -4.7208226 
H     3.5955757   -0.6867272    6.0171812 
H     5.6657548    0.5445250    6.6334115 
H     7.9102872   -0.5216542    6.2969499 
H     8.0529141   -2.8354078    5.3553120 
H     5.9859583   -4.0701398    4.7548678 
H     2.5092186   -2.5225837    5.1282947 
H     3.1402799   -4.3204267    6.7733032 
H     3.9599391   -5.2350026    5.4810035 
H     2.1891167   -4.9745311    5.4057939 
H     4.0087721   -4.1083703    3.0989928 
H     5.4759884   -2.5022684    1.9916752 
H     6.5724516   -2.3554487   -0.2424022 
H     5.1422336   -2.2955926   -2.3131069 
H     2.6685228   -2.4013558   -2.0994444 
H     0.8602768   -3.1163370   -0.8906251 
H     0.3649096   -0.4230666    2.2521207 
H    -0.7823421   -4.7006273    4.4623399 
H    -1.6748411   -4.6934152    2.9185707 
H     1.3522683   -5.1281759    3.3096758 
H     0.2002018   -6.2360612    2.5381721 
H    -3.6351891    1.7099848    3.7765184 
H    -5.5248520    0.4390798    2.7263481 
H    -5.0127460   -1.5115501    1.2319845 
H    -2.6419167   -2.1582447    0.8157301 
H    -0.2833816   -0.3175779    4.3823471 
H     0.4782354    2.3794674    5.3253814 
H     1.8048773    2.1898652    3.2472179 
H     2.8868782    2.2286538    4.6733440 
H     2.5633755    0.6709183    3.8454507 
H     0.2527602   -1.2298796    5.9438461 
H     1.0421960   -2.3395110    7.9893841 
H     2.5311718   -1.1362914    9.6048658 
H     3.1873896    1.2368741    9.1388079 
H     2.3958231    2.3683715    7.0767482 
H     2.4375865   -0.0359722    1.4629345 
H     4.0764378    1.7946041    1.0750596 
H     3.8279305    3.2936484   -0.9257087 
H     1.9124557    3.0058609   -2.4556607 
H    -2.3682217    2.6552971   -2.1948672 
H     0.3206849    4.9580927   -3.2005434 
H     1.4888012    6.5372602   -1.6779137 
H     1.2259242    6.3192252    0.8032802 
H    -0.3277202    4.5781879    1.7324512 
H    -3.4796198    2.3430715    1.2851619 
H    -2.6794457    4.4428247    2.5995304 
H    -4.9696406    3.4090680    2.7101424 
H    -5.0489505    5.1946082    2.7131087 
H    -5.4356119    4.2985808    1.2190090 
H    -3.6188508    4.8640671   -1.0517261 
H    -3.2658411    6.9755045   -2.2758842 
H    -2.5339634    9.0451771   -1.0526027 
H    -2.1365851    8.9433922    1.4174330 
H    -2.4512511    6.7952437    2.6420605 
H    -0.3739328    0.1275728   -4.5763060 
H    -3.4949585    2.7341449   -6.3255865 
H    -2.3274864    2.9336283   -7.6412833 
H    -2.7204322    5.1151349   -6.2420436 
H    -1.0155403    4.5826278   -6.2921994 
H     1.1828684    3.4166854   -5.0660150 
H     3.5835532    3.7610945   -5.6426316 
H     5.1914060    1.8444032   -5.5074433 
H     4.3654869   -0.4162744   -4.8410852 
H     2.6455055   -1.9348364   -5.8423033 
H     1.7302610   -3.7828436   -3.7528950 
H     2.2945529   -4.2129824   -6.7598820 
H     2.0137403   -5.5025117   -5.5647660 
H     3.4664684   -4.4678194   -5.4174286 
H    -0.0194124   -1.6116116   -6.1294163 
H    -2.4188090   -1.7553447   -6.5995854 
H    -3.7425947   -3.7772396   -5.8802167 
H    -2.5799991   -5.6378581   -4.6706903 
H    -0.1493093   -5.4859619   -4.1859750 
