197
Energy =
C    -2.6053287   -2.7643759   -0.7102857 
C    -3.2790425   -1.5451941   -0.9458675 
C    -2.7703480   -0.6402370   -1.9318773 
H    -4.0892304   -1.2249606   -0.2785266 
Pd   -1.2577389   -0.9511493   -0.3901931 
P     0.1313389    0.8295044   -0.9126348 
P     0.3385097   -1.3532008    1.2911283 
H    -1.9095934   -3.1065603   -1.4918940 
H    -2.2774289   -1.0985197   -2.7998380 
C    -3.7186482   -5.8069679    2.1218530 
C    -4.6030698   -4.7481375    1.8576515 
C    -4.2563562   -3.7481312    0.9421460 
C    -3.0154017   -3.7896757    0.2639525 
C    -2.1526607   -4.8800760    0.5174154 
C    -2.4917673   -5.8727008    1.4436685 
H    -3.9932010   -6.5857018    2.8410615 
H    -5.5735496   -4.7064058    2.3639543 
H    -4.9642610   -2.9383675    0.7391227 
H    -1.2024175   -4.9465834   -0.0216037 
H    -1.7876449   -6.6857458    1.6405723 
C    -4.5076728    3.2326869   -2.6608926 
C    -4.4786427    2.7177412   -1.3547674 
C    -3.8932809    1.4739500   -1.0958829 
C    -3.3325688    0.7093572   -2.1473981 
C    -3.3407901    1.2542808   -3.4507163 
C    -3.9294142    2.4998825   -3.7064811 
H    -4.9540667    4.2123519   -2.8543932 
H    -4.9019239    3.3014808   -0.5309342 
H    -3.8435643    1.0965886   -0.0680561 
H    -2.9007750    0.6736711   -4.2686554 
H    -3.9424642    2.8963611   -4.7278569 
C     1.0546789   -5.4246211   -4.8148492 
C     1.3624555   -5.4013187   -6.1816878 
C     2.7004846   -5.4199325   -6.6055798 
C     3.7290583   -5.4736623   -5.6541144 
C     3.4189858   -5.4911866   -4.2856340 
C     2.0820240   -5.4587490   -3.8507131 
C     1.7610881   -5.3409755   -2.3636634 
C     0.7568673   -6.3787668   -1.8344572 
N     1.2691203   -3.9727495   -2.1192261 
C     1.7394678   -3.0531615   -1.2591468 
O     1.2263237   -1.9138546   -1.1906812 
C     2.8341573   -3.3735831   -0.2842557 
C     4.1714732   -3.5556496   -0.6714386 
C     5.1652277   -3.7365974    0.3013962 
C     4.8177143   -3.7461126    1.6599524 
C     3.4834605   -3.5560423    2.0478413 
C     2.4839294   -3.3533076    1.0850180 
C     1.0277528   -3.1324606    1.4521779 
C     0.0713350   -1.1867670    3.1662159 
N     0.6484124   -2.4320457    3.7201785 
N     0.6744237   -3.5121527    2.8109151 
C     0.8501715   -2.6125252    5.0764920 
O     0.7546372   -1.6712660    5.8604445 
C     1.1062872   -4.0633481    5.4672066 
C     0.1791406   -4.9958929    4.6654257 
C     0.4337179   -4.8273337    3.1754439 
O     0.4926133   -5.7285456    2.3450055 
C    -1.3477701   -0.9662725    3.6479683 
C    -1.6126456   -0.0140224    4.6636961 
C    -2.9227563    0.1136898    5.1685614 
C    -3.9652291   -0.6816033    4.6754948 
C    -3.6960356   -1.6368234    3.6853946 
C    -2.3951723   -1.7800230    3.1842507 
C    -0.5350519    0.8985989    5.1901020 
O     0.2530304    1.5043005    4.4496737 
N    -0.5175977    1.0728321    6.5426120 
C     0.5388053    1.8981581    7.1452881 
C     0.7028208    1.5189132    8.6237937 
C     0.2359848    3.3827121    6.9523758 
C     1.2153317    4.2506855    6.4389800 
C     0.9585401    5.6241024    6.3115767 
C    -0.2854199    6.1458009    6.6975870 
C    -1.2764420    5.2839241    7.1944122 
C    -1.0164476    3.9120854    7.3169717 
C     1.7660079   -0.2136829    1.0705696 
C     2.8804285   -0.2453416    1.9248805 
C     3.9378225    0.6558732    1.7407752 
C     3.8789193    1.6033996    0.7109337 
C     2.7578283    1.6566201   -0.1277274 
C     1.6959882    0.7520215    0.0419849 
C    -0.4184659    2.6516618   -0.8237151 
C     0.3009284    3.4901143    0.2277863 
C     1.2488380    4.4525801   -0.1560106 
C     1.9821089    5.1704980    0.7976073 
C     1.7869372    4.9214321    2.1624075 
C     0.8109400    4.0036964    2.5646444 
C     0.0467931    3.3108117    1.6101091 
C    -1.0265091    2.3545881    2.0235801 
O    -1.0524017    1.2035143    1.5353988 
N    -2.0183111    2.7604091    2.8540882 
C    -2.1810123    4.0277358    3.5922721 
C    -3.5176487    3.9620926    4.3513935 
C    -2.1303543    5.2590958    2.6924013 
C    -1.6281805    6.4628180    3.2186117 
C    -1.6187564    7.6308245    2.4450860 
C    -2.1039070    7.6049922    1.1288076 
C    -2.5964413    6.4064320    0.5928728 
C    -2.6138988    5.2414796    1.3731823 
C     0.5067289    0.9674437   -2.7936233 
N     0.6625303    2.4256031   -3.0051066 
N    -0.2513953    3.1513612   -2.1896038 
C     1.1378450    3.0115397   -4.1747522 
O     1.7204295    2.3670484   -5.0412045 
C     0.7742014    4.4813453   -4.3150193 
C    -0.7380662    4.6214528   -4.0780567 
C    -1.0705832    4.1689512   -2.6674158 
O    -1.9129896    4.6783429   -1.9408348 
C     1.6120765    0.0850772   -3.3315944 
C     2.9670740    0.3978804   -3.1240023 
C     3.9859197   -0.4567782   -3.5532403 
C     3.6680574   -1.6520814   -4.2135927 
C     2.3279963   -1.9728104   -4.4472055 
C     1.2991050   -1.1166542   -4.0131238 
C    -0.1068974   -1.5750771   -4.3088287 
O    -0.6176038   -2.5603252   -3.7417246 
N    -0.7958678   -0.8791090   -5.2589469 
C    -0.1699318    0.0311701   -6.2482781 
C    -1.2683889    0.7960172   -6.9981358 
C     0.7770140   -0.7169704   -7.1837006 
C     2.0761798   -0.2187291   -7.3897594 
C     2.9687369   -0.8970855   -8.2321567 
C     2.5723002   -2.0792625   -8.8747216 
C     1.2771826   -2.5810623   -8.6727160 
C     0.3852583   -1.9037445   -7.8302647 
H     0.0062056   -5.3800089   -4.5007159 
H     0.5550684   -5.3567211   -6.9198533 
H     2.9388596   -5.3884857   -7.6734304 
H     4.7754922   -5.4961432   -5.9766843 
H     4.2265328   -5.5199611   -3.5445373 
H     2.6979729   -5.4522060   -1.7957671 
H     1.1041211   -7.3987897   -2.0693071 
H    -0.2403783   -6.2404936   -2.2867643 
H     0.6633798   -6.2824610   -0.7387901 
H     0.5272165   -3.5909872   -2.7431303 
H     4.4292314   -3.5378980   -1.7355752 
H     6.2081990   -3.8751577   -0.0009733 
H     5.5876530   -3.9019470    2.4225229 
H     3.2147262   -3.5685560    3.1089139 
H     0.3959607   -3.7369027    0.7825806 
H     0.6949366   -0.3428767    3.4907579 
H     2.1655264   -4.3165013    5.2670926 
H     0.9459100   -4.1425290    6.5525518 
H     0.3346485   -6.0562587    4.9124835 
H    -0.8809431   -4.7507213    4.8705167 
H    -3.1214349    0.8555985    5.9495487 
H    -4.9801149   -0.5609048    5.0683283 
H    -4.4948616   -2.2770087    3.3018270 
H    -2.1950017   -2.5362181    2.4172195 
H    -0.9619880    0.3568048    7.1156741 
H     1.4751203    1.6717358    6.6034720 
H     0.9601435    0.4489461    8.7173913 
H     1.5106448    2.1153916    9.0768459 
H    -0.2239723    1.7185474    9.1909964 
H     2.1849679    3.8428778    6.1311941 
H     1.7312111    6.2888170    5.9101689 
H    -0.4838082    7.2192623    6.6103199 
H    -2.2526540    5.6834498    7.4897828 
H    -1.7947838    3.2405939    7.6977811 
H     2.9263563   -0.9701362    2.7426071 
H     4.8036505    0.6197321    2.4095898 
H     4.6962920    2.3172182    0.5680990 
H     2.7038158    2.4219340   -0.9041449 
H    -1.5030194    2.6257711   -0.6212238 
H     1.4215784    4.6332254   -1.2210061 
H     2.7140177    5.9159393    0.4697074 
H     2.3752455    5.4554920    2.9154789 
H     0.6479560    3.7991469    3.6255086 
H    -2.6524323    1.9978464    3.1035114 
H    -1.3763841    4.1068734    4.3463080 
H    -3.5345442    3.1019289    5.0439106 
H    -3.6479437    4.8820309    4.9418698 
H    -4.3630249    3.8786585    3.6461120 
H    -1.2304450    6.4753480    4.2389300 
H    -1.2210046    8.5601160    2.8675107 
H    -2.0877619    8.5144401    0.5184537 
H    -2.9437975    6.3616731   -0.4424562 
H    -2.9798342    4.3061095    0.9368576 
H    -0.4613960    0.6673114   -3.2387077 
H     1.0789468    4.7954234   -5.3233725 
H     1.3309506    5.0898969   -3.5776286 
H    -1.3034321    3.9980893   -4.7974185 
H    -1.0926271    5.6574043   -4.1853290 
H     3.2295104    1.3404984   -2.6423657 
H     5.0310177   -0.1802978   -3.3802723 
H     4.4544897   -2.3254972   -4.5684953 
H     2.0702747   -2.8844944   -4.9927102 
H    -1.6935961   -1.3032524   -5.5069923 
H     0.4381715    0.7561761   -5.6860269 
H    -1.9246651    0.1084760   -7.5623546 
H    -0.8049956    1.4858890   -7.7209069 
H    -1.8882896    1.3845706   -6.2985317 
H     2.3879913    0.6907803   -6.8647702 
H     3.9810429   -0.5055141   -8.3787298 
H     3.2705082   -2.6105144   -9.5304068 
H     0.9621074   -3.5043059   -9.1711335 
H    -0.6190316   -2.3130996   -7.6670195 
