197
Energy =
C    -2.8252326   -2.2005592   -0.9165241 
C    -3.4919518   -0.9576477   -0.8447755 
C    -3.1236962    0.1070315   -1.7305825 
H    -4.1512280   -0.7476725    0.0077256 
Pd   -1.3678745   -0.4897244   -0.5660610 
P     0.0061374    1.2508933   -1.2288388 
P     0.3299413   -0.9838179    0.9421424 
H    -2.2515306   -2.4071723   -1.8334260 
H    -2.8176273   -0.1669822   -2.7483985 
C    -3.5264162   -5.5911850    1.6385667 
C    -2.3708331   -5.5223334    0.8439287 
C    -2.1613665   -4.4193616    0.0091137 
C    -3.0931205   -3.3569779   -0.0442156 
C    -4.2651914   -3.4556073    0.7415346 
C    -4.4759961   -4.5586993    1.5770301 
H    -3.6941555   -6.4543682    2.2911995 
H    -1.6193771   -6.3149859    0.8895052 
H    -1.2562576   -4.3699158   -0.6058085 
H    -5.0299994   -2.6752054    0.6764505 
H    -5.3924420   -4.6197461    2.1736476 
C    -4.2597766    4.2219384   -1.1398924 
C    -3.9892058    3.7337777   -2.4262909 
C    -3.6333704    2.3917398   -2.6174655 
C    -3.5547275    1.5048363   -1.5192411 
C    -3.8372587    2.0082462   -0.2255694 
C    -4.1867781    3.3499647   -0.0411865 
H    -4.5086418    5.2770370   -0.9928584 
H    -4.0541368    4.4102086   -3.2846549 
H    -3.4182547    2.0161160   -3.6249189 
H    -3.7222217    1.3557661    0.6462210 
H    -4.3791071    3.7251324    0.9689544 
C     3.7275636   -4.9150044   -4.6610191 
C     4.0195012   -5.3504660   -5.9593718 
C     3.5036104   -6.5720142   -6.4231355 
C     2.6914859   -7.3424662   -5.5812099 
C     2.3954340   -6.9006341   -4.2804388 
C     2.9134560   -5.6843187   -3.8017361 
C     2.6448318   -5.1687040   -2.3873454 
C     1.6954842   -6.0224983   -1.5319794 
N     2.1477893   -3.7783045   -2.5010624 
C     2.1253309   -2.8371832   -1.5186438 
O     1.3390599   -1.8742006   -1.5568996 
C     3.0718669   -2.9776038   -0.3647405 
C     4.4610417   -3.0862094   -0.5556713 
C     5.3225495   -3.1739621    0.5448470 
C     4.7889995   -3.1818913    1.8420120 
C     3.4065011   -3.0630084    2.0349498 
C     2.5347785   -2.9330101    0.9409315 
C     1.0397687   -2.7564821    1.1253497 
C     0.0658290   -0.8163560    2.8227741 
N     0.5137292   -2.1140080    3.3757185 
N     0.5499314   -3.1645963    2.4327340 
C     0.6626772   -2.3290971    4.7330606 
O     0.5930311   -1.3971580    5.5311899 
C     0.8429734   -3.7950862    5.1118785 
C    -0.0316236   -4.6954281    4.2207103 
C     0.3463206   -4.4934652    2.7629875 
O     0.5188055   -5.3796540    1.9309186 
C    -1.3429309   -0.4916351    3.2819663 
C    -1.5648219    0.4676090    4.2995784 
C    -2.8780470    0.6956951    4.7601820 
C    -3.9637917   -0.0103648    4.2258767 
C    -3.7352160   -0.9881698    3.2474654 
C    -2.4330878   -1.2296755    2.7905079 
C    -0.4335815    1.2732449    4.8866305 
O     0.4337383    1.8225127    4.1919738 
N    -0.4584832    1.4048529    6.2433179 
C     0.6368804    2.0950203    6.9362225 
C     0.8278778    1.4745959    8.3287915 
C     0.3928542    3.6013559    7.0004803 
C     1.4480926    4.5014415    6.7682686 
C     1.2509380    5.8844393    6.8977657 
C    -0.0100567    6.3850950    7.2558554 
C    -1.0742262    5.4953463    7.4718247 
C    -0.8721732    4.1141487    7.3441751 
C     1.7424430    0.1532545    0.6362956 
C     2.8949604    0.1376437    1.4390492 
C     3.9927582    0.9477212    1.1205613 
C     3.9403481    1.7850974   -0.0001973 
C     2.7726674    1.8492552   -0.7716685 
C     1.6603128    1.0516521   -0.4555450 
C    -0.4272748    3.1027920   -1.0400169 
C     0.4893608    3.8279957   -0.0599766 
C     1.5251606    4.6627495   -0.5115208 
C     2.4156283    5.2621665    0.3871239 
C     2.3001623    5.0162429    1.7615641 
C     1.2541734    4.2168225    2.2339501 
C     0.3348975    3.6480430    1.3364387 
C    -0.8135032    2.8203860    1.8149632 
O    -0.9867864    1.6788333    1.3354890 
N    -1.7317078    3.3366332    2.6725793 
C    -1.6782890    4.5185510    3.5579074 
C    -3.0557626    4.6550679    4.2315545 
C    -1.3005493    5.8172105    2.8556059 
C    -0.5987291    6.7899547    3.5906391 
C    -0.2677231    8.0210474    3.0100735 
C    -0.6248236    8.2873165    1.6796466 
C    -1.3175913    7.3189177    0.9387064 
C    -1.6626686    6.0934626    1.5267487 
C     0.0958831    1.3630062   -3.1180468 
N    -0.1616224    2.7622596   -3.4840189 
N    -0.3691831    3.6693499   -2.3939874 
C    -0.7872160    2.9488352   -4.7218666 
O    -0.8695105    2.0116807   -5.5074816 
C    -1.2899948    4.3512406   -5.0077753 
C    -0.6626559    5.3972212   -4.0810903 
C    -0.7914376    4.9654490   -2.6313334 
O    -1.2064079    5.6711926   -1.7171540 
C     1.3191511    0.7768877   -3.7891580 
C     2.4323753    1.6058681   -4.0174468 
C     3.6202418    1.1111623   -4.5631414 
C     3.7098497   -0.2459406   -4.9013865 
C     2.5920761   -1.0680552   -4.7374437 
C     1.3771076   -0.5811708   -4.2048928 
C     0.1683091   -1.4791406   -4.1602761 
O    -0.8504253   -1.2483568   -3.4920973 
N     0.2408054   -2.6222385   -4.9259533 
C    -0.9592766   -3.4710373   -5.1261907 
C    -1.0827887   -4.5080953   -3.9961706 
C    -0.8869580   -4.1106653   -6.5034955 
C     0.1992470   -4.9414034   -6.8468037 
C     0.2708716   -5.5300950   -8.1161798 
C    -0.7463735   -5.3041577   -9.0561081 
C    -1.8322305   -4.4821266   -8.7212499 
C    -1.8989995   -3.8856580   -7.4533053 
H     4.1405266   -3.9668908   -4.2974698 
H     4.6568060   -4.7412724   -6.6092493 
H     3.7348387   -6.9184363   -7.4356937 
H     2.2781298   -8.2923349   -5.9355452 
H     1.7581445   -7.5193652   -3.6425272 
H     3.6157911   -5.1228488   -1.8644525 
H     2.0965396   -7.0417235   -1.4020246 
H     0.6954267   -6.0953456   -1.9923078 
H     1.5828426   -5.5787441   -0.5281013 
H     1.4625008   -3.6088515   -3.2479610 
H     4.8643768   -3.0884874   -1.5740426 
H     6.4037400   -3.2481589    0.3911256 
H     5.4514748   -3.2755134    2.7085456 
H     2.9999729   -3.0607011    3.0503465 
H     0.4940343   -3.3542169    0.3814440 
H     0.7507291   -0.0304228    3.1713376 
H     1.9100306   -4.0705219    5.0024010 
H     0.5895668   -3.8869338    6.1785296 
H     0.0904367   -5.7629122    4.4544713 
H    -1.1006432   -4.4363183    4.3463720 
H    -3.0446454    1.4449156    5.5417834 
H    -4.9787524    0.1903485    4.5841017 
H    -4.5677188   -1.5721373    2.8446042 
H    -2.2622942   -2.0082853    2.0390267 
H    -1.0118833    0.7287796    6.7675756 
H     1.5454231    1.9252096    6.3318389 
H     1.0394779    0.3948496    8.2360106 
H     1.6712136    1.9601310    8.8454055 
H    -0.0741713    1.6162668    8.9514521 
H     2.4333204    4.1136759    6.4837086 
H     2.0823953    6.5731928    6.7137215 
H    -0.1661061    7.4641789    7.3567763 
H    -2.0634064    5.8795236    7.7434573 
H    -1.7066963    3.4226661    7.5082271 
H     2.9450013   -0.5104956    2.3173431 
H     4.8875639    0.9200825    1.7504240 
H     4.7950878    2.4175305   -0.2596492 
H     2.7257413    2.5443030   -1.6091619 
H    -1.4726640    3.1183338   -0.6818156 
H     1.6384063    4.8431809   -1.5844151 
H     3.2071254    5.9169683    0.0080108 
H     3.0070342    5.4638980    2.4671800 
H     1.1462311    4.0127413    3.3021157 
H    -2.4360551    2.6381069    2.9227102 
H    -0.9326650    4.3227534    4.3523854 
H    -3.3223033    3.7348631    4.7823767 
H    -3.0299656    5.4888332    4.9498101 
H    -3.8361339    4.8659035    3.4796781 
H    -0.2994774    6.5712444    4.6212640 
H     0.2819880    8.7674975    3.5941544 
H    -0.3539476    9.2428711    1.2175559 
H    -1.5715410    7.4938409   -0.1097831 
H    -2.1776762    5.3383077    0.9247411 
H    -0.7764099    0.7696161   -3.4319221 
H    -2.3887385    4.3311251   -4.8886096 
H    -1.0931847    4.5604009   -6.0712404 
H    -1.1381818    6.3833548   -4.1805104 
H     0.4139496    5.5087941   -4.3143987 
H     2.3454754    2.6698758   -3.7740589 
H     4.4720271    1.7808420   -4.7203198 
H     4.6378290   -0.6591599   -5.3093361 
H     2.6785795   -2.1225110   -5.0163884 
H     0.9233378   -2.6441260   -5.6833514 
H    -1.8329823   -2.7980419   -5.0767925 
H    -0.2588296   -5.2399975   -4.0473639 
H    -2.0355814   -5.0561511   -4.0835108 
H    -1.0545865   -4.0036091   -3.0165736 
H     0.9964098   -5.1375762   -6.1200987 
H     1.1223320   -6.1717110   -8.3660682 
H    -0.6928918   -5.7672696  -10.0469972 
H    -2.6283369   -4.2995106   -9.4507446 
H    -2.7446845   -3.2366815   -7.1984473 
