197
Energy =
C     2.2792522    1.2049973    3.5177901 
C     1.0137016    1.0225548    4.1380304 
C     0.4160645   -0.2705968    4.0960270 
H     0.4357881    1.8813694    4.5003449 
Pd    0.7732737    0.5343345    2.0374330 
P    -0.7111262   -0.5716058    0.6274208 
P     1.3852498    1.7177068    0.1425566 
H     2.8908706    0.2976964    3.3916571 
H     1.1094672   -1.1231159    4.0659835 
C     4.6733667    4.7760271    3.4959679 
C     5.2490257    3.5200600    3.2518101 
C     4.4445915    2.3754394    3.2213563 
C     3.0536884    2.4570919    3.4601189 
C     2.4827270    3.7339415    3.6742416 
C     3.2852267    4.8801955    3.6859136 
H     5.2996988    5.6736354    3.5341697 
H     6.3246245    3.4277866    3.0724208 
H     4.9015854    1.3992856    3.0264630 
H     1.4044367    3.8271307    3.8354825 
H     2.8317827    5.8620663    3.8502953 
C    -3.5045486   -1.1569692    5.6277089 
C    -2.4648870   -2.0901088    5.7513856 
C    -1.1949558   -1.8015627    5.2329030 
C    -0.9403283   -0.5650424    4.5982290 
C    -1.9975369    0.3693482    4.4798886 
C    -3.2654513    0.0703809    4.9880823 
H    -4.5028055   -1.3892781    6.0112416 
H    -2.6412929   -3.0466671    6.2550411 
H    -0.3833525   -2.5298632    5.3444869 
H    -1.8271232    1.3144709    3.9513073 
H    -4.0831677    0.7859885    4.8605719 
C    -7.1266700   -3.8055244    1.1343462 
C    -7.7332794   -4.4396428    2.2306451 
C    -7.9667150   -5.8209339    2.2096420 
C    -7.5859835   -6.5690723    1.0840656 
C    -6.9849173   -5.9357589   -0.0106209 
C    -6.7487269   -4.5457839   -0.0013541 
C    -6.0887858   -3.9004532   -1.2226983 
C    -7.0021600   -3.9413229   -2.4654967 
N    -5.6746043   -2.5218589   -0.9621832 
C    -4.3974614   -2.0584932   -1.0592328 
O    -3.4165881   -2.7881336   -1.2780925 
C    -4.2831309   -0.5600501   -0.9921076 
C    -5.0149411    0.1655684   -1.9575779 
C    -4.8919928    1.5531095   -2.0683314 
C    -4.0460741    2.2346849   -1.1840617 
C    -3.3392750    1.5295526   -0.2051530 
C    -3.4331447    0.1278539   -0.0990869 
C    -2.5840410   -0.5054062    0.9954173 
C    -0.7494856   -2.4460922    0.3986083 
N    -1.9594994   -2.8876895    1.0998212 
N    -2.8998546   -1.8644405    1.4229816 
C    -2.3817369   -4.1975219    0.9253846 
O    -1.6970993   -5.0077656    0.2987942 
C    -3.6687945   -4.5459815    1.6367395 
C    -4.0027726   -3.5610174    2.7623961 
C    -3.9681634   -2.1268496    2.2673133 
O    -4.7847414   -1.2486864    2.5291254 
C     0.4683756   -3.1992100    0.9006166 
C     1.3633735   -3.8520790    0.0261505 
C     2.4844561   -4.5178080    0.5581958 
C     2.7196580   -4.5489300    1.9381711 
C     1.8186654   -3.9118724    2.8076233 
C     0.7032811   -3.2497935    2.2851326 
C     1.2144266   -3.8630560   -1.4774592 
O     2.1385032   -3.4941361   -2.2167172 
N     0.0261544   -4.3266009   -1.9399768 
C    -0.2530271   -4.4205516   -3.3776786 
C    -1.7390123   -4.7619962   -3.5755108 
C     0.6613691   -5.4312201   -4.0682937 
C     1.2240874   -5.1388995   -5.3219467 
C     2.0257880   -6.0803757   -5.9833088 
C     2.2777452   -7.3274852   -5.3926822 
C     1.7229035   -7.6258305   -4.1384882 
C     0.9189150   -6.6838079   -3.4823400 
C    -0.5093433    0.0834901   -1.0755415 
C    -1.2076719   -0.4730856   -2.1629449 
C    -1.0828220    0.0908607   -3.4388038 
C    -0.2713566    1.2164165   -3.6339415 
C     0.4384135    1.7638091   -2.5584370 
C     0.3405342    1.1980028   -1.2747596 
C     3.1891627    1.7528116   -0.4708651 
C     3.3778976    1.1683088   -1.8600825 
C     3.5942224    1.9936239   -2.9738091 
C     3.6740382    1.4471762   -4.2619211 
C     3.5185796    0.0668689   -4.4488201 
C     3.3510269   -0.7751444   -3.3417577 
C     3.3090937   -0.2326931   -2.0480232 
C     3.1826973   -1.0801609   -0.8187798 
O     2.2376477   -0.8620340   -0.0241568 
N     4.1487295   -1.9699435   -0.4953647 
C     5.2043216   -2.5753290   -1.3342856 
C     6.0595948   -3.4793568   -0.4270936 
C     6.0868524   -1.5526430   -2.0395663 
C     6.5900785   -1.8484770   -3.3190617 
C     7.4439246   -0.9508149   -3.9745291 
C     7.7959303    0.2601502   -3.3592587 
C     7.2967905    0.5620438   -2.0834949 
C     6.4549867   -0.3439792   -1.4243871 
C     1.3212210    3.6246285    0.3144879 
N     2.5759032    4.1124446   -0.2774070 
N     3.6190302    3.1410758   -0.3396863 
C     2.9025422    5.4618246   -0.2323783 
O     2.1170654    6.2922738    0.2161512 
C     4.2883463    5.7651019   -0.7691682 
C     5.3130872    4.9002676   -0.0239777 
C     4.9553185    3.4246985   -0.0718667 
O     5.7662198    2.5126611    0.0524403 
C     0.0927667    4.2912282   -0.2691080 
C     0.0744546    4.7943399   -1.5832731 
C    -1.0730677    5.3924220   -2.1122096 
C    -2.2337176    5.4956373   -1.3326630 
C    -2.2250720    5.0159908   -0.0193069 
C    -1.0680939    4.4244262    0.5203001 
C    -1.1172175    3.9472689    1.9519024 
O    -1.3911965    2.7671083    2.2318724 
N    -0.8913235    4.8831658    2.9144560 
C    -0.3412465    6.2516543    2.7275220 
C     0.0188204    6.8125539    4.1127335 
C    -1.2966219    7.1819841    1.9885000 
C    -2.6381748    7.3119196    2.3932861 
C    -3.5065306    8.1688930    1.7043486 
C    -3.0373446    8.9106925    0.6078259 
C    -1.6982162    8.7916028    0.2079352 
C    -0.8297145    7.9301318    0.8941183 
H    -6.9146813   -2.7333516    1.1973181 
H    -8.0167135   -3.8450814    3.1058055 
H    -8.4383670   -6.3148806    3.0655227 
H    -7.7545888   -7.6509031    1.0604633 
H    -6.6826715   -6.5321536   -0.8795583 
H    -5.1520055   -4.4406032   -1.4486457 
H    -7.9230933   -3.3583514   -2.2871856 
H    -7.2988941   -4.9773378   -2.6967432 
H    -6.4756597   -3.5226947   -3.3401200 
H    -6.4011843   -1.8324227   -0.7712185 
H    -5.6638313   -0.3821984   -2.6502234 
H    -5.4511711    2.0954788   -2.8374530 
H    -3.9323422    3.3193266   -1.2531364 
H    -2.6931072    2.0686881    0.4969666 
H    -2.6769435    0.1386079    1.8869993 
H    -0.8889139   -2.6020397   -0.6825371 
H    -4.4746069   -4.5552887    0.8839220 
H    -3.5728157   -5.5799434    2.0034838 
H    -4.9984777   -3.7483287    3.1877846 
H    -3.2573961   -3.6421142    3.5763062 
H     3.1590563   -5.0297725   -0.1358053 
H     3.5879374   -5.0850691    2.3356368 
H     1.9792658   -3.9458109    3.8908023 
H    -0.0250226   -2.7791310    2.9521357 
H    -0.6535258   -4.6841487   -1.2487771 
H    -0.0424420   -3.4259687   -3.8141414 
H    -1.9733558   -4.7874812   -4.6521790 
H    -1.9615107   -5.7592794   -3.1561748 
H    -2.3848425   -4.0213009   -3.0744278 
H     1.0396021   -4.1595028   -5.7799245 
H     2.4605330   -5.8374364   -6.9591516 
H     2.9066899   -8.0628841   -5.9056915 
H     1.9174331   -8.5967361   -3.6696826 
H     0.4955124   -6.9165552   -2.4980945 
H    -1.8626141   -1.3393412   -2.0137863 
H    -1.6294022   -0.3502090   -4.2784848 
H    -0.1735444    1.6640697   -4.6278708 
H     1.0932321    2.6164703   -2.7315900 
H     3.7624865    1.1704673    0.2694743 
H     3.6947932    3.0740543   -2.8274165 
H     3.8487518    2.1037057   -5.1205719 
H     3.5560624   -0.3606819   -5.4557442 
H     3.2372074   -1.8551680   -3.4657521 
H     3.9014498   -2.5011141    0.3447772 
H     4.7041598   -3.2089564   -2.0899803 
H     6.5682864   -2.8783660    0.3464739 
H     5.4429215   -4.2521785    0.0654299 
H     6.8288162   -3.9849329   -1.0316106 
H     6.2992827   -2.7846135   -3.8107802 
H     7.8261949   -1.1930116   -4.9720677 
H     8.4542805    0.9673422   -3.8753896 
H     7.5452337    1.5070341   -1.5909143 
H     6.0595188   -0.0829792   -0.4377607 
H     1.3521582    3.7901665    1.4093426 
H     4.4746151    6.8402336   -0.6363615 
H     4.3118362    5.5371535   -1.8519789 
H     5.3663115    5.1962813    1.0379749 
H     6.3274166    4.9997986   -0.4408223 
H     0.9864294    4.7453001   -2.1853467 
H    -1.0561775    5.7896033   -3.1321462 
H    -3.1329783    5.9735090   -1.7331674 
H    -3.1121044    5.1261670    0.6106405 
H    -1.0152796    4.5442447    3.8707133 
H     0.5768823    6.1606350    2.1196001 
H    -0.8889300    6.9558857    4.7250855 
H     0.5052091    7.7937334    3.9971865 
H     0.7077066    6.1419140    4.6564739 
H    -3.0120808    6.7196910    3.2372062 
H    -4.5506873    8.2598886    2.0225895 
H    -3.7156559    9.5805860    0.0686214 
H    -1.3292636    9.3634415   -0.6502595 
H     0.2061730    7.8056123    0.5616870 
