197
Energy =
C    -2.4356344   -2.5963444   -1.7453637 
C    -3.3658395   -1.5390365   -1.8603696 
C    -3.2005510   -0.5402254   -2.8754874 
H    -4.1182073   -1.3747177   -1.0774485 
Pd   -1.4297579   -0.5775388   -1.5901640 
P    -0.2962963    1.2662011   -2.3968934 
P     0.2905989   -0.6868451   -0.0468424 
H    -1.7920432   -2.7877825   -2.6179161 
H    -2.8099793   -0.8700943   -3.8490814 
C    -2.6514655   -6.0363637    0.8250851 
C    -3.6670475   -5.0665810    0.8834142 
C    -3.5947768   -3.9182977    0.0861142 
C    -2.5024413   -3.7154115   -0.7903904 
C    -1.4744537   -4.6869904   -0.8134789 
C    -1.5470905   -5.8357712   -0.0188338 
H    -2.7207968   -6.9414341    1.4375634 
H    -4.5286899   -5.2143807    1.5426147 
H    -4.4153318   -3.1943963    0.1191772 
H    -0.6145190   -4.5411754   -1.4741574 
H    -0.7354979   -6.5689880   -0.0592185 
C    -5.7961163    2.8979541   -2.8871173 
C    -5.6327795    2.1288376   -4.0484160 
C    -4.7611031    1.0291910   -4.0519613 
C    -4.0621921    0.6677481   -2.8812637 
C    -4.2387318    1.4482304   -1.7129554 
C    -5.0911769    2.5585090   -1.7203406 
H    -6.4620438    3.7658118   -2.8867060 
H    -6.1883891    2.3844196   -4.9576539 
H    -4.6280915    0.4337148   -4.9618774 
H    -3.6645064    1.2000489   -0.8110798 
H    -5.1986883    3.1747230   -0.8216108 
C     5.2404939   -1.0603819    4.9696861 
C     6.4428732   -0.4184985    5.2885458 
C     7.4965605   -1.1419465    5.8717954 
C     7.3355447   -2.5093861    6.1302866 
C     6.1300229   -3.1539827    5.8063132 
C     5.0692937   -2.4388950    5.2234292 
C     3.7485436   -3.0948287    4.8126413 
C     3.4812552   -4.4672372    5.4338801 
N     3.7019703   -3.1857759    3.3343244 
C     3.2111196   -2.1803884    2.5546603 
O     2.5098594   -1.2632910    3.0093107 
C     3.6907746   -2.1777741    1.1265065 
C     5.0884597   -2.0669624    0.9604144 
C     5.6604305   -1.9012584   -0.3055773 
C     4.8264054   -1.8753255   -1.4306093 
C     3.4436619   -2.0116009   -1.2745181 
C     2.8476532   -2.1461018   -0.0077413 
C     1.3284271   -2.2764705    0.0135929 
C    -0.0743977   -0.7843652    1.8069944 
N    -0.0473014   -2.2362947    2.0593486 
N     0.7867300   -2.9858088    1.1707729 
C    -0.6168173   -2.8164617    3.1770563 
O    -1.1650877   -2.1389049    4.0450175 
C    -0.6108991   -4.3320451    3.2036437 
C     0.6658505   -4.9505177    2.6353979 
C     1.0906633   -4.3287642    1.3237265 
O     1.7300108   -4.9108545    0.4492446 
C    -1.3938959   -0.1477238    2.1819161 
C    -1.4145568    0.9993336    2.9999302 
C    -2.6507733    1.5726100    3.3521275 
C    -3.8541898    1.0364604    2.8717049 
C    -3.8271012   -0.0936881    2.0380173 
C    -2.6037626   -0.6814843    1.7058010 
C    -0.1294026    1.6927717    3.4108677 
O     0.3862902    2.5396144    2.6688262 
N     0.4162702    1.3456384    4.6078997 
C    -0.1628715    0.4508437    5.6217373 
C    -0.9950173    1.2479977    6.6505443 
C     0.8972695   -0.3759406    6.3430844 
C     2.1380028    0.1610539    6.7343357 
C     3.0339628   -0.5873115    7.5119854 
C     2.6945637   -1.8836611    7.9240530 
C     1.4626743   -2.4318384    7.5349781 
C     0.5754372   -1.6874841    6.7445784 
C     1.4729883    0.6734686   -0.3364017 
C     2.5692052    0.9048348    0.5110255 
C     3.5468890    1.8389273    0.1441546 
C     3.4426035    2.5238831   -1.0730217 
C     2.3298256    2.3258688   -1.9021232 
C     1.3184532    1.4241582   -1.5292358 
C    -1.0399426    3.0334106   -2.5510426 
C    -0.2269759    4.0556060   -1.7834268 
C     0.6650331    4.9396008   -2.4129737 
C     1.5016146    5.7702570   -1.6569172 
C     1.4790024    5.7092582   -0.2556448 
C     0.5691876    4.8602978    0.3867750 
C    -0.3044832    4.0616170   -0.3711627 
C    -1.3084639    3.1574543    0.2754463 
O    -1.2990974    1.9330938    0.0250121 
N    -2.2650362    3.6995156    1.0597809 
C    -2.5854933    5.1217254    1.2925169 
C    -2.7093211    5.3816919    2.7980578 
C    -3.8005847    5.5105662    0.4479262 
C    -5.1092742    5.5472478    0.9625841 
C    -6.1929162    5.8697316    0.1287956 
C    -5.9784465    6.1611294   -1.2263352 
C    -4.6764798    6.1159376   -1.7500976 
C    -3.5984430    5.7918054   -0.9181301 
C    -0.0565118    1.1389741   -4.2822595 
N    -0.9969362    2.1180826   -4.7991193 
N    -1.1116556    3.2909841   -4.0008521 
C    -1.9140551    1.7811804   -5.7932266 
O    -1.9285229    0.6546854   -6.2809033 
C    -2.7777878    2.9429284   -6.2539939 
C    -2.0794402    4.2870183   -5.9951726 
C    -1.7808253    4.3993879   -4.5094814 
O    -2.1128967    5.3299250   -3.7855416 
C     1.3513150    1.2745370   -4.8170222 
C     1.8208764    2.4890088   -5.3456288 
C     3.1350428    2.6080230   -5.8177286 
C     4.0002103    1.5045962   -5.7785452 
C     3.5331703    0.2778585   -5.2906407 
C     2.2157440    0.1532928   -4.8096365 
C     1.6999258   -1.1563926   -4.2942226 
O     1.0410639   -1.2409343   -3.2417868 
N     1.9788095   -2.2534645   -5.0491194 
C     1.4239365   -3.5757934   -4.7329513 
C     2.1435955   -4.6300432   -5.5897734 
C    -0.0997719   -3.6305696   -4.9014432 
C    -0.8236986   -2.6374809   -5.5836025 
C    -2.2171687   -2.7326068   -5.7229687 
C    -2.9067972   -3.8278915   -5.1825534 
C    -2.1930467   -4.8287573   -4.5044657 
C    -0.8017083   -4.7283884   -4.3656246 
H     4.4105727   -0.4954073    4.5324192 
H     6.5568263    0.6534334    5.0922376 
H     8.4356926   -0.6398083    6.1272173 
H     8.1496176   -3.0813364    6.5883699 
H     6.0262402   -4.2224594    6.0204439 
H     2.9295888   -2.4072140    5.0803066 
H     3.5791460   -4.4138105    6.5293436 
H     4.1834465   -5.2341093    5.0603225 
H     2.4559448   -4.7978937    5.2010122 
H     4.3366256   -3.8489446    2.8876409 
H     5.7274120   -2.0755581    1.8513515 
H     6.7454485   -1.7986889   -0.4086471 
H     5.2505742   -1.7588101   -2.4336541 
H     2.7924881   -2.0083601   -2.1490978 
H     1.0395717   -2.8290507   -0.8950005 
H     0.7687211   -0.3134364    2.3372696 
H    -0.7896482   -4.6367876    4.2453203 
H    -1.4849173   -4.6544670    2.6080463 
H     1.5140522   -4.7947355    3.3276609 
H     0.5677709   -6.0348876    2.4754971 
H    -2.6643331    2.4553729    3.9994145 
H    -4.8090932    1.4916539    3.1556837 
H    -4.7622462   -0.5233129    1.6634340 
H    -2.5749906   -1.5884194    1.0931099 
H     1.2574920    1.8752740    4.8443026 
H    -0.8203339   -0.2457952    5.0778165 
H    -1.8088288    1.7977656    6.1480720 
H    -1.4399284    0.5628487    7.3913542 
H    -0.3583204    1.9711276    7.1904625 
H     2.4220853    1.1798412    6.4436886 
H     3.9999469   -0.1572419    7.7945729 
H     3.3921619   -2.4640668    8.5369366 
H     1.1919828   -3.4475573    7.8438607 
H    -0.3780461   -2.1215417    6.4263994 
H     2.6658168    0.3482438    1.4486540 
H     4.3987321    2.0169902    0.8080478 
H     4.2162540    3.2368884   -1.3753940 
H     2.2497656    2.8912197   -2.8304415 
H    -2.0654433    2.9498690   -2.1460547 
H     0.7112264    4.9686388   -3.5047058 
H     2.1865362    6.4555962   -2.1669221 
H     2.1605185    6.3292791    0.3355091 
H     0.5427022    4.7794140    1.4772959 
H    -2.9234886    3.0101125    1.4347809 
H    -1.7288357    5.6958818    0.9094034 
H    -1.7623031    5.1180559    3.2976860 
H    -2.9363751    6.4433684    2.9891466 
H    -3.5126358    4.7744444    3.2513155 
H    -5.2950631    5.3347553    2.0206829 
H    -7.2059592    5.9020349    0.5440881 
H    -6.8244918    6.4229214   -1.8711735 
H    -4.4860191    6.3242471   -2.8073390 
H    -2.5922648    5.7495235   -1.3489833 
H    -0.4689389    0.1557416   -4.5494912 
H    -3.7344069    2.8987806   -5.7031934 
H    -3.0015335    2.7798450   -7.3195497 
H    -2.7059345    5.1454042   -6.2762715 
H    -1.1339045    4.3421001   -6.5680492 
H     1.1457241    3.3491449   -5.3820829 
H     3.4839654    3.5658240   -6.2170795 
H     5.0310179    1.5966075   -6.1347336 
H     4.2001282   -0.5910935   -5.2634408 
H     2.3802373   -2.1092202   -5.9753191 
H     1.6463862   -3.7632021   -3.6665207 
H     1.9483606   -4.4570302   -6.6632848 
H     1.7749039   -5.6374504   -5.3416563 
H     3.2320910   -4.6017405   -5.4093367 
H    -0.3129910   -1.7701191   -6.0130517 
H    -2.7491871   -1.9368556   -6.2537498 
H    -3.9944221   -3.9011097   -5.2851185 
H    -2.7207214   -5.6837109   -4.0692809 
H    -0.2562425   -5.5123476   -3.8267237 
