197
Energy =
C    -2.5822323   -2.3178092   -1.3020570 
C    -3.2208775   -1.0618333   -1.3171377 
C    -2.7123668    0.0023929   -2.1372522 
H    -4.0025477   -0.8409085   -0.5786091 
Pd   -1.1609560   -0.6199712   -0.7443373 
P     0.4475364    1.0027748   -1.1574183 
P     0.2694809   -1.2339131    0.9792928 
H    -1.8890507   -2.5445449   -2.1255834 
H    -2.2962911   -0.2640479   -3.1173679 
C    -3.6300808   -5.7222476    1.0984170 
C    -4.5214758   -4.6400122    1.0096572 
C    -4.2037731   -3.5267104    0.2239686 
C    -2.9823483   -3.4735755   -0.4872311 
C    -2.1158460   -4.5884572   -0.4198396 
C    -2.4283069   -5.6971215    0.3737255 
H    -3.8788452   -6.5893437    1.7189267 
H    -5.4739742   -4.6691543    1.5495541 
H    -4.9176581   -2.7008932    0.1448118 
H    -1.1856816   -4.5714094   -0.9975354 
H    -1.7265265   -6.5323406    0.4409828 
C    -4.1323838    4.0531099   -1.7548693 
C    -4.0664170    3.2227342   -0.6241855 
C    -3.6058645    1.9065338   -0.7372265 
C    -3.2147830    1.3849478   -1.9944365 
C    -3.2997061    2.2266546   -3.1243394 
C    -3.7513416    3.5473952   -3.0061722 
H    -4.4666674    5.0904672   -1.6581606 
H    -4.3549617    3.6114185    0.3574279 
H    -3.4981584    1.2889111    0.1609605 
H    -3.0235362    1.8214897   -4.1043791 
H    -3.8069681    4.1891483   -3.8920590 
C     1.3568178   -7.2690526   -3.9552629 
C     1.5208311   -7.7340011   -5.2705888 
C     2.4177434   -7.0962886   -6.1384168 
C     3.1589439   -5.9947784   -5.6800789 
C     2.9949840   -5.5301768   -4.3688365 
C     2.0840975   -6.1571765   -3.4934781 
C     1.8902893   -5.5692051   -2.0954023 
C     1.0364176   -6.4171088   -1.1455001 
N     1.3338216   -4.1999534   -2.2383485 
C     1.6849011   -3.0842389   -1.5560443 
O     1.1395214   -1.9805898   -1.7634206 
C     2.7149797   -3.2424092   -0.4669787 
C     4.0853065   -3.3091479   -0.7719888 
C     5.0219402   -3.4933182    0.2548533 
C     4.5887725   -3.6313099    1.5817448 
C     3.2253915   -3.5277793    1.8894827 
C     2.2797715   -3.3061925    0.8761025 
C     0.8138646   -3.0586251    1.1781408 
C    -0.1632688   -1.0458281    2.8140945 
N     0.3039585   -2.3097952    3.4181344 
N     0.3734487   -3.4037787    2.5251757 
C     0.4205961   -2.4666238    4.7876019 
O     0.2977859   -1.5061178    5.5437211 
C     0.6155832   -3.9137918    5.2199103 
C    -0.2858284   -4.8333269    4.3760181 
C     0.0698605   -4.7022582    2.9025409 
O     0.1587390   -5.6274909    2.1028690 
C    -1.6068264   -0.7306250    3.1425698 
C    -1.9130291    0.2729774    4.0946262 
C    -3.2606662    0.5206734    4.4264241 
C    -4.2967406   -0.2083066    3.8267145 
C    -3.9877894   -1.2197822    2.9065047 
C    -2.6510443   -1.4787676    2.5740576 
C    -0.8342631    1.1074880    4.7432255 
O     0.0717851    1.6578820    4.1022478 
N    -0.9552062    1.2666310    6.0918303 
C     0.0940280    1.9859301    6.8283494 
C     0.1189609    1.5018092    8.2850824 
C    -0.1022906    3.4958218    6.7135822 
C     0.9694547    4.3287914    6.3473075 
C     0.8093455    5.7219018    6.3011017 
C    -0.4301715    6.2981776    6.6179946 
C    -1.5126338    5.4729520    6.9626087 
C    -1.3481390    4.0817807    7.0071472 
C     1.7926222   -0.2087351    0.9353893 
C     2.7992886   -0.3453817    1.9072187 
C     3.9229325    0.4887009    1.8863586 
C     4.0344520    1.4799690    0.9034866 
C     3.0173619    1.6486673   -0.0432133 
C     1.8880792    0.8103663   -0.0380265 
C    -0.1054606    2.8264327   -1.2133068 
C     0.6324170    3.6959094   -0.2079727 
C     1.6408445    4.5962373   -0.5871325 
C     2.3908440    5.2883708    0.3725450 
C     2.1566016    5.0761372    1.7378465 
C     1.1187591    4.2265188    2.1346611 
C     0.3367352    3.5648574    1.1733863 
C    -0.8124345    2.7000411    1.5825846 
O    -0.8949419    1.5293402    1.1497397 
N    -1.8166941    3.2123809    2.3376861 
C    -1.9028496    4.4651897    3.1163607 
C    -3.3187237    4.5380856    3.7161667 
C    -1.5957427    5.7257391    2.3126583 
C    -1.0787326    6.8410804    2.9970527 
C    -0.8229645    8.0402602    2.3196208 
C    -1.0696236    8.1344649    0.9416080 
C    -1.5761134    7.0247082    0.2502553 
C    -1.8459428    5.8306228    0.9343179 
C     1.0586682    1.0123662   -2.9633967 
N     0.2734547    2.1217743   -3.5160187 
N     0.0701480    3.2186050   -2.6225514 
C    -0.0663557    2.1310867   -4.8481340 
O     0.1905984    1.1538049   -5.5635076 
C    -0.7197625    3.3980203   -5.3668689 
C    -0.2410566    4.6316646   -4.5914328 
C    -0.4089533    4.4362902   -3.0938643 
O    -0.8813440    5.2618064   -2.3235340 
C     2.5399714    1.1337111   -3.2785627 
C     3.1654319    2.3903303   -3.1485101 
C     4.5417930    2.5508431   -3.3355381 
C     5.3331574    1.4321176   -3.6342167 
C     4.7214686    0.1881177   -3.8134370 
C     3.3253345    0.0287762   -3.6891704 
C     2.8126155   -1.3215993   -4.1433310 
O     3.4297482   -2.3588715   -3.8617777 
N     1.7391583   -1.2848107   -4.9822274 
C     1.2694091   -2.4657178   -5.7140663 
C     1.3305772   -2.1965622   -7.2305059 
C    -0.1276510   -2.9152535   -5.2928462 
C    -1.1879011   -2.0014377   -5.1304359 
C    -2.4752877   -2.4587162   -4.8110494 
C    -2.7200512   -3.8286564   -4.6206055 
C    -1.6720234   -4.7447009   -4.7856105 
C    -0.3903975   -4.2901947   -5.1363801 
H     0.6479027   -7.7800905   -3.2975182 
H     0.9422218   -8.5974528   -5.6157602 
H     2.5423155   -7.4577003   -7.1645984 
H     3.8650215   -5.4903596   -6.3486165 
H     3.5400377   -4.6417151   -4.0356213 
H     2.8871140   -5.4483952   -1.6408103 
H     1.4874083   -7.4157420   -1.0170691 
H     0.0133638   -6.5500197   -1.5378326 
H     0.9690384   -5.9437281   -0.1526264 
H     0.6518672   -4.0515508   -2.9909472 
H     4.3947672   -3.2013496   -1.8166382 
H     6.0891227   -3.5443010    0.0161082 
H     5.3142268   -3.8071999    2.3826940 
H     2.8895454   -3.6106510    2.9282942 
H     0.1818290   -3.6298692    0.4787154 
H     0.4698224   -0.2304604    3.1906429 
H     1.6780295   -4.1972461    5.0897590 
H     0.3860367   -3.9694069    6.2941926 
H    -0.1792354   -5.8933653    4.6489396 
H    -1.3486893   -4.5532989    4.5099106 
H    -3.4934304    1.3011990    5.1591130 
H    -5.3387478    0.0051440    4.0865125 
H    -4.7851988   -1.8134494    2.4503128 
H    -2.4186611   -2.2761638    1.8591926 
H    -1.5284714    0.5923881    6.5969678 
H     1.0530450    1.7319244    6.3424806 
H     0.3022125    0.4133654    8.3193061 
H     0.9238515    2.0128969    8.8370152 
H    -0.8350012    1.7254458    8.7957925 
H     1.9367481    3.8788843    6.0955480 
H     1.6534465    6.3591456    6.0162158 
H    -0.5546567    7.3859298    6.5929690 
H    -2.4853230    5.9161232    7.2020103 
H    -2.1963616    3.4399515    7.2722818 
H     2.7041022   -1.0990812    2.6926608 
H     4.7036317    0.3669225    2.6438532 
H     4.9049784    2.1429436    0.8798347 
H     3.1060197    2.4496206   -0.7736744 
H    -1.1850098    2.7933094   -0.9790304 
H     1.8403497    4.7666718   -1.6482188 
H     3.1655867    5.9905772    0.0480424 
H     2.7592203    5.5929227    2.4913247 
H     0.9111741    4.0575019    3.1949335 
H    -2.5031520    2.4943890    2.5824770 
H    -1.1883107    4.4029174    3.9593081 
H    -3.5281304    3.6520284    4.3421646 
H    -3.4015137    5.4326454    4.3522216 
H    -4.0772191    4.6070037    2.9168300 
H    -0.8633920    6.7590291    4.0676455 
H    -0.4180239    8.8984510    2.8671709 
H    -0.8568046    9.0661128    0.4063636 
H    -1.7397315    7.0671603   -0.8297187 
H    -2.2169136    4.9674971    0.3742190 
H     0.6520798    0.0771525   -3.3704540 
H    -1.8150723    3.2868043   -5.2803370 
H    -0.4855888    3.4636497   -6.4402181 
H    -0.7941857    5.5394882   -4.8713320 
H     0.8325617    4.8099648   -4.7943904 
H     2.5540992    3.2555823   -2.8765291 
H     4.9949445    3.5420419   -3.2301242 
H     6.4165569    1.5336153   -3.7549006 
H     5.3096013   -0.6912258   -4.0934932 
H     1.3425112   -0.3715012   -5.2484442 
H     1.9765359   -3.2705566   -5.4591196 
H     0.6678464   -1.3559792   -7.5028681 
H     1.0025892   -3.0892838   -7.7885824 
H     2.3619321   -1.9460983   -7.5323821 
H    -1.0068419   -0.9300367   -5.2751321 
H    -3.2980276   -1.7429853   -4.7059047 
H    -3.7234375   -4.1768765   -4.3544615 
H    -1.8473527   -5.8179170   -4.6542304 
H     0.4142905   -5.0147560   -5.2990977 
