197
Energy =
C     2.8659787    0.4470667    1.7645498 
C     1.8030558    0.0055104    2.5974137 
C     1.1059173   -1.1981208    2.2899979 
H     1.4068095    0.6650323    3.3796063 
Pd    1.0068856    0.2638937    0.5937467 
P    -0.8515890   -0.3188768   -0.6599537 
P     1.2002955    2.0592082   -0.8542551 
H     3.3972006   -0.3217434    1.1813418 
H     1.6663317   -1.9836830    1.7616907 
C     5.1765884    4.0359586    2.3044376 
C     3.8967092    3.9486163    2.8789125 
C     3.1213102    2.7973413    2.7035015 
C     3.6085030    1.7096150    1.9387848 
C     4.8779570    1.8312751    1.3323861 
C     5.6588179    2.9774657    1.5210214 
H     5.7901713    4.9280590    2.4703256 
H     3.5079442    4.7835958    3.4696757 
H     2.1294438    2.7411705    3.1627707 
H     5.2648154    1.0084317    0.7253898 
H     6.6416301    3.0367835    1.0440856 
C    -2.1654255   -2.5086846    4.7577475 
C    -2.0380642   -1.1479205    4.4358976 
C    -0.9982855   -0.7073082    3.6106738 
C    -0.0650439   -1.6305357    3.0812547 
C    -0.2221927   -2.9980465    3.3869942 
C    -1.2525063   -3.4331853    4.2301017 
H    -2.9851780   -2.8470581    5.3993150 
H    -2.7710336   -0.4276281    4.8126316 
H    -0.9281175    0.3511408    3.3370673 
H     0.4822689   -3.7241888    2.9761460 
H    -1.3416233   -4.4999605    4.4620171 
C    -6.6562832   -4.3628091    0.9344217 
C    -6.7552084   -5.3630369    1.9150100 
C    -6.7979345   -6.7143447    1.5459328 
C    -6.7419019   -7.0622643    0.1866040 
C    -6.6496312   -6.0633521   -0.7907658 
C    -6.6048709   -4.7016173   -0.4299641 
C    -6.5234477   -3.6471529   -1.5351883 
C    -7.8799890   -3.4650838   -2.2468899 
N    -6.0440940   -2.3541362   -1.0449585 
C    -4.8951222   -1.7460734   -1.4600055 
O    -4.0718698   -2.2860793   -2.2146268 
C    -4.7762164   -0.3109973   -1.0155218 
C    -5.8095176    0.5540150   -1.4404816 
C    -5.7630827    1.9266370   -1.1809581 
C    -4.6810920    2.4470152   -0.4588600 
C    -3.6662581    1.5968370   -0.0107791 
C    -3.6852313    0.2151860   -0.2883629 
C    -2.5012717   -0.5746970    0.2503334 
C    -1.1639502   -1.9526396   -1.5729509 
N    -1.7493663   -2.8102723   -0.5249058 
N    -2.6324413   -2.0338576    0.3099080 
C    -2.0634565   -4.1414214   -0.7789150 
O    -1.4097390   -4.8088935   -1.5859214 
C    -3.1898379   -4.7096613    0.0461845 
C    -3.2217142   -4.1080766    1.4490335 
C    -3.3466656   -2.6044119    1.3596157 
O    -4.0347056   -1.8936846    2.0850651 
C    -0.0943103   -2.4899962   -2.4952554 
C     1.1319503   -3.1071747   -2.1501384 
C     2.0392888   -3.4582239   -3.1670307 
C     1.7784147   -3.1838040   -4.5145732 
C     0.5786809   -2.5528845   -4.8605378 
C    -0.3403538   -2.2258756   -3.8586416 
C     1.6316016   -3.4706548   -0.7701664 
O     2.6135649   -2.8829510   -0.2601318 
N     1.0630303   -4.5626370   -0.2215868 
C     1.6716562   -5.3046404    0.8918503 
C     2.8110706   -6.2048992    0.3626909 
C     0.6442008   -6.1117385    1.6757378 
C     0.8444914   -6.3130675    3.0558228 
C    -0.0525745   -7.0809077    3.8105908 
C    -1.1676961   -7.6676227    3.1928725 
C    -1.3653686   -7.4911755    1.8163620 
C    -0.4637611   -6.7248358    1.0612059 
C    -1.0884767    0.9393674   -1.9879362 
C    -2.1239345    0.8412733   -2.9365884 
C    -2.2221619    1.7730851   -3.9789116 
C    -1.2809593    2.8040201   -4.0938706 
C    -0.2461718    2.9126010   -3.1559420 
C    -0.1455168    1.9946233   -2.0970831 
C     2.8564610    2.4167811   -1.7205860 
C     2.9615995    2.1405715   -3.2112591 
C     3.0306260    3.1598420   -4.1708697 
C     3.1862392    2.8453941   -5.5290200 
C     3.2876995    1.5077306   -5.9370694 
C     3.2317152    0.4805068   -4.9833606 
C     3.0678245    0.7950857   -3.6260121 
C     2.8140526   -0.2416938   -2.5716340 
O     1.6527548   -0.2802894   -2.1057104 
N     3.7901450   -1.0326497   -2.1004984 
C     5.2123779   -0.9865611   -2.4633544 
C     5.6240334   -2.2575611   -3.2296474 
C     6.0697343   -0.7713313   -1.2187098 
C     5.9276795   -1.6049998   -0.0895155 
C     6.7498970   -1.4256746    1.0321311 
C     7.7296192   -0.4197515    1.0368830 
C     7.8709973    0.4164682   -0.0800565 
C     7.0400618    0.2471738   -1.1986154 
C     1.1706110    3.7943064   -0.0405567 
N     2.2457420    4.5573292   -0.6841395 
N     3.2366691    3.7776564   -1.3522406 
C     2.5390934    5.8544897   -0.2933327 
O     1.8748185    6.4258109    0.5680771 
C     3.7197939    6.4596032   -1.0306292 
C     4.9281193    5.5201482   -0.9340414 
C     4.5911507    4.1086855   -1.3792226 
O     5.4072524    3.2940883   -1.7967659 
C    -0.1716703    4.4939132   -0.1058148 
C    -0.5059805    5.3613559   -1.1622312 
C    -1.7633210    5.9688355   -1.2260478 
C    -2.7185567    5.7125101   -0.2320527 
C    -2.3953601    4.8641624    0.8308203 
C    -1.1258321    4.2624684    0.9053536 
C    -0.8328382    3.3571923    2.0765528 
O    -1.0746947    2.1395147    2.0185730 
N    -0.3292689    3.9422831    3.1968207 
C     0.1308512    5.3466995    3.3465340 
C     0.8353133    5.4757855    4.7061684 
C    -1.0058656    6.3544202    3.2105592 
C    -0.8599403    7.4556700    2.3492332 
C    -1.9007505    8.3858989    2.2122772 
C    -3.0932414    8.2235319    2.9327143 
C    -3.2407970    7.1281259    3.7993685 
C    -2.1999898    6.2004733    3.9392605 
H    -6.5765889   -3.3179221    1.2515851 
H    -6.7904975   -5.0790969    2.9723249 
H    -6.8725375   -7.4937174    2.3115843 
H    -6.7680487   -8.1154580   -0.1128564 
H    -6.5983223   -6.3442498   -1.8495349 
H    -5.7680294   -3.9656482   -2.2748441 
H    -8.6416329   -3.0939632   -1.5380326 
H    -8.2361016   -4.4278352   -2.6487364 
H    -7.7840455   -2.7474273   -3.0795683 
H    -6.6487793   -1.8202242   -0.4217107 
H    -6.6473757    0.1347654   -2.0089629 
H    -6.5651776    2.5810014   -1.5372676 
H    -4.6233755    3.5173155   -0.2422432 
H    -2.8294380    1.9997362    0.5696200 
H    -2.3214896   -0.2240676    1.2812030 
H    -2.0216404   -1.6883263   -2.2188924 
H    -4.1269180   -4.4759199   -0.4884897 
H    -3.0854569   -5.8027328    0.0591097 
H    -4.0648595   -4.4866983    2.0420596 
H    -2.2870221   -4.3476948    1.9871514 
H     2.9728651   -3.9562764   -2.8866732 
H     2.5031152   -3.4733454   -5.2829110 
H     0.3460260   -2.3296781   -5.9065945 
H    -1.2871790   -1.7521302   -4.1355797 
H     0.2898071   -4.9745099   -0.7624588 
H     2.1190920   -4.5472977    1.5580862 
H     3.2986501   -6.7345695    1.1980913 
H     2.4106815   -6.9562893   -0.3391158 
H     3.5660013   -5.5894129   -0.1558841 
H     1.7103697   -5.8549316    3.5484936 
H     0.1184049   -7.2174966    4.8836614 
H    -1.8731579   -8.2647761    3.7799367 
H    -2.2258209   -7.9553694    1.3220520 
H    -0.6459170   -6.6054483   -0.0126684 
H    -2.8639852    0.0375736   -2.8685108 
H    -3.0356092    1.6840235   -4.7059645 
H    -1.3471261    3.5247131   -4.9151861 
H     0.4949257    3.7072470   -3.2608207 
H     3.5673483    1.7416692   -1.2071135 
H     2.9854434    4.2057362   -3.8494651 
H     3.2403552    3.6501471   -6.2693770 
H     3.4135907    1.2637807   -6.9968057 
H     3.2955585   -0.5688741   -5.2882441 
H     3.4597522   -1.7139802   -1.3822899 
H     5.3390638   -0.1119830   -3.1228244 
H     5.0134990   -2.3713442   -4.1418485 
H     6.6876369   -2.2025757   -3.5147177 
H     5.4846619   -3.1527974   -2.5989088 
H     5.1637494   -2.3917052   -0.0747831 
H     6.6262000   -2.0750234    1.9053541 
H     8.3732950   -0.2835903    1.9120872 
H     8.6241979    1.2115915   -0.0802011 
H     7.1318354    0.9262019   -2.0527708 
H     1.4462858    3.5981548    1.0137967 
H     3.9220609    7.4454647   -0.5885050 
H     3.4348845    6.6063819   -2.0903780 
H     5.2853067    5.4588774    0.1089002 
H     5.7752645    5.8623806   -1.5486678 
H     0.2427735    5.5831332   -1.9276881 
H    -1.9942129    6.6515723   -2.0500334 
H    -3.7010747    6.1931238   -0.2678050 
H    -3.1174841    4.6882495    1.6332897 
H    -0.2147294    3.3101717    3.9916714 
H     0.8579084    5.5482843    2.5396065 
H     0.1214980    5.3204504    5.5345963 
H     1.2550258    6.4886637    4.8081498 
H     1.6568591    4.7444181    4.8069449 
H     0.0580560    7.5584806    1.7611397 
H    -1.7832632    9.2349199    1.5303563 
H    -3.9069882    8.9481880    2.8216386 
H    -4.1685958    6.9978482    4.3669465 
H    -2.3257346    5.3358880    4.6020953 
