197
Energy =
C    -3.1791024   -0.8739368   -1.4099874 
C    -3.4486844    0.3509045   -0.7647673 
C    -2.8683895    1.5743731   -1.2339023 
H    -3.9583029    0.3411022    0.2073521 
Pd   -1.2677311    0.1844468   -0.7451697 
P     0.5081667    1.6729688   -0.8450769 
P     0.3540933   -1.3376047   -0.0552360 
H    -2.7642233   -0.8342705   -2.4271623 
H    -2.7576548    1.7036409   -2.3195888 
C    -4.7099944   -4.7038378   -0.1855794 
C    -5.2942088   -3.5286707    0.3135217 
C    -4.8119246   -2.2785025   -0.0893449 
C    -3.7290867   -2.1760203   -0.9951411 
C    -3.1787704   -3.3676270   -1.5189142 
C    -3.6577457   -4.6173921   -1.1101545 
H    -5.0888703   -5.6823694    0.1279047 
H    -6.1359049   -3.5865073    1.0117985 
H    -5.2931803   -1.3709224    0.2887839 
H    -2.3680415   -3.3187740   -2.2529632 
H    -3.2066067   -5.5197812   -1.5293013 
C    -2.9732328    5.1904676    1.1124326 
C    -2.9526482    3.9391433    1.7494973 
C    -2.9201091    2.7621615    0.9943235 
C    -2.9182945    2.8101242   -0.4214522 
C    -2.9391403    4.0744303   -1.0506488 
C    -2.9713640    5.2506176   -0.2885693 
H    -2.9755260    6.1109369    1.7038039 
H    -2.9430641    3.8807221    2.8427497 
H    -2.8392968    1.7959161    1.5037386 
H    -2.9444681    4.1211307   -2.1455109 
H    -2.9976692    6.2252755   -0.7874805 
C    -3.2406051   -3.9624286   -5.2092169 
C    -4.5237010   -4.4582551   -4.9351497 
C    -4.6733294   -5.7253175   -4.3553791 
C    -3.5336282   -6.4857147   -4.0504312 
C    -2.2527764   -5.9825184   -4.3167537 
C    -2.0895929   -4.7109856   -4.9017810 
C    -0.7120087   -4.1730010   -5.2616571 
C     0.0363829   -5.0881256   -6.2527331 
N     0.1007523   -3.9352366   -4.0525032 
C     1.2158610   -3.1493063   -4.1150599 
O     1.4972326   -2.4637808   -5.1092711 
C     2.1889295   -3.3134757   -2.9638007 
C     3.5172823   -3.5553123   -3.3708233 
C     4.4947478   -3.9729092   -2.4619670 
C     4.1445256   -4.1775428   -1.1202104 
C     2.8456672   -3.8802213   -0.6948877 
C     1.8650675   -3.4008241   -1.5865803 
C     0.5124854   -2.9786984   -1.0469618 
C     0.2715045   -2.2283879    1.6086723 
N     0.1840352   -3.6554941    1.2710147 
N    -0.0582061   -3.9456019   -0.0932265 
C     0.4885137   -4.6229527    2.2152575 
O     0.8190143   -4.2970283    3.3522165 
C     0.3085737   -6.0492563    1.7148447 
C    -0.8149632   -6.1184819    0.6660828 
C    -0.4863237   -5.1895491   -0.4873490 
O    -0.5339325   -5.5009965   -1.6817080 
C    -0.8418887   -1.7964369    2.5418988 
C    -0.5522074   -1.4004718    3.8667831 
C    -1.6114522   -1.0888198    4.7431279 
C    -2.9428114   -1.1407332    4.3092597 
C    -3.2260614   -1.5496017    2.9977290 
C    -2.1801706   -1.8875541    2.1298030 
C     0.8682481   -1.2603345    4.3458447 
O     1.7317612   -0.6461115    3.7015642 
N     1.1341690   -1.8117978    5.5626502 
C     2.4916434   -1.7402638    6.1216918 
C     2.7025411   -2.8952344    7.1101776 
C     2.7443368   -0.3703941    6.7490278 
C     3.8529311    0.4002265    6.3574771 
C     4.1172509    1.6354420    6.9684903 
C     3.2710538    2.1144686    7.9796882 
C     2.1471518    1.3634947    8.3605285 
C     1.8855441    0.1318005    7.7453913 
C     1.9909622   -0.5086442    0.0228098 
C     3.1310801   -1.1064131    0.5873915 
C     4.3693145   -0.4553169    0.5547663 
C     4.4802283    0.8041205   -0.0457092 
C     3.3385623    1.4359423   -0.5505233 
C     2.0844206    0.8031411   -0.4951338 
C     0.5680143    3.3078351    0.1354006 
C     1.7207043    3.3563436    1.1326590 
C     2.8645365    4.1345235    0.8882092 
C     3.9714361    4.0862889    1.7446632 
C     3.9651492    3.2304152    2.8540289 
C     2.8188664    2.4819169    3.1387486 
C     1.6875498    2.5666856    2.3094973 
C     0.4421006    1.8081962    2.6351396 
O    -0.1164230    1.1161009    1.7564397 
N    -0.1304953    1.9357269    3.8595758 
C     0.3336514    2.6170839    5.0850716 
C    -0.7975750    2.5251282    6.1252050 
C     0.7433919    4.0727445    4.8756095 
C     1.7036625    4.6249135    5.7431280 
C     2.0709865    5.9725069    5.6395788 
C     1.4874497    6.7846223    4.6555115 
C     0.5382176    6.2396830    3.7796421 
C     0.1637874    4.8929288    3.8936748 
C     0.6987940    2.5488294   -2.5251282 
N     0.5233101    3.9713754   -2.2471120 
N     0.6366430    4.3711305   -0.8780392 
C    -0.0571874    4.7691579   -3.2258195 
O    -0.2693287    4.3105977   -4.3456882 
C    -0.3614883    6.1995515   -2.8235285 
C     0.5221945    6.6765717   -1.6666100 
C     0.4649112    5.6960736   -0.5091167 
O     0.3102435    6.0011096    0.6682270 
C     1.9466692    2.1796117   -3.3008158 
C     3.0723639    3.0133651   -3.3736358 
C     4.2286244    2.5859246   -4.0428012 
C     4.2700171    1.3189771   -4.6441894 
C     3.1374363    0.4915432   -4.6139656 
C     1.9790408    0.9248399   -3.9502799 
C     0.7111907    0.1111316   -3.9837287 
O     0.2856964   -0.5333004   -3.0075472 
N     0.0344005    0.2331386   -5.1490280 
C    -1.2669956   -0.3758520   -5.4183994 
C    -1.3189304   -0.7901586   -6.8997486 
C    -2.4211781    0.5582040   -5.0458050 
C    -2.2639860    1.9557576   -5.0733599 
C    -3.3433219    2.8030861   -4.7788630 
C    -4.5964874    2.2650072   -4.4499827 
C    -4.7619135    0.8712457   -4.4179761 
C    -3.6833823    0.0261001   -4.7175788 
H    -3.1286953   -2.9838227   -5.6876095 
H    -5.4051938   -3.8574087   -5.1832474 
H    -5.6723586   -6.1204746   -4.1439872 
H    -3.6422344   -7.4786799   -3.6006893 
H    -1.3760077   -6.5852309   -4.0597921 
H    -0.8357222   -3.1924033   -5.7438933 
H    -0.5667804   -5.2318407   -7.1651196 
H     0.2322209   -6.0777672   -5.8054239 
H     0.9967453   -4.6237519   -6.5307858 
H    -0.0279648   -4.5681644   -3.2467751 
H     3.7515839   -3.4501361   -4.4347984 
H     5.5149541   -4.1711824   -2.8060691 
H     4.8820143   -4.5516555   -0.4026579 
H     2.5843326   -4.0192909    0.3590394 
H    -0.2037359   -2.8458144   -1.8685761 
H     1.2347094   -2.0519859    2.1067622 
H     1.2659672   -6.3910018    1.2760766 
H     0.1041692   -6.6834568    2.5904892 
H    -0.9442451   -7.1300786    0.2555869 
H    -1.7759769   -5.7976421    1.1120750 
H    -1.3803481   -0.7908623    5.7715403 
H    -3.7539464   -0.8783369    4.9963670 
H    -4.2614825   -1.6212889    2.6516257 
H    -2.4068555   -2.2380886    1.1182593 
H     0.4791273   -2.4983999    5.9339246 
H     3.1882756   -1.8519497    5.2719781 
H     2.5472537   -3.8645359    6.6047131 
H     3.7288086   -2.8651656    7.5096369 
H     2.0063613   -2.8210067    7.9649792 
H     4.5108319    0.0280083    5.5639164 
H     4.9853157    2.2251959    6.6547705 
H     3.4839034    3.0708204    8.4688372 
H     1.4768981    1.7374296    9.1419723 
H     1.0044403   -0.4485756    8.0435493 
H     3.0620886   -2.0781997    1.0762309 
H     5.2455802   -0.9379134    0.9989032 
H     5.4457388    1.3170341   -0.0908948 
H     3.4285990    2.4365620   -0.9690097 
H    -0.4040218    3.3651784    0.6576064 
H     2.8960335    4.7755512    0.0027393 
H     4.8462274    4.7095756    1.5322601 
H     4.8392785    3.1620225    3.5093764 
H     2.7970968    1.8097499    4.0002712 
H    -0.9511168    1.3335830    3.9607429 
H     1.2017788    2.0645411    5.4909764 
H    -1.0562137    1.4725368    6.3374617 
H    -0.4685699    2.9931807    7.0657570 
H    -1.6972618    3.0567233    5.7686660 
H     2.1732531    3.9847658    6.4972194 
H     2.8225991    6.3857707    6.3212031 
H     1.7813612    7.8356923    4.5632643 
H     0.1048477    6.8479390    2.9819597 
H    -0.5591133    4.4775255    3.1851331 
H    -0.1834807    2.2353898   -3.1103905 
H    -1.4284305    6.2398438   -2.5380229 
H    -0.2466231    6.8226962   -3.7238397 
H     0.2156362    7.6607604   -1.2845318 
H     1.5745917    6.7538210   -2.0022049 
H     3.0367559    4.0027755   -2.9044469 
H     5.1008332    3.2460357   -4.0935123 
H     5.1779330    0.9831489   -5.1555993 
H     3.1268665   -0.4928105   -5.0941867 
H     0.4830264    0.7700256   -5.8899984 
H    -1.3189754   -1.2724491   -4.7770762 
H    -1.2536387    0.1003328   -7.5503355 
H    -2.2708919   -1.2964465   -7.1267641 
H    -0.4795286   -1.4685592   -7.1275152 
H    -1.2940872    2.4043448   -5.3039858 
H    -3.1884502    3.8867832   -4.8085165 
H    -5.4380551    2.9248398   -4.2147873 
H    -5.7324543    0.4385085   -4.1531767 
H    -3.8250644   -1.0602281   -4.6842400 
