197
Energy =
C    -3.3513013   -1.5941167   -0.4904809 
C    -3.6109960   -0.3595577    0.1416863 
C    -3.1355876    0.8630523   -0.4379975 
H    -4.0185312   -0.3479481    1.1610682 
Pd   -1.4369131   -0.4425535   -0.0163625 
P     0.2556462    1.0696970   -0.5025806 
P     0.3345750   -1.8102482    0.6222383 
H    -3.0567631   -1.5636345   -1.5510866 
H    -3.1348479    0.9360788   -1.5355100 
C    -4.4490090   -5.4843885    0.9793997 
C    -5.0085147   -4.3381694    1.5678957 
C    -4.6707250   -3.0650533    1.0953552 
C    -3.7587607   -2.9113500    0.0247711 
C    -3.2318531   -4.0765499   -0.5768949 
C    -3.5645758   -5.3499496   -0.1021818 
H    -4.7148386   -6.4790765    1.3521084 
H    -5.7215941   -4.4384242    2.3932343 
H    -5.1368938   -2.1830607    1.5456759 
H    -2.5490594   -3.9727973   -1.4264326 
H    -3.1166323   -6.2333873   -0.5646720 
C    -3.0880022    4.5871261    1.7374456 
C    -2.9456840    3.3688662    2.4223046 
C    -2.9681570    2.1580208    1.7232170 
C    -3.1453763    2.1352313    0.3177514 
C    -3.2958246    3.3661284   -0.3589376 
C    -3.2689067    4.5777023    0.3470409 
H    -3.0482992    5.5349518    2.2828718 
H    -2.7948828    3.3640415    3.5065303 
H    -2.7910462    1.2207573    2.2614083 
H    -3.4480466    3.3605924   -1.4440344 
H    -3.3956978    5.5253065   -0.1872620 
C    -1.7331446   -2.7640907   -6.3063188 
C    -1.7892773   -2.2151508   -7.5944694 
C    -0.7068383   -2.3728265   -8.4746688 
C     0.4269574   -3.0887591   -8.0614794 
C     0.4803255   -3.6351670   -6.7699154 
C    -0.5951511   -3.4756822   -5.8773787 
C    -0.4982359   -3.9934871   -4.4445839 
C    -1.6215230   -4.9649635   -4.0445247 
N    -0.4624132   -2.8305304   -3.5404684 
C     0.4882929   -2.4802349   -2.6519748 
O     0.4134241   -1.4005668   -2.0314549 
C     1.6128335   -3.4097413   -2.2958587 
C     2.6889690   -3.6699941   -3.1594146 
C     3.7684282   -4.4509205   -2.7213302 
C     3.7655965   -4.9775086   -1.4218393 
C     2.6959741   -4.7103370   -0.5551599 
C     1.6192192   -3.9160363   -0.9748501 
C     0.4442080   -3.5906776   -0.0697904 
C     0.5952393   -2.3797052    2.4129980 
N     0.8288142   -3.8340098    2.3004202 
N     0.3271594   -4.4238481    1.1176391 
C     1.2732958   -4.5901215    3.3689471 
O     1.6538299   -4.0521700    4.4063517 
C     1.1593546   -6.0928801    3.1420916 
C    -0.1561686   -6.4200792    2.4112268 
C    -0.2010622   -5.7047451    1.0696142 
O    -0.5947492   -6.1786663    0.0089410 
C    -0.5178740   -2.0440183    3.3845411 
C    -0.2137523   -1.4909510    4.6517541 
C    -1.2566406   -1.2361757    5.5652575 
C    -2.5887905   -1.5172723    5.2332407 
C    -2.8839232   -2.0920354    3.9889797 
C    -1.8528523   -2.3577836    3.0775562 
C     1.2006989   -1.1397290    5.0400030 
O     1.9556368   -0.4794159    4.3125922 
N     1.5830687   -1.5546627    6.2810706 
C     2.9678399   -1.3325554    6.7209760 
C     3.3394501   -2.3753848    7.7845557 
C     3.1551562    0.1010619    7.2121937 
C     4.2193883    0.8859923    6.7351520 
C     4.4301519    2.1818709    7.2297609 
C     3.5732265    2.7093140    8.2075759 
C     2.4934622    1.9418141    8.6728593 
C     2.2864879    0.6479722    8.1755167 
C     1.9387123   -0.9789180    0.2962449 
C     3.1606944   -1.5840594    0.6284509 
C     4.3702481   -0.9363755    0.3426474 
C     4.3567915    0.3230809   -0.2674063 
C     3.1373650    0.9419748   -0.5752400 
C     1.9182161    0.3055617   -0.2940764 
C     0.3693028    2.8154718    0.2566326 
C     1.6108897    3.0051198    1.1242227 
C     2.7050487    3.7672472    0.6799842 
C     3.8810904    3.8589096    1.4340786 
C     3.9965733    3.1648473    2.6457283 
C     2.9062490    2.4323864    3.1243264 
C     1.7085595    2.3750429    2.3904107 
C     0.5394624    1.6036930    2.9112494 
O    -0.0115861    0.7524227    2.1804923 
N     0.0231688    1.8770557    4.1365298 
C     0.5533874    2.6882969    5.2505903 
C    -0.5050986    2.6861302    6.3683712 
C     0.9199595    4.1180630    4.8631645 
C     0.2714665    4.8172073    3.8318314 
C     0.6182476    6.1450775    3.5439520 
C     1.6077943    6.7943069    4.2955061 
C     2.2584445    6.1042047    5.3295219 
C     1.9193118    4.7734549    5.6056846 
C    -0.0873680    1.7218565   -2.2601998 
N    -0.1748521    3.1849255   -2.1180838 
N     0.3214010    3.7394467   -0.8919617 
C    -1.1291855    3.8352470   -2.8923970 
O    -1.7840124    3.2048807   -3.7222614 
C    -1.2384837    5.3354939   -2.6957536 
C    -0.0243560    5.9028833   -1.9518423 
C     0.1916482    5.1085196   -0.6773466 
O     0.2505434    5.5795478    0.4511762 
C     0.7264366    1.2399859   -3.4430948 
C     2.0828245    1.5769841   -3.5826129 
C     2.8676285    1.0396446   -4.6105673 
C     2.2946329    0.1514751   -5.5319160 
C     0.9211069   -0.1136977   -5.4699862 
C     0.1239912    0.4478429   -4.4551241 
C    -1.3661629    0.2235507   -4.5208013 
O    -2.0014787   -0.3645060   -3.6152449 
N    -2.0111789    0.6443515   -5.6350778 
C    -1.5493663    1.3355958   -6.8680571 
C    -0.7879214    2.6501217   -6.6139753 
C    -2.7840009    1.5866105   -7.7253705 
C    -2.8468249    1.1191648   -9.0497979 
C    -3.9769898    1.3702134   -9.8427800 
C    -5.0592007    2.0891217   -9.3152860 
C    -5.0041203    2.5620124   -7.9945837 
C    -3.8723230    2.3170830   -7.2051886 
H    -2.5788743   -2.6187982   -5.6244508 
H    -2.6760953   -1.6560386   -7.9104672 
H    -0.7508871   -1.9454117   -9.4821040 
H     1.2715415   -3.2232743   -8.7455843 
H     1.3707666   -4.1886319   -6.4491996 
H     0.4634926   -4.5167219   -4.3274843 
H    -1.6644371   -5.8083881   -4.7536504 
H    -2.6052019   -4.4642685   -4.0451096 
H    -1.4278900   -5.3632372   -3.0335959 
H    -1.1833128   -2.0929019   -3.6406628 
H     2.6845115   -3.2450477   -4.1691419 
H     4.6077386   -4.6511293   -3.3950375 
H     4.5990762   -5.5994305   -1.0797040 
H     2.6941364   -5.1260590    0.4575196 
H    -0.4895209   -3.7251399   -0.6391800 
H     1.5247795   -1.9056147    2.7567032 
H     2.0239528   -6.4386993    2.5426923 
H     1.2243533   -6.5783490    4.1269735 
H    -0.2728627   -7.4966941    2.2191425 
H    -1.0222203   -6.0869830    3.0154632 
H    -1.0136582   -0.8064890    6.5432937 
H    -3.3895148   -1.3011903    5.9481444 
H    -3.9158281   -2.3417838    3.7263930 
H    -2.0940017   -2.8167120    2.1120678 
H     1.0512293   -2.3117203    6.7084789 
H     3.6105170   -1.4709388    5.8330747 
H     3.2265431   -3.3940926    7.3733198 
H     4.3861511   -2.2353895    8.0984643 
H     2.7016390   -2.2743799    8.6810901 
H     4.8857916    0.4762593    5.9674669 
H     5.2638943    2.7821684    6.8498525 
H     3.7418866    3.7166233    8.6027047 
H     1.8147100    2.3517345    9.4286020 
H     1.4399412    0.0529437    8.5377301 
H     3.1747792   -2.5651552    1.1118238 
H     5.3189940   -1.4173037    0.6009701 
H     5.2949006    0.8414398   -0.4892094 
H     3.1489713    1.9399731   -1.0105024 
H    -0.5494382    2.9272784    0.8636835 
H     2.6408568    4.2882022   -0.2789242 
H     4.7127204    4.4675906    1.0641837 
H     4.9232870    3.2090802    3.2266366 
H     2.9786923    1.8774620    4.0632053 
H    -0.7286656    1.2274460    4.3795944 
H     1.4573089    2.1900096    5.6498217 
H    -0.7337781    1.6550470    6.6931621 
H    -0.1209078    3.2412692    7.2378622 
H    -1.4342652    3.1744292    6.0257530 
H    -0.4842898    4.3170853    3.2193667 
H     0.1310453    6.6546871    2.7087667 
H     1.8807148    7.8303015    4.0675584 
H     3.0412377    6.5988691    5.9151076 
H     2.4416776    4.2268546    6.3977381 
H    -1.1164552    1.3683601   -2.4162279 
H    -2.1704268    5.5339236   -2.1374897 
H    -1.3649905    5.7850229   -3.6938922 
H    -0.1579741    6.9580568   -1.6749428 
H     0.8783889    5.8151828   -2.5855511 
H     2.5288982    2.2781528   -2.8731725 
H     3.9272668    1.3054937   -4.6828245 
H     2.9040500   -0.3041192   -6.3192127 
H     0.4560877   -0.7610537   -6.2206547 
H    -3.0084150    0.4207407   -5.6102056 
H    -0.8890213    0.6424380   -7.4195170 
H    -1.4234982    3.3677252   -6.0747837 
H    -0.5017981    3.0767724   -7.5899490 
H     0.1265164    2.4830986   -6.0239072 
H    -2.0020321    0.5561187   -9.4637250 
H    -4.0127201    1.0006079  -10.8730784 
H    -5.9430906    2.2826767   -9.9319917 
H    -5.8441758    3.1295452   -7.5800561 
H    -3.8264783    2.6994895   -6.1778878 
