197
Energy =
C    -2.4189826   -2.6702639   -0.9060050 
C    -3.1595144   -1.5006810   -0.6245564 
C    -2.9218938   -0.3231523   -1.4149461 
H    -3.7622184   -1.4338698    0.2903830 
Pd   -1.0803409   -0.8834808   -0.4362123 
P     0.1996612    0.9215573   -1.1211931 
P     0.8236204   -1.4584208    0.7899054 
H    -1.9341845   -2.7348775   -1.8938517 
H    -2.7221028   -0.4733802   -2.4847370 
C    -2.3411864   -6.3597715    1.2896337 
C    -3.3089975   -5.3917725    1.6067561 
C    -3.3660988   -4.1907606    0.8915620 
C    -2.4489120   -3.9315456   -0.1531869 
C    -1.5049758   -4.9322576   -0.4845217 
C    -1.4444409   -6.1305087    0.2343174 
H    -2.2971411   -7.2973440    1.8535831 
H    -4.0288075   -5.5790246    2.4107150 
H    -4.1406321   -3.4558897    1.1322629 
H    -0.8109210   -4.7546089   -1.3132457 
H    -0.6866237   -6.8772104   -0.0171547 
C    -4.1064832    3.6819540   -0.3604524 
C    -3.9397908    2.7142515    0.6447450 
C    -3.5806171    1.4034123    0.3134270 
C    -3.3842367    1.0290695   -1.0382683 
C    -3.5589846    2.0101629   -2.0405626 
C    -3.9204169    3.3203657   -1.7023840 
H    -4.3634650    4.7124529   -0.0976815 
H    -4.0682494    2.9904217    1.6963744 
H    -3.3952264    0.6765959    1.1113471 
H    -3.4234215    1.7312440   -3.0914906 
H    -4.0575398    4.0673471   -2.4910522 
C     3.5067239   -4.9391111   -5.5403950 
C     3.6177138   -4.8542061   -6.9366835 
C     2.4672780   -4.9137969   -7.7367244 
C     1.2088504   -5.0669284   -7.1333925 
C     1.1009220   -5.1565181   -5.7387505 
C     2.2503627   -5.0883226   -4.9261564 
C     2.1324286   -5.0734875   -3.4050601 
C     1.3481130   -6.2550102   -2.8077416 
N     1.5131731   -3.7929341   -3.0183053 
C     1.9122945   -2.9135942   -2.0857302 
O     1.2468172   -1.8783094   -1.8440162 
C     3.1277561   -3.1860699   -1.2474878 
C     4.4305402   -3.1990971   -1.7724744 
C     5.5284956   -3.3954300   -0.9232575 
C     5.3205678   -3.5938192    0.4495920 
C     4.0222840   -3.5632991    0.9776070 
C     2.9177711   -3.3429845    0.1403325 
C     1.4970248   -3.2272349    0.6618919 
C     0.8643237   -1.4923438    2.6854916 
N     1.4014523   -2.8361244    3.0465703 
N     1.2778655   -3.7987550    1.9902695 
C     1.3853530   -3.2168113    4.3832135 
O     1.4283689   -2.3650335    5.2681094 
C     1.1865875   -4.6977944    4.6446482 
C     1.7950789   -5.6088996    3.5775892 
C     1.5081503   -5.1603340    2.1581636 
O     1.5482172   -5.9022434    1.1810638 
C    -0.4830544   -1.2408970    3.3384982 
C    -0.6056418   -0.3507125    4.4308584 
C    -1.8570221   -0.1897893    5.0590390 
C    -2.9836210   -0.8927588    4.6115439 
C    -2.8523066   -1.8005915    3.5513901 
C    -1.6084715   -1.9777966    2.9306419 
C     0.5701042    0.4509944    4.9271235 
O     1.3034400    1.1065443    4.1729533 
N     0.7411878    0.4503987    6.2794833 
C     1.8917032    1.1464152    6.8715356 
C     2.2547266    0.4842453    8.2090342 
C     1.6103859    2.6399598    7.0218052 
C     2.5663927    3.5892065    6.6200144 
C     2.3440555    4.9592943    6.8246921 
C     1.1560887    5.3965313    7.4299473 
C     0.1858088    4.4572989    7.8143314 
C     0.4128434    3.0894506    7.6097715 
C     2.1794276   -0.2768487    0.3990151 
C     3.4312955   -0.3489706    1.0301530 
C     4.4639257    0.5234385    0.6604541 
C     4.2451388    1.4822154   -0.3356612 
C     2.9835725    1.5923532   -0.9354808 
C     1.9391295    0.7280358   -0.5699325 
C    -0.2608617    2.7402035   -0.8008961 
C     0.7310160    3.4469167    0.1216156 
C     1.6776685    4.3541197   -0.3824822 
C     2.6428044    4.9329139    0.4503547 
C     2.6933570    4.5944041    1.8088283 
C     1.7372375    3.7215936    2.3376301 
C     0.7422795    3.1717540    1.5113977 
C    -0.3003623    2.2546930    2.0635520 
O    -0.4879041    1.1442229    1.5199660 
N    -1.1082868    2.6532354    3.0784201 
C    -0.9976497    3.7891730    4.0161244 
C    -2.2558205    3.7823134    4.9031715 
C    -0.8333100    5.1458821    3.3402052 
C    -1.4184062    5.4493930    2.0997987 
C    -1.2758176    6.7284308    1.5427734 
C    -0.5599926    7.7210589    2.2271780 
C     0.0242302    7.4257391    3.4680707 
C    -0.1081271    6.1436870    4.0165005 
C     0.0122174    1.1088214   -3.0044294 
N    -0.2087104    2.5454990   -3.2831874 
N    -0.3670541    3.3772708   -2.1219689 
C    -0.8502952    2.8507479   -4.4718549 
O    -0.9611268    1.9990284   -5.3606371 
C    -1.4121888    4.2470812   -4.6202697 
C    -0.8044576    5.2430059   -3.6326199 
C    -0.8332402    4.6789330   -2.2251323 
O    -1.1889739    5.2952097   -1.2273334 
C     1.0289012    0.4418112   -3.9062406 
C     2.2897342    1.0266048   -4.1072877 
C     3.2844380    0.3774090   -4.8482801 
C     3.0263874   -0.8827905   -5.4047944 
C     1.7618311   -1.4620039   -5.2478945 
C     0.7501086   -0.8070711   -4.5203515 
C    -0.5980455   -1.4914717   -4.5199231 
O    -0.7360958   -2.6996316   -4.2299807 
N    -1.6385139   -0.7341527   -4.9419958 
C    -2.9736627   -1.3049496   -5.1970348 
C    -3.0327010   -1.9329385   -6.6040860 
C    -4.0501824   -0.2500093   -4.9777209 
C    -5.1157057   -0.5005003   -4.0930714 
C    -6.1185109    0.4578933   -3.8855984 
C    -6.0698967    1.6837890   -4.5640610 
C    -5.0163063    1.9417293   -5.4549001 
C    -4.0164002    0.9808585   -5.6651345 
H     4.4081257   -4.8854757   -4.9182010 
H     4.6040123   -4.7424915   -7.3997860 
H     2.5503620   -4.8449189   -8.8264484 
H     0.3062269   -5.1152648   -7.7520576 
H     0.1097601   -5.2497683   -5.2824232 
H     3.1469148   -5.0908482   -2.9785969 
H     1.8035066   -7.2099197   -3.1197991 
H     0.2964419   -6.2492151   -3.1428010 
H     1.3701340   -6.1950009   -1.7055604 
H     0.6490854   -3.4869137   -3.5256168 
H     4.5791803   -3.0432496   -2.8464848 
H     6.5435870   -3.4017778   -1.3331031 
H     6.1729125   -3.7661146    1.1147511 
H     3.8690663   -3.6985347    2.0533407 
H     0.8081658   -3.7454214   -0.0217997 
H     1.5806695   -0.7256066    3.0089416 
H     1.5668265   -4.9213670    5.6527127 
H     0.0863677   -4.8341053    4.6719849 
H     2.8993926   -5.6234741    3.6677691 
H     1.4577964   -6.6519811    3.6780617 
H    -1.9409222    0.4991562    5.9065122 
H    -3.9522358   -0.7462719    5.1005878 
H    -3.7164693   -2.3806296    3.2137464 
H    -1.5117104   -2.7070499    2.1184812 
H     0.3155093   -0.3157652    6.8000409 
H     2.7331109    1.0319074    6.1646513 
H     2.4832128   -0.5853420    8.0561749 
H     3.1387849    0.9765118    8.6446739 
H     1.4259288    0.5762113    8.9339074 
H     3.4932095    3.2496612    6.1431426 
H     3.0986271    5.6874247    6.5083070 
H     0.9824762    6.4650727    7.5948169 
H    -0.7476626    4.7924705    8.2792107 
H    -0.3479272    2.3586881    7.9079513 
H     3.6103001   -1.0920225    1.8115097 
H     5.4382083    0.4500124    1.1538441 
H     5.0459869    2.1672995   -0.6308939 
H     2.8122095    2.3772520   -1.6722292 
H    -1.2645789    2.7067827   -0.3383022 
H     1.6672644    4.6051565   -1.4470888 
H     3.3629908    5.6428660    0.0305970 
H     3.4607980    5.0239823    2.4603494 
H     1.7634241    3.4404161    3.3934308 
H    -1.7413816    1.9030802    3.3667210 
H    -0.1236965    3.6156113    4.6729505 
H    -2.3569349    2.8228354    5.4414395 
H    -2.1808403    4.5875159    5.6499693 
H    -3.1605497    3.9542098    4.2940949 
H    -1.9565599    4.6776345    1.5406878 
H    -1.7036748    6.9309731    0.5577603 
H    -0.4473095    8.7185732    1.7888471 
H     0.5950218    8.1911396    4.0054243 
H     0.3649877    5.9047599    4.9748004 
H    -0.9594657    0.6140846   -3.1541488 
H    -2.5039222    4.1507803   -4.4618227 
H    -1.2724756    4.5501404   -5.6699676 
H    -1.3423239    6.2015763   -3.6214814 
H     0.2509557    5.4457959   -3.8986507 
H     2.4861506    2.0175078   -3.6888443 
H     4.2582583    0.8575345   -4.9896391 
H     3.7941498   -1.4081852   -5.9817430 
H     1.5414208   -2.4278145   -5.7124592 
H    -1.4267029    0.2318237   -5.2433420 
H    -3.1031033   -2.1114753   -4.4560668 
H    -2.8656265   -1.1667465   -7.3805929 
H    -4.0214036   -2.3910140   -6.7741049 
H    -2.2575866   -2.7125064   -6.6966495 
H    -5.1540428   -1.4533604   -3.5526278 
H    -6.9346812    0.2489352   -3.1863394 
H    -6.8486665    2.4354349   -4.3986268 
H    -4.9744346    2.8939342   -5.9952176 
H    -3.1987351    1.2054339   -6.3581840 
