197
Energy =
C     2.6691912   -0.6381307    1.6084657 
C     1.6139567   -0.4288423    2.5413139 
C     0.5343890   -1.3490848    2.6026776 
H     1.5530283    0.5134425    3.1010649 
Pd    0.7550873   -0.4487898    0.5396985 
P    -1.3639163   -0.1685255   -0.3487802 
P     1.5002198    0.3692741   -1.5019425 
H     2.8706810   -1.6742918    1.3009135 
H     0.7283793   -2.3773484    2.2596907 
C     5.9499491    2.0892916    1.0395476 
C     4.6854596    2.5890922    1.3943011 
C     3.6072822    1.7171934    1.5756364 
C     3.7684107    0.3219890    1.3900738 
C     5.0365045   -0.1633183    1.0006321 
C     6.1211360    0.7103858    0.8490351 
H     6.7923153    2.7759387    0.9070561 
H     4.5413900    3.6660549    1.5191793 
H     2.6224016    2.1175038    1.8440807 
H     5.1751424   -1.2373414    0.8358874 
H     7.1043317    0.3063848    0.5845893 
C    -2.8144613   -0.9480889    5.2771133 
C    -2.2038779    0.2019314    4.7500486 
C    -1.1098022    0.0875092    3.8853804 
C    -0.6199555   -1.1850040    3.5078148 
C    -1.2387383   -2.3321124    4.0489947 
C    -2.3187542   -2.2144635    4.9336018 
H    -3.6694852   -0.8474945    5.9535660 
H    -2.5973178    1.1890085    5.0064123 
H    -0.6462282    0.9958146    3.4856718 
H    -0.8643714   -3.3223657    3.7697512 
H    -2.7788692   -3.1167897    5.3512782 
C    -5.3373519    2.3893896    5.3607878 
C    -5.6312139    1.6856958    6.5383171 
C    -4.8703108    1.8935788    7.6978493 
C    -3.8203272    2.8240968    7.6787908 
C    -3.5364646    3.5348326    6.5048317 
C    -4.2806833    3.3162101    5.3270100 
C    -3.9402493    4.0806983    4.0463671 
C    -4.2264303    5.5853046    4.2076462 
N    -2.5206311    3.8256435    3.7111741 
C    -1.9232860    3.4048842    2.5699940 
O    -0.7228882    3.0444307    2.6032075 
C    -2.6509913    3.5130358    1.2534431 
C    -3.0581877    4.8058078    0.8686433 
C    -3.6279926    5.0469610   -0.3867043 
C    -3.8245113    3.9756737   -1.2677013 
C    -3.4270275    2.6868627   -0.8914461 
C    -2.8062406    2.4309828    0.3436687 
C    -2.4731427    0.9978770    0.7281033 
C    -2.7404498   -1.4818092   -0.4732526 
N    -3.9431532   -0.7536579   -0.1112702 
N    -3.7187777    0.2027045    0.8948886 
C    -5.1402140   -0.8253779   -0.8182129 
O    -5.2439560   -1.5150955   -1.8244228 
C    -6.2616509   -0.0446824   -0.1429836 
C    -6.0758645   -0.0626169    1.3866237 
C    -4.7437887    0.5937228    1.7270699 
O    -4.5725536    1.4663001    2.5742214 
C    -2.5039279   -2.7471756    0.3306744 
C    -1.6003916   -3.7233367   -0.1591597 
C    -1.4078286   -4.9217066    0.5511931 
C    -2.1357574   -5.1796771    1.7199111 
C    -3.0575974   -4.2330129    2.1831205 
C    -3.2236891   -3.0183575    1.5029166 
C    -0.9103162   -3.4875529   -1.4687288 
O    -0.4354651   -2.3848285   -1.7886089 
N    -0.8856481   -4.5521331   -2.3158671 
C    -0.3450862   -4.4510521   -3.6770051 
C    -1.3903442   -3.8633858   -4.6397872 
C     0.2535430   -5.7947480   -4.0840980 
C     0.8866262   -6.6006754   -3.1140017 
C     1.5032399   -7.8076083   -3.4695740 
C     1.5025299   -8.2341372   -4.8064860 
C     0.8740054   -7.4435214   -5.7785941 
C     0.2522323   -6.2372393   -5.4201098 
C    -1.2122814    0.2853389   -2.1437678 
C    -2.3144575    0.2917931   -3.0154476 
C    -2.1425277    0.4889907   -4.3937951 
C    -0.8587613    0.6672225   -4.9192802 
C     0.2507114    0.6314370   -4.0640003 
C     0.0917282    0.4356448   -2.6835868 
C     3.0177364   -0.5861876   -2.1465152 
C     2.9004741   -1.6762089   -3.1924570 
C     2.8847901   -1.3566833   -4.5593637 
C     2.9007102   -2.3545215   -5.5433420 
C     2.9821629   -3.7020110   -5.1699169 
C     3.0508313   -4.0346360   -3.8109763 
C     2.9879092   -3.0401865   -2.8179649 
C     3.0612008   -3.4270541   -1.3691140 
O     2.3169055   -2.9440165   -0.5018755 
N     4.0091091   -4.3561903   -1.0509895 
C     4.2206902   -4.7531477    0.3487139 
C     5.5685598   -5.4784684    0.4744549 
C     3.0595537   -5.5980930    0.8679077 
C     2.4199551   -5.2692214    2.0751319 
C     1.3950211   -6.0796282    2.5846042 
C     0.9925037   -7.2275898    1.8854019 
C     1.6129603   -7.5535115    0.6687643 
C     2.6410784   -6.7432212    0.1664333 
C     2.4075654    2.0405283   -1.6680931 
N     3.7616897    1.7452715   -2.1172330 
N     4.0432817    0.4039029   -2.5386894 
C     4.6829286    2.7685604   -2.2401715 
O     4.4365646    3.8894340   -1.8011411 
C     5.9289327    2.3823542   -3.0150554 
C     6.4487430    0.9997226   -2.6135199 
C     5.3668424   -0.0583139   -2.4933456 
O     5.5994655   -1.2573762   -2.3856013 
C     1.6930076    3.0427192   -2.5630954 
C     2.0552250    3.2619412   -3.9011774 
C     1.3336333    4.1626792   -4.6959468 
C     0.2380926    4.8574076   -4.1619178 
C    -0.1186251    4.6662090   -2.8200032 
C     0.6116345    3.7696583   -2.0232175 
C     0.2417896    3.4350577   -0.6124669 
O    -0.1177336    2.2612319   -0.3652616 
N     0.3692183    4.3363083    0.3718697 
C     0.8806909    5.7142929    0.2894677 
C     2.3549324    5.7687791    0.7299764 
C    -0.0495065    6.6170602    1.0923905 
C    -0.1786874    6.4582004    2.4866704 
C    -1.0830846    7.2441987    3.2125821 
C    -1.8695825    8.2049261    2.5565084 
C    -1.7418297    8.3763144    1.1701960 
C    -0.8376787    7.5849446    0.4450960 
H    -5.9083812    2.1985744    4.4490123 
H    -6.4561162    0.9648050    6.5465191 
H    -5.0961737    1.3380278    8.6141589 
H    -3.2254662    3.0018200    8.5808874 
H    -2.7215741    4.2706790    6.5174466 
H    -4.5336022    3.6708541    3.2168385 
H    -3.6144727    6.0217689    5.0159354 
H    -5.2878896    5.7315717    4.4687144 
H    -4.0110504    6.1353269    3.2779406 
H    -1.8742945    3.7980354    4.5036575 
H    -2.8898590    5.6399611    1.5555740 
H    -3.9159502    6.0653216   -0.6666035 
H    -4.2825111    4.1379296   -2.2490222 
H    -3.5919751    1.8575438   -1.5812473 
H    -1.9432950    0.9879209    1.6918940 
H    -2.8375478   -1.7439261   -1.5370370 
H    -6.2448642    0.9975089   -0.5164088 
H    -7.2138547   -0.4957406   -0.4598644 
H    -6.8662077    0.4935371    1.9116652 
H    -6.0876617   -1.1050627    1.7579294 
H    -0.6740300   -5.6516123    0.1941592 
H    -1.9799426   -6.1167772    2.2632917 
H    -3.6379990   -4.4255747    3.0906055 
H    -3.9255430   -2.2746782    1.8882150 
H    -1.4361686   -5.3764606   -2.0769321 
H     0.4757590   -3.7161903   -3.5970700 
H    -0.9391883   -3.6470272   -5.6225966 
H    -2.2414333   -4.5512018   -4.7848014 
H    -1.7594282   -2.9100828   -4.2273145 
H     0.9103224   -6.2694987   -2.0704828 
H     1.9859744   -8.4188720   -2.6986580 
H     1.9821036   -9.1776339   -5.0870939 
H     0.8597510   -7.7685363   -6.8244122 
H    -0.2330246   -5.6394067   -6.1969384 
H    -3.3264605    0.1065428   -2.6419635 
H    -3.0176916    0.4904932   -5.0514525 
H    -0.7133073    0.8234972   -5.9928152 
H     1.2478672    0.7615279   -4.4826802 
H     3.3583145   -1.0509887   -1.2064760 
H     2.9182323   -0.3051031   -4.8588343 
H     2.8743277   -2.0747465   -6.6016592 
H     2.9980641   -4.4934919   -5.9253217 
H     3.1172206   -5.0855795   -3.5150195 
H     4.7301194   -4.5667837   -1.7397256 
H     4.2519964   -3.8266009    0.9528347 
H     6.3947012   -4.8292999    0.1335617 
H     5.7493332   -5.7513816    1.5261893 
H     5.5746034   -6.4076865   -0.1225253 
H     2.7265053   -4.3679751    2.6188910 
H     0.9067703   -5.8111667    3.5278237 
H     0.1962853   -7.8653857    2.2841767 
H     1.2997493   -8.4447554    0.1137763 
H     3.1245486   -6.9987805   -0.7833915 
H     2.4721995    2.4396137   -0.6413189 
H     6.6818036    3.1690766   -2.8622061 
H     5.6524291    2.3884614   -4.0879387 
H     6.9405751    1.0461640   -1.6271947 
H     7.2007561    0.6168856   -3.3227774 
H     2.9096203    2.7240185   -4.3251893 
H     1.6286068    4.3224231   -5.7381472 
H    -0.3313124    5.5525716   -4.7872223 
H    -0.9726156    5.1977921   -2.3865242 
H     0.1024633    3.9408895    1.2977758 
H     0.8297809    6.0172503   -0.7677679 
H     2.4728032    5.3909111    1.7610183 
H     2.7222149    6.8083948    0.6997381 
H     2.9707483    5.1552173    0.0496229 
H     0.4162419    5.7012869    3.0100017 
H    -1.1764481    7.1065429    4.2949055 
H    -2.5758660    8.8187801    3.1251466 
H    -2.3472909    9.1271660    0.6513705 
H    -0.7476326    7.7153254   -0.6396760 
