197
Energy =
C     1.8783253    0.9785490    3.4098053 
C     0.8697505    0.0750429    3.8750176 
C     0.9586845   -1.3068192    3.6096637 
H    -0.0587668    0.4762519    4.2993383 
Pd    0.9313540    0.0028953    1.7021605 
P    -0.3318760   -1.0179894    0.0103906 
P     1.6809179    1.4253676    0.0234895 
H     2.9121970    0.6066197    3.3428145 
H     1.9552920   -1.7203684    3.3930085 
C     1.4658804    5.2451111    3.8218615 
C     2.7317063    4.6454844    3.8851533 
C     2.8583089    3.2552676    3.7616721 
C     1.7249669    2.4409575    3.5573156 
C     0.4527465    3.0559362    3.4920764 
C     0.3293624    4.4403858    3.6382315 
H     1.3679993    6.3319602    3.9048708 
H     3.6216118    5.2667630    4.0305383 
H     3.8411608    2.7784519    3.8410978 
H    -0.4262276    2.4407212    3.2744833 
H    -0.6633946    4.8972774    3.5867415 
C    -1.9211309   -4.1949807    4.9730016 
C    -2.3603404   -2.9479519    4.4986251 
C    -1.4354443   -1.9958814    4.0568189 
C    -0.0516380   -2.2863388    4.0522014 
C     0.3774218   -3.5483459    4.5205598 
C    -0.5487931   -4.4870620    4.9932003 
H    -2.6464096   -4.9367044    5.3234754 
H    -3.4295285   -2.7223034    4.4527674 
H    -1.7806779   -1.0266425    3.6843850 
H     1.4469852   -3.7867492    4.5208936 
H    -0.1987041   -5.4537790    5.3713582 
C    -5.6156181    0.3527480    2.6848453 
C    -6.5255558   -0.6368342    2.2883305 
C    -7.6822976   -0.2829041    1.5776964 
C    -7.9201364    1.0625414    1.2592959 
C    -6.9968582    2.0468459    1.6383831 
C    -5.8357167    1.7022461    2.3528933 
C    -4.8621480    2.8048970    2.7565364 
C    -5.1270291    3.2904127    4.1916343 
N    -3.4280714    2.3969908    2.6810861 
C    -2.8325406    1.4021107    1.9104494 
O    -1.8964445    0.7646189    2.4178577 
C    -3.3212149    1.1628350    0.5188536 
C    -4.0676547    2.1546462   -0.1514296 
C    -4.6212190    1.9316618   -1.4128861 
C    -4.4734952    0.6750350   -2.0136215 
C    -3.7168635   -0.3109273   -1.3729035 
C    -3.0930213   -0.0792807   -0.1333798 
C    -2.1976217   -1.1575331    0.4456571 
C    -0.3104780   -2.7348265   -0.8390696 
N    -1.7634392   -3.0254360   -1.0084548 
N    -2.5580196   -2.5101977    0.0374305 
C    -2.2219692   -4.0847720   -1.7748582 
O    -1.4986492   -4.6287872   -2.6045313 
C    -3.6260479   -4.5381466   -1.4006362 
C    -3.7184176   -4.6414773    0.1333403 
C    -3.4688528   -3.2753114    0.7560444 
O    -4.0453525   -2.8141746    1.7343981 
C     0.3769675   -3.9142181   -0.1916480 
C     1.1387163   -4.8027966   -0.9941143 
C     1.6029250   -6.0111407   -0.4401511 
C     1.3395034   -6.3354595    0.8963993 
C     0.5930434   -5.4548928    1.6900191 
C     0.1096748   -4.2562047    1.1450269 
C     1.5662887   -4.4686249   -2.4079032 
O     2.2273553   -3.4552572   -2.6729687 
N     1.2597501   -5.4113238   -3.3394992 
C     1.6500768   -5.2904567   -4.7601975 
C     3.1563586   -5.5402550   -4.9227150 
C     1.1335619   -3.9932248   -5.3977765 
C    -0.2579301   -3.7947846   -5.4946450 
C    -0.7773929   -2.6594059   -6.1296636 
C     0.0880429   -1.6965359   -6.6728693 
C     1.4735089   -1.8703445   -6.5554787 
C     1.9901968   -3.0115446   -5.9246036 
C    -0.1474413    0.0012458   -1.5228012 
C    -0.8284849   -0.3325378   -2.7074227 
C    -0.5571882    0.3377731   -3.9056014 
C     0.4418625    1.3157909   -3.9443409 
C     1.1440976    1.6408660   -2.7783283 
C     0.8402222    1.0153475   -1.5561024 
C     3.5613251    1.1629389   -0.1998240 
C     4.0049925    0.7871297   -1.5962195 
C     4.4859122    1.7312251   -2.5168309 
C     4.8076874    1.3471417   -3.8269704 
C     4.6519436    0.0119160   -4.2288170 
C     4.2178404   -0.9500536   -3.3055740 
C     3.9047482   -0.5677281   -1.9915068 
C     3.4632783   -1.5677450   -0.9615135 
O     2.3599951   -1.4710478   -0.3939275 
N     4.3729144   -2.5063278   -0.6142150 
C     4.1093735   -3.4856817    0.4475028 
C     4.5612868   -2.9258125    1.8086846 
C     4.6874900   -4.8468885    0.0715177 
C     4.7797285   -5.2267387   -1.2829299 
C     5.2356179   -6.5021272   -1.6438886 
C     5.6002285   -7.4280246   -0.6553697 
C     5.5126465   -7.0609389    0.6952698 
C     5.0659550   -5.7808248    1.0547557 
C     1.9104093    3.3317105    0.1496326 
N     3.3649469    3.5445224    0.2038652 
N     4.1555881    2.3698255    0.3512767 
C     3.8823131    4.7818351    0.5624588 
O     3.1537054    5.7598724    0.6867662 
C     5.3868607    4.7574972    0.7721491 
C     5.7655712    3.6167455    1.7279326 
C     5.1930328    2.2778182    1.2821215 
O     5.6369127    1.1867055    1.6219951 
C     1.2644140    4.1299906   -0.9738895 
C     2.0275339    4.6842693   -2.0170337 
C     1.4181008    5.3147986   -3.1076783 
C     0.0202627    5.3899211   -3.1869819 
C    -0.7516034    4.8890642   -2.1332651 
C    -0.1404778    4.2940433   -1.0134691 
C    -0.9389224    3.7279958    0.1166242 
O    -0.7107561    2.5649228    0.5023832 
N    -1.8866470    4.4822942    0.7319746 
C    -2.2090943    5.9198643    0.5675960 
C    -1.2006651    6.8220190    1.2936645 
C    -3.6715248    6.0840774    0.9784069 
C    -4.0524848    6.4581121    2.2798983 
C    -5.4088584    6.5200493    2.6386690 
C    -6.4029406    6.2025921    1.7026063 
C    -6.0349510    5.8305642    0.3991707 
C    -4.6809206    5.7735427    0.0438224 
H    -4.7126599    0.0553863    3.2296559 
H    -6.3103033   -1.6846787    2.5172175 
H    -8.3937671   -1.0550625    1.2659896 
H    -8.8187398    1.3449087    0.7001570 
H    -7.1670690    3.0949887    1.3646874 
H    -5.0200148    3.6668555    2.0841306 
H    -5.0160209    2.4599528    4.9114521 
H    -6.1562724    3.6746282    4.2659198 
H    -4.4342895    4.1071229    4.4629361 
H    -2.9696708    2.3990513    3.5963172 
H    -4.2145427    3.1277049    0.3190581 
H    -5.1906429    2.7250841   -1.9074484 
H    -4.9381007    0.4625760   -2.9819796 
H    -3.6018504   -1.2908049   -1.8442714 
H    -2.2280522   -1.1281019    1.5420262 
H     0.1247394   -2.5559174   -1.8312193 
H    -4.3699675   -3.8090779   -1.7754549 
H    -3.8068294   -5.4998714   -1.9024314 
H    -4.7055479   -4.9872002    0.4742264 
H    -2.9603494   -5.3509427    0.5174439 
H     2.2055920   -6.6832241   -1.0584244 
H     1.7264073   -7.2695196    1.3157718 
H     0.3771763   -5.6958652    2.7337879 
H    -0.4860217   -3.5825963    1.7706279 
H     0.5101362   -6.0576753   -3.0992615 
H     1.1171492   -6.1182282   -5.2599721 
H     3.4377639   -5.5401987   -5.9889192 
H     3.7413783   -4.7664452   -4.4005164 
H     3.4151053   -6.5210409   -4.4915473 
H    -0.9399831   -4.5338713   -5.0619254 
H    -1.8629662   -2.5321234   -6.2112602 
H    -0.3152834   -0.8163943   -7.1860431 
H     2.1590392   -1.1183183   -6.9612910 
H     3.0744871   -3.1304874   -5.8479155 
H    -1.5567581   -1.1460865   -2.7096114 
H    -1.1025523    0.0630686   -4.8116698 
H     0.6925431    1.8189428   -4.8834407 
H     1.9382902    2.3831633   -2.8311685 
H     3.8343879    0.3594199    0.5005020 
H     4.6055759    2.7727634   -2.2018044 
H     5.1752441    2.0952617   -4.5372066 
H     4.8790506   -0.2830741   -5.2585667 
H     4.0819693   -1.9952448   -3.5970571 
H     5.3003874   -2.4697966   -1.0357927 
H     3.0086383   -3.5767860    0.4685484 
H     4.1436516   -1.9135622    1.9389434 
H     4.1940236   -3.5549768    2.6369752 
H     5.6607242   -2.8612055    1.8760747 
H     4.4619841   -4.5221535   -2.0571020 
H     5.3015354   -6.7729664   -2.7030422 
H     5.9557341   -8.4254271   -0.9345738 
H     5.8004269   -7.7722868    1.4769187 
H     5.0065353   -5.5188786    2.1151756 
H     1.4658052    3.6046767    1.1234826 
H     5.6910240    5.7417191    1.1559143 
H     5.8764325    4.6015044   -0.2083465 
H     5.4048714    3.8287545    2.7491657 
H     6.8568240    3.4838961    1.8013798 
H     3.1162411    4.6022803   -1.9823988 
H     2.0389635    5.7333460   -3.9063561 
H    -0.4643942    5.8446452   -4.0566289 
H    -1.8440436    4.9317688   -2.1890008 
H    -2.3471098    3.9958614    1.5130358 
H    -2.1439928    6.1502718   -0.5058813 
H    -1.2133149    6.6615077    2.3835329 
H    -1.4309417    7.8825379    1.0962778 
H    -0.1802076    6.6059628    0.9338454 
H    -3.2907286    6.7113535    3.0241522 
H    -5.6876434    6.8177416    3.6548034 
H    -7.4600490    6.2519828    1.9834036 
H    -6.8043444    5.5904872   -0.3422403 
H    -4.3983037    5.4837267   -0.9752011 
