197
Energy =
C    -2.6767625   -2.6300414   -0.9152737 
C    -3.2851469   -1.3766847   -1.1489759 
C    -2.6900462   -0.4694198   -2.0828596 
H    -4.1137719   -1.0390694   -0.5135349 
Pd   -1.2705572   -0.8859435   -0.4784477 
P     0.2138421    0.8484541   -0.8792526 
P     0.2222508   -1.3998950    1.2674443 
H    -1.9573685   -2.9816935   -1.6708544 
H    -2.1731509   -0.9259518   -2.9375538 
C    -4.0651992   -5.6936948    1.7690880 
C    -4.8890873   -4.5909572    1.4889952 
C    -4.4524178   -3.5835762    0.6212898 
C    -3.1798924   -3.6613751    0.0077347 
C    -2.3784193   -4.7944362    0.2750515 
C    -2.8078108   -5.7951455    1.1540504 
H    -4.4100706   -6.4779452    2.4510368 
H    -5.8825709   -4.5202707    1.9449557 
H    -5.1142195   -2.7392639    0.4040802 
H    -1.4046380   -4.8886002   -0.2157737 
H    -2.1500472   -6.6430018    1.3638630 
C    -4.2218120    3.4935580   -2.7889383 
C    -4.2847946    2.9429368   -1.4986665 
C    -3.7672754    1.6682603   -1.2458116 
C    -3.1836561    0.9083460   -2.2881850 
C    -3.0998149    1.4875095   -3.5739323 
C    -3.6205332    2.7641274   -3.8238184 
H    -4.6144469    4.4970502   -2.9767699 
H    -4.7272959    3.5220039   -0.6816803 
H    -3.7889391    1.2615704   -0.2282486 
H    -2.6427300    0.9097521   -4.3844555 
H    -3.5624451    3.1878638   -4.8326005 
C     3.3940412   -5.5100879   -4.2759022 
C     3.7665821   -5.4642087   -5.6280794 
C     2.7855976   -5.3371607   -6.6219548 
C     1.4315248   -5.2744595   -6.2574082 
C     1.0610940   -5.3264969   -4.9069707 
C     2.0411009   -5.4333866   -3.8997859 
C     1.6577691   -5.3446982   -2.4254638 
C     0.5873490   -6.3522899   -1.9733791 
N     1.2130098   -3.9638225   -2.1622703 
C     1.6801523   -3.0897569   -1.2544190 
O     1.2141937   -1.9308785   -1.1777778 
C     2.7093549   -3.4847947   -0.2365819 
C     4.0557500   -3.7153443   -0.5614038 
C     4.9897044   -3.9652099    0.4544649 
C     4.5729595   -3.9949992    1.7930884 
C     3.2299211   -3.7566967    2.1190147 
C     2.2905890   -3.4851914    1.1134832 
C     0.8279692   -3.2107517    1.4128418 
C    -0.1323298   -1.2709234    3.1310474 
N     0.3632460   -2.5542466    3.6776632 
N     0.3891839   -3.6102715    2.7405058 
C     0.4862167   -2.7799264    5.0367095 
O     0.3921372   -1.8567310    5.8419760 
C     0.6568626   -4.2509298    5.3975681 
C    -0.2687100   -5.1178711    4.5236872 
C     0.0697204   -4.9218178    3.0538812 
O     0.1302171   -5.8024028    2.2017472 
C    -1.5637117   -1.0029834    3.5481538 
C    -1.8398918   -0.0693959    4.5781113 
C    -3.1673928    0.0994220    5.0217799 
C    -4.2155769   -0.6364899    4.4541677 
C    -3.9364918   -1.5736969    3.4496763 
C    -2.6190520   -1.7577127    3.0087681 
C    -0.7536538    0.7821342    5.1832824 
O     0.0944371    1.3741132    4.5002892 
N    -0.7972176    0.9191413    6.5394615 
C     0.2585560    1.6850543    7.2167547 
C     0.3332385    1.2605386    8.6901984 
C     0.0234074    3.1851102    7.0514488 
C    -1.2256157    3.7537025    7.3650459 
C    -1.4262148    5.1375058    7.2684332 
C    -0.3778449    5.9724748    6.8495046 
C     0.8642414    5.4124852    6.5144882 
C     1.0612159    4.0270286    6.6152768 
C     1.7043010   -0.3162072    1.1498441 
C     2.7734635   -0.4184414    2.0549372 
C     3.8746720    0.4419601    1.9478265 
C     3.9048608    1.4192228    0.9448382 
C     2.8290348    1.5427876    0.0557560 
C     1.7240427    0.6797234    0.1482789 
C    -0.2632780    2.6896841   -0.7671597 
C     0.4350303    3.4692931    0.3423457 
C     1.4388262    4.4016271    0.0336959 
C     2.1509955    5.0630564    1.0425857 
C     1.8774084    4.7860628    2.3883973 
C     0.8462708    3.8992386    2.7154024 
C     0.1041881    3.2642729    1.7047507 
C    -1.0254528    2.3422841    2.0376581 
O    -1.0728719    1.2070618    1.5149878 
N    -2.0397187    2.7652896    2.8314383 
C    -2.1893630    4.0185134    3.5959667 
C    -3.5627325    3.9856982    4.2887998 
C    -2.0488180    5.2695284    2.7336472 
C    -1.5274627    6.4388107    3.3159375 
C    -1.4357505    7.6247840    2.5757963 
C    -1.8565402    7.6514834    1.2375325 
C    -2.3680870    6.4873615    0.6462898 
C    -2.4682076    5.3046646    1.3929850 
C     0.6896594    1.0183029   -2.7346232 
N     0.9162555    2.4730135   -2.8983759 
N    -0.0055289    3.2170991   -2.1084512 
C     1.4731287    3.0668005   -4.0273154 
O     2.0682274    2.4191213   -4.8829216 
C     1.1820058    4.5548397   -4.1431798 
C    -0.3325184    4.7569731   -3.9759032 
C    -0.7551250    4.2821283   -2.5970295 
O    -1.6110031    4.8085750   -1.8989270 
C     1.7839848    0.1039541   -3.2407580 
C     3.1384627    0.3533335   -2.9576809 
C     4.1415436   -0.5325883   -3.3598987 
C     3.8083627   -1.6953818   -4.0688825 
C     2.4697546   -1.9521395   -4.3780699 
C     1.4565627   -1.0648581   -3.9707127 
C     0.0487495   -1.4548840   -4.3458190 
O    -0.5321530   -2.4271855   -3.8256794 
N    -0.5598698   -0.7114061   -5.3140592 
C     0.1520136    0.1963302   -6.2457824 
C    -0.8735041    1.0358625   -7.0185483 
C     1.1036601   -0.5694248   -7.1619614 
C     0.6805543   -1.7062374   -7.8752052 
C     1.5760277   -2.4017954   -8.6987745 
C     2.9060016   -1.9684597   -8.8149299 
C     3.3337026   -0.8361874   -8.1060367 
C     2.4375086   -0.1395361   -7.2825669 
H     4.1651325   -5.5951884   -3.5010786 
H     4.8248050   -5.5212930   -5.9045634 
H     3.0735357   -5.2826560   -7.6765674 
H     0.6612953   -5.1720299   -7.0287542 
H     0.0022124   -5.2462562   -4.6382685 
H     2.5622146   -5.5124574   -1.8201261 
H     0.9022450   -7.3796158   -2.2216513 
H    -0.3807508   -6.1587712   -2.4668188 
H     0.4462336   -6.2817213   -0.8808598 
H     0.5189289   -3.5321752   -2.8083335 
H     4.3683875   -3.6811483   -1.6103267 
H     6.0400107   -4.1411918    0.2009081 
H     5.2954770   -4.2046549    2.5884468 
H     2.9068371   -3.7851120    3.1644871 
H     0.2068788   -3.7697837    0.6954398 
H     0.5086081   -0.4634247    3.5099934 
H     1.7125376   -4.5474471    5.2435113 
H     0.4375941   -4.3514883    6.4707661 
H    -0.1741305   -6.1905247    4.7474751 
H    -1.3259570   -4.8295175    4.6822593 
H    -3.3745185    0.8267466    5.8141937 
H    -5.2431110   -0.4839274    4.8002704 
H    -4.7405114   -2.1684676    3.0082267 
H    -2.4119550   -2.4993812    2.2294645 
H    -1.2981096    0.2071400    7.0692483 
H     1.2114889    1.4358453    6.7154700 
H     0.5427678    0.1787919    8.7658961 
H     1.1405108    1.8111079    9.1989061 
H    -0.6120481    1.4831272    9.2168570 
H    -2.0480547    3.1035490    7.6851771 
H    -2.4011075    5.5672762    7.5227956 
H    -0.5301919    7.0549243    6.7830106 
H     1.6821912    6.0566289    6.1739240 
H     2.0295851    3.5894958    6.3467671 
H     2.7493534   -1.1664305    2.8523998 
H     4.7048853    0.3506455    2.6554050 
H     4.7567199    2.1015202    0.8621344 
H     2.8441459    2.3305523   -0.6997374 
H    -1.3570328    2.7053106   -0.6203791 
H     1.6724080    4.6030876   -1.0158108 
H     2.9275658    5.7862397    0.7726992 
H     2.4482189    5.2746123    3.1845584 
H     0.6217016    3.6733657    3.7606520 
H    -2.7148503    2.0228064    3.0280985 
H    -1.4194924    4.0465797    4.3889241 
H    -3.6461774    3.1086713    4.9548637 
H    -3.6861517    4.8939860    4.8984474 
H    -4.3754536    3.9546054    3.5421947 
H    -1.1799609    6.4098802    4.3541126 
H    -1.0241954    8.5267473    3.0419986 
H    -1.7751641    8.5745683    0.6534618 
H    -2.6660663    6.4826316   -0.4052424 
H    -2.8486124    4.3960070    0.9145804 
H    -0.2659405    0.7707420   -3.2356744 
H     1.5499359    4.8811940   -5.1262359 
H     1.7276335    5.1177768   -3.3625689 
H    -0.8881535    4.1795780   -4.7398493 
H    -0.6354194    5.8104553   -4.0700908 
H     3.4148280    1.2710373   -2.4373549 
H     5.1870916   -0.3055847   -3.1277578 
H     4.5832727   -2.3923663   -4.4030748 
H     2.2026399   -2.8368166   -4.9620015 
H    -1.4618110   -1.0891048   -5.6156822 
H     0.7674662    0.8736664   -5.6344089 
H    -1.5347749    0.3986466   -7.6336642 
H    -0.3451756    1.7242242   -7.6969215 
H    -1.4967088    1.6323378   -6.3286903 
H    -0.3525306   -2.0620578   -7.7799492 
H     1.2362387   -3.2853669   -9.2501119 
H     3.6069030   -2.5143017   -9.4555977 
H     4.3724155   -0.4982496   -8.1863167 
H     2.7711299    0.7308497   -6.7070803 
