197
Energy =
C     3.6854863    0.2862482    1.4756643 
C     2.7333237    0.7403712    2.4389589 
C     1.8335926   -0.1778646    3.0308520 
H     2.6171714    1.8155524    2.6282767 
Pd    1.6424614   -0.0644303    0.7530251 
P    -0.6018939   -0.3662441    0.1163573 
P     2.0207182   -0.1164928   -1.5485075 
H     4.0233279   -0.7576961    1.5642118 
H     2.1340198   -1.2359661    3.0467093 
C     6.6373588    2.9630504   -0.1488080 
C     6.9696083    1.6398770    0.1754512 
C     5.9851915    0.7591937    0.6450391 
C     4.6587922    1.2019307    0.8427573 
C     4.3327422    2.5381898    0.5081424 
C     5.3139819    3.4037615    0.0116170 
H     7.4020882    3.6485688   -0.5273289 
H     8.0029507    1.2914307    0.0706880 
H     6.2484338   -0.2770427    0.8834715 
H     3.3017328    2.8911277    0.6312839 
H     5.0497092    4.4310271   -0.2521788 
C    -1.0582662    0.8782388    6.0359728 
C    -0.7959293    1.7662346    4.9804415 
C     0.1480282    1.4407816    4.0000203 
C     0.8309535    0.2041296    4.0430381 
C     0.5664135   -0.6764716    5.1157164 
C    -0.3626895   -0.3381173    6.1082531 
H    -1.8000490    1.1419359    6.7968279 
H    -1.3442032    2.7092023    4.9185665 
H     0.3536979    2.1429549    3.1853337 
H     1.1010298   -1.6313302    5.1690238 
H    -0.5463438   -1.0281355    6.9392704 
C    -2.3194562    5.4675016    5.4143291 
C    -2.3901761    5.3342308    6.8075921 
C    -3.2523871    4.3855186    7.3780685 
C    -4.0393972    3.5766099    6.5456869 
C    -3.9587383    3.7020167    5.1504329 
C    -3.0925047    4.6447839    4.5685132 
C    -2.9835821    4.7841726    3.0500522 
C    -3.4872744    6.1639904    2.5860899 
N    -1.5701775    4.5441758    2.6662506 
C    -1.0310827    3.8746292    1.6200991 
O     0.2028418    3.6634896    1.5866021 
C    -1.9135116    3.5075695    0.4503310 
C    -2.3619620    4.5882894   -0.3354624 
C    -3.1215639    4.3828690   -1.4923219 
C    -3.4814418    3.0781020   -1.8517874 
C    -3.0411786    2.0008131   -1.0752252 
C    -2.2183646    2.1804787    0.0514920 
C    -1.7894745    0.9597715    0.8525126 
C    -1.8003736   -1.8050940    0.4827803 
N    -3.0853460   -1.0862908    0.6407725 
N    -2.9467771    0.1568917    1.2888379 
C    -4.3111666   -1.7303981    0.5714799 
O    -4.3991352   -2.8700754    0.1250452 
C    -5.4529434   -0.9227776    1.1699085 
C    -4.9905494   -0.3265126    2.5117923 
C    -3.8006507    0.5921934    2.2791039 
O    -3.6072466    1.6708314    2.8357665 
C    -1.5793499   -2.7720709    1.6223754 
C    -1.7659166   -4.1597478    1.3930360 
C    -1.7392736   -5.0527771    2.4812953 
C    -1.5279001   -4.5855912    3.7845900 
C    -1.3534849   -3.2139664    4.0114385 
C    -1.3808089   -2.3144471    2.9356700 
C    -1.9168834   -4.7411213    0.0014693 
O    -1.0555926   -4.5847122   -0.8746772 
N    -3.0229322   -5.5158979   -0.1665626 
C    -3.3589190   -6.2037123   -1.4330036 
C    -2.3808581   -7.3580231   -1.6966037 
C    -3.5375412   -5.2357295   -2.6094062 
C    -4.7195790   -4.4746770   -2.6896693 
C    -4.9640248   -3.6392728   -3.7878889 
C    -4.0226974   -3.5496776   -4.8248485 
C    -2.8243021   -4.2729141   -4.7356898 
C    -2.5840274   -5.1067352   -3.6348431 
C    -0.7274947   -0.4788074   -1.7301952 
C    -1.9299829   -0.7678510   -2.3990526 
C    -1.9521796   -0.9516594   -3.7872277 
C    -0.7628132   -0.8947368   -4.5203869 
C     0.4484027   -0.6577871   -3.8594031 
C     0.4740023   -0.4418299   -2.4720534 
C     3.2999185   -1.4347251   -2.0494551 
C     2.8145282   -2.5509490   -2.9562798 
C     3.1291813   -2.5777306   -4.3238129 
C     2.6458859   -3.6018417   -5.1509221 
C     1.8452786   -4.6216690   -4.6157795 
C     1.5541703   -4.6277241   -3.2449406 
C     2.0376371   -3.6030863   -2.4133948 
C     1.7061239   -3.5802603   -0.9530080 
O     1.2178257   -2.5608435   -0.4271633 
N     1.9988582   -4.6834276   -0.2279541 
C     1.7187575   -4.7371325    1.2139595 
C     2.8695006   -4.0914319    2.0049804 
C     1.3417822   -6.1530469    1.6352566 
C     0.6119294   -6.9783186    0.7554237 
C     0.1873367   -8.2540664    1.1505941 
C     0.4750426   -8.7266743    2.4398317 
C     1.1994775   -7.9142562    3.3235851 
C     1.6336374   -6.6418618    2.9228082 
C     2.9406560    1.2692700   -2.4862827 
N     4.1429790    0.6357968   -3.0400848 
N     4.4363889   -0.6788460   -2.5616071 
C     5.1548683    1.4261290   -3.5732102 
O     5.0084544    2.6377915   -3.6889832 
C     6.3862073    0.6343882   -3.9742033 
C     6.8471212   -0.2334159   -2.7959619 
C     5.7286675   -1.0949622   -2.2362185 
O     5.8996634   -2.1227729   -1.5900621 
C     2.1062984    1.9740911   -3.5466709 
C     2.2857716    1.7476182   -4.9211712 
C     1.4596887    2.3679920   -5.8667908 
C     0.4298541    3.2247903   -5.4527350 
C     0.2527271    3.4795684   -4.0871379 
C     1.0940158    2.8723527   -3.1379397 
C     0.8625081    3.0337912   -1.6679876 
O     0.5925468    2.0101465   -0.9979184 
N     0.9751780    4.2291311   -1.0649489 
C     1.3289860    5.5349814   -1.6476425 
C     2.8273314    5.8322177   -1.4650629 
C     0.4105654    6.5874422   -1.0362225 
C    -0.5249545    7.2702307   -1.8332862 
C    -1.4246793    8.1828565   -1.2607838 
C    -1.3996654    8.4209125    0.1213600 
C    -0.4614888    7.7519629    0.9239994 
C     0.4394551    6.8458883    0.3491956 
H    -1.6516448    6.2274901    4.9880833 
H    -1.7770799    5.9766603    7.4484086 
H    -3.3120609    4.2815615    8.4665991 
H    -4.7166746    2.8352572    6.9837155 
H    -4.5404118    3.0409369    4.5032826 
H    -3.5751718    3.9879144    2.5747285 
H    -2.8705296    6.9751083    3.0094807 
H    -4.5250762    6.3078075    2.9305368 
H    -3.4661078    6.2495899    1.4887926 
H    -0.8637513    4.8288404    3.3493990 
H    -2.0865172    5.6051923   -0.0432099 
H    -3.4401455    5.2410154   -2.0927377 
H    -4.1032009    2.8936137   -2.7339126 
H    -3.3484407    0.9900164   -1.3464443 
H    -1.2629632    1.2851362    1.7644042 
H    -1.8422602   -2.3717795   -0.4563481 
H    -5.7361349   -0.1111008    0.4726845 
H    -6.3146362   -1.5969499    1.2799845 
H    -5.7778914    0.2639162    3.0033150 
H    -4.6874543   -1.1327671    3.2072836 
H    -1.8585706   -6.1245378    2.2940203 
H    -1.4961144   -5.2943372    4.6182925 
H    -1.2009415   -2.8363427    5.0259208 
H    -1.2527427   -1.2436137    3.1253806 
H    -3.7802551   -5.3583597    0.4962363 
H    -4.3515257   -6.6456630   -1.2408046 
H    -2.6716130   -7.9052496   -2.6086140 
H    -1.3532100   -6.9827819   -1.8212094 
H    -2.3940110   -8.0559509   -0.8436722 
H    -5.4590780   -4.5393810   -1.8842474 
H    -5.8999404   -3.0723538   -3.8430096 
H    -4.2227587   -2.9186856   -5.6982684 
H    -2.0715394   -4.1918381   -5.5275255 
H    -1.6454770   -5.6636345   -3.5815199 
H    -2.8638272   -0.8807530   -1.8418959 
H    -2.9013460   -1.1694155   -4.2822859 
H    -0.7682586   -1.0542677   -5.6031833 
H     1.3755901   -0.6485957   -4.4318384 
H     3.6379044   -1.8798325   -1.0991168 
H     3.7623142   -1.7862457   -4.7387350 
H     2.8962184   -3.6023208   -6.2169265 
H     1.4555627   -5.4144883   -5.2625139 
H     0.9236027   -5.4093609   -2.8099961 
H     2.5013262   -5.4523991   -0.6697126 
H     0.8264580   -4.0982642    1.3410707 
H     3.0768889   -3.0978981    1.5746410 
H     2.5908843   -3.9500767    3.0628145 
H     3.7885584   -4.7003656    1.9587811 
H     0.3540717   -6.6000055   -0.2378538 
H    -0.3732789   -8.8797946    0.4481700 
H     0.1431759   -9.7226853    2.7511201 
H     1.4365051   -8.2737227    4.3306832 
H     2.1984138   -6.0284105    3.6305930 
H     3.2423212    1.9964254   -1.7088579 
H     7.1589073    1.3490647   -4.2913104 
H     6.1284906   -0.0051709   -4.8404443 
H     7.2114057    0.4054040   -1.9730676 
H     7.6706763   -0.9111112   -3.0707570 
H     3.0791786    1.0720581   -5.2533961 
H     1.6200910    2.1768067   -6.9328051 
H    -0.2286551    3.6956361   -6.1896511 
H    -0.5572265    4.1328277   -3.7445268 
H     0.7956044    4.1578292   -0.0426159 
H     1.1237875    5.4808707   -2.7272496 
H     3.0980669    5.8507914   -0.3950686 
H     3.0761438    6.8142935   -1.9010124 
H     3.4261148    5.0562972   -1.9726160 
H    -0.5570117    7.0777441   -2.9120504 
H    -2.1480288    8.7061470   -1.8951097 
H    -2.1053807    9.1266106    0.5717617 
H    -0.4330711    7.9360815    2.0031702 
H     1.1520737    6.3172100    0.9921421 
