197
Energy =
C    -2.7168354   -2.6329489   -0.7900707 
C    -3.3539771   -1.3811464   -0.9529885 
C    -2.8415232   -0.4650250   -1.9249915 
H    -4.1276450   -1.0578494   -0.2450400 
Pd   -1.2934210   -0.8871535   -0.4375904 
P     0.0954226    0.9121060   -0.8873624 
P     0.3381074   -1.3982778    1.1775272 
H    -2.0588453   -2.9631861   -1.6089455 
H    -2.3852450   -0.9178478   -2.8154012 
C    -3.8647610   -5.7691491    1.9247313 
C    -2.6479509   -5.8334212    1.2280924 
C    -2.2956233   -4.8097177    0.3413892 
C    -3.1356692   -3.6896369    0.1467250 
C    -4.3665702   -3.6485804    0.8427306 
C    -4.7263709   -4.6793825    1.7185094 
H    -4.1495385   -6.5722886    2.6124519 
H    -1.9613875   -6.6718188    1.3760901 
H    -1.3514782   -4.8763194   -0.2082153 
H    -5.0569840   -2.8140507    0.6844583 
H    -5.6893691   -4.6367865    2.2388050 
C    -4.2165012    3.5794831   -2.4777400 
C    -3.7350111    2.8318036   -3.5612550 
C    -3.2853618    1.5187953   -3.3664483 
C    -3.3202075    0.9228567   -2.0860528 
C    -3.8036719    1.6917165   -0.9995283 
C    -4.2457349    3.0036884   -1.1963773 
H    -4.5502650    4.6115370   -2.6207959 
H    -3.7169230    3.2687291   -4.5661864 
H    -2.9117433    0.9338818   -4.2139681 
H    -3.7934873    1.2655716    0.0101936 
H    -4.5957910    3.5937076   -0.3434727 
C     3.2797628   -5.1149627   -4.7296248 
C     3.5643090   -4.9734851   -6.0966925 
C     2.5201336   -4.7983633   -7.0163354 
C     1.1908999   -4.7853291   -6.5649128 
C     0.9087318   -4.9378107   -5.2006220 
C     1.9524664   -5.0912161   -4.2655438 
C     1.6612477   -5.0968394   -2.7669541 
C     0.6417042   -6.1522180   -2.3066096 
N     1.2004948   -3.7454834   -2.4041468 
C     1.7198750   -2.8858962   -1.5123674 
O     1.2343402   -1.7426433   -1.3644338 
C     2.8244880   -3.2904998   -0.5806468 
C     4.1574990   -3.4491291   -0.9903220 
C     5.1551327   -3.7136606   -0.0404821 
C     4.8152446   -3.8290076    1.3152059 
C     3.4841768   -3.6643699    1.7256287 
C     2.4808770   -3.3812364    0.7874765 
C     1.0259656   -3.1880478    1.1737455 
C     0.1341567   -1.3853928    3.0684333 
N     0.6849603   -2.6912418    3.4972054 
N     0.6715263   -3.6836360    2.4935422 
C     0.9222034   -2.9956072    4.8249114 
O     0.8815510   -2.1244563    5.6905455 
C     1.1423860   -4.4822486    5.0799230 
C     0.1758483   -5.3150614    4.2172118 
C     0.4113000   -5.0212470    2.7437899 
O     0.4392391   -5.8473266    1.8368525 
C    -1.2576965   -1.1600534    3.6222944 
C    -1.4485904   -0.2895986    4.7240312 
C    -2.7303827   -0.1689110    5.2980093 
C    -3.8183131   -0.8880077    4.7865785 
C    -3.6228916   -1.7611507    3.7074003 
C    -2.3495197   -1.9001488    3.1390811 
C    -0.3194768    0.5419827    5.2752064 
O     0.4479733    1.1943463    4.5523225 
N    -0.2267006    0.5822701    6.6346805 
C     0.8932959    1.3006830    7.2583192 
C     1.1504371    0.7261364    8.6589359 
C     0.6276805    2.8041533    7.2853460 
C     1.6181364    3.7106061    6.8684348 
C     1.4052071    5.0943815    6.9584536 
C     0.1932323    5.5880172    7.4646246 
C    -0.8109016    4.6904601    7.8616794 
C    -0.5938536    3.3087977    7.7698695 
C     1.7641363   -0.2513387    0.9940800 
C     2.8990975   -0.3466408    1.8154063 
C     3.9748888    0.5343403    1.6395816 
C     3.9140911    1.5225310    0.6495322 
C     2.7720199    1.6398347   -0.1539500 
C     1.6899081    0.7603274    0.0101324 
C    -0.4694847    2.6981392   -0.6103489 
C     0.3504455    3.4444971    0.4402144 
C     1.3223705    4.3848282    0.0602147 
C     2.1454265    5.0032023    1.0096353 
C     2.0243065    4.6691419    2.3647240 
C     1.0346593    3.7668548    2.7678569 
C     0.1778868    3.1781229    1.8214459 
C    -0.9136299    2.2426879    2.2355003 
O    -1.0333806    1.1388306    1.6586065 
N    -1.8344286    2.6249275    3.1562968 
C    -1.8547408    3.7832218    4.0719625 
C    -3.1713332    3.7288487    4.8671850 
C    -1.7127740    5.1278622    3.3659267 
C    -2.2146070    5.3576650    2.0743110 
C    -2.1005731    6.6242065    1.4830442 
C    -1.4958077    7.6777099    2.1833391 
C    -0.9944480    7.4563068    3.4750057 
C    -1.0983513    6.1870827    4.0581506 
C     0.3626525    1.2114995   -2.7553380 
N     0.4193877    2.6959568   -2.9111009 
N    -0.4456499    3.3234370   -1.9393543 
C     0.4650737    3.2097000   -4.2152156 
O     1.0272486    2.5946113   -5.1142596 
C    -0.2788560    4.5042984   -4.4839884 
C    -0.4875450    5.3925157   -3.2632134 
C    -0.9560312    4.6084520   -2.0576571 
O    -1.6705467    5.0672363   -1.1725803 
C     1.4707315    0.4227067   -3.4188611 
C     2.8177102    0.8021317   -3.2892019 
C     3.8497190    0.0186112   -3.8140545 
C     3.5500954   -1.1692455   -4.4957082 
C     2.2137124   -1.5445395   -4.6705096 
C     1.1723669   -0.7585910   -4.1437867 
C    -0.2309962   -1.2571365   -4.4028215 
O    -0.7320664   -2.2113302   -3.7752828 
N    -0.9382558   -0.6335475   -5.3861279 
C    -0.3541468    0.1884456   -6.4725485 
C    -1.4026639    1.1827029   -6.9864531 
C     0.2270170   -0.6973189   -7.5722605 
C     1.5954811   -0.6119112   -7.8862971 
C     2.1494633   -1.4208200   -8.8895989 
C     1.3399490   -2.3256102   -9.5911587 
C    -0.0267844   -2.4201436   -9.2836260 
C    -0.5775229   -1.6112642   -8.2803671 
H     4.0999472   -5.2344912   -4.0117971 
H     4.6036471   -4.9932707   -6.4419387 
H     2.7367435   -4.6667142   -8.0809127 
H     0.3747365   -4.6370483   -7.2789649 
H    -0.1320961   -4.8965503   -4.8609362 
H     2.6056940   -5.2716260   -2.2274533 
H     0.9634834   -7.1579485   -2.6246298 
H    -0.3571053   -5.9580139   -2.7347897 
H     0.5614987   -6.1388457   -1.2057331 
H     0.4336971   -3.3122400   -2.9605731 
H     4.4092619   -3.3499269   -2.0515521 
H     6.1955727   -3.8343911   -0.3588676 
H     5.5888467   -4.0488517    2.0580670 
H     3.2217953   -3.7596716    2.7840476 
H     0.3924132   -3.7289567    0.4536784 
H     0.7975904   -0.5924604    3.4390773 
H     2.1905382   -4.7451625    4.8384856 
H     0.9981822   -4.6529675    6.1570047 
H     0.3055205   -6.3968632    4.3669428 
H    -0.8734743   -5.0604016    4.4624283 
H    -2.8703658    0.5067618    6.1486534 
H    -4.8109945   -0.7726279    5.2339565 
H    -4.4579396   -2.3415635    3.3064118 
H    -2.2056327   -2.5944394    2.3042588 
H    -0.6670231   -0.1747890    7.1558280 
H     1.7803664    1.1262787    6.6228606 
H     1.3777971   -0.3525587    8.5920741 
H     2.0074437    1.2391265    9.1237158 
H     0.2733221    0.8715963    9.3148323 
H     2.5635606    3.3260386    6.4686568 
H     2.1865622    5.7890725    6.6317493 
H     0.0278905    6.6676989    7.5431548 
H    -1.7635423    5.0693459    8.2473900 
H    -1.3814352    2.6102484    8.0755133 
H     2.9504078   -1.1094394    2.5975144 
H     4.8573414    0.4477763    2.2814389 
H     4.7467121    2.2193196    0.5108570 
H     2.7188206    2.4384870   -0.8944937 
H    -1.5239307    2.6310368   -0.3009774 
H     1.4549086    4.6236168   -0.9994521 
H     2.8920573    5.7351565    0.6845719 
H     2.6831110    5.1246664    3.1107879 
H     0.9311412    3.4929179    3.8205370 
H    -2.4865160    1.8681131    3.3764955 
H    -1.0248721    3.6745609    4.7955681 
H    -4.0383401    3.8351754    4.1921690 
H    -3.2580756    2.7782458    5.4229904 
H    -3.1925162    4.5554405    5.5940822 
H    -2.6658444    4.5377545    1.5059716 
H    -2.4616689    6.7696658    0.4617811 
H    -1.4050957    8.6658787    1.7193956 
H    -0.5097090    8.2700943    4.0256456 
H    -0.6874106    6.0059384    5.0568425 
H    -0.6102810    0.8853415   -3.1699079 
H    -1.2607036    4.1811274   -4.8818682 
H     0.2429515    5.0199844   -5.3045937 
H    -1.2152253    6.1960104   -3.4504715 
H     0.4638364    5.8782020   -2.9691654 
H     3.0569070    1.7451700   -2.7955657 
H     4.8887857    0.3427114   -3.6958237 
H     4.3457820   -1.7933879   -4.9150058 
H     1.9699983   -2.4466615   -5.2377869 
H    -1.8318470   -1.0925237   -5.5860088 
H     0.4645283    0.7643104   -6.0176537 
H    -2.2812597    0.6662558   -7.4140874 
H    -0.9600840    1.8110421   -7.7753887 
H    -1.7425833    1.8386322   -6.1670862 
H     2.2291827    0.0907052   -7.3338626 
H     3.2168479   -1.3436827   -9.1225150 
H     1.7701893   -2.9549999  -10.3775186 
H    -0.6653733   -3.1223080   -9.8304183 
H    -1.6476893   -1.6949969   -8.0534358 
