197
Energy =
C    -2.6039251   -2.5691141   -2.0675980 
C    -3.4172677   -1.4267138   -2.2247631 
C    -3.0628398   -0.4008043   -3.1591230 
H    -4.2400495   -1.2345486   -1.5238019 
Pd   -1.4576905   -0.6301756   -1.6875303 
P    -0.1801860    1.2096711   -2.2635605 
P     0.1189904   -0.9394946   -0.0067469 
H    -1.8826625   -2.7842044   -2.8703614 
H    -2.5748689   -0.7158097   -4.0931185 
C    -3.4267248   -6.0111007    0.3763923 
C    -2.2564834   -5.9391634   -0.3951565 
C    -1.9915755   -4.7985154   -1.1609141 
C    -2.8903700   -3.7075247   -1.1802104 
C    -4.0644071   -3.7945602   -0.3934662 
C    -4.3259722   -4.9312864    0.3783407 
H    -3.6400269   -6.9047765    0.9722169 
H    -1.5337029   -6.7601606   -0.3879340 
H    -1.0736106   -4.7478194   -1.7544679 
H    -4.7945791   -2.9796667   -0.4045882 
H    -5.2438325   -4.9824284    0.9732412 
C    -5.5112460    3.1357574   -3.3352587 
C    -4.9789581    2.7163713   -2.1045986 
C    -4.1651750    1.5792682   -2.0429200 
C    -3.8565061    0.8505519   -3.2166308 
C    -4.3786569    1.2933933   -4.4498292 
C    -5.2126574    2.4205543   -4.5039196 
H    -6.1486642    4.0237086   -3.3758233 
H    -5.1927287    3.2902626   -1.1974368 
H    -3.7287629    1.2606787   -1.0874666 
H    -4.1414655    0.7386765   -5.3641278 
H    -5.6338927    2.7385710   -5.4641523 
C     4.5297140   -1.2808006    5.9241852 
C     5.6754673   -0.5215483    6.2051744 
C     6.9496398   -1.0423599    5.9402433 
C     7.0743738   -2.3312210    5.3962205 
C     5.9288849   -3.0900027    5.1201571 
C     4.6440090   -2.5718121    5.3811494 
C     3.3903652   -3.3803038    5.0460507 
C     3.2954171   -4.7031644    5.8154317 
N     3.3375944   -3.6277562    3.5866692 
C     2.8840156   -2.6777873    2.7192304 
O     2.1826231   -1.7249788    3.0954197 
C     3.3817340   -2.7757827    1.3033096 
C     4.7839452   -2.8455531    1.1468910 
C     5.3824932   -2.7778929   -0.1157812 
C     4.5683463   -2.6624988   -1.2494564 
C     3.1785157   -2.6133779   -1.1037885 
C     2.5588524   -2.6495739    0.1582978 
C     1.0338969   -2.6134509    0.1463901 
C    -0.4001242   -0.9742204    1.8172145 
N    -0.3230213   -2.4000789    2.1873745 
N     0.3647548   -3.2490531    1.2729435 
C    -0.4562729   -2.7854945    3.5032201 
O    -0.8055158   -1.9865939    4.3762355 
C    -0.2134809   -4.2602138    3.7568471 
C    -0.5633641   -5.1067726    2.5270789 
C     0.2263408   -4.6292438    1.3236170 
O     0.7547626   -5.3387658    0.4735559 
C    -1.7799658   -0.4101030    2.1042138 
C    -1.9810308    0.7149530    2.9348394 
C    -3.2902579    1.1997099    3.1262512 
C    -4.3890050    0.5871149    2.5124888 
C    -4.1858245   -0.5347766    1.6925405 
C    -2.8913334   -1.0245569    1.4985681 
C    -0.8730558    1.5030740    3.6025007 
O    -0.7798506    2.7297366    3.4314628 
N    -0.0462863    0.7924059    4.4078881 
C     1.0715563    1.4267059    5.1100048 
C     2.3083868    1.5082323    4.1853152 
C     1.4067290    0.7361757    6.4289712 
C     0.9531889   -0.5511607    6.7745373 
C     1.3640242   -1.1559922    7.9745766 
C     2.2334200   -0.4902751    8.8479630 
C     2.6802074    0.7994911    8.5200783 
C     2.2673355    1.4039685    7.3259861 
C     1.4176607    0.3439916   -0.1571207 
C     2.4919315    0.4154010    0.7446103 
C     3.5324605    1.3290506    0.5285568 
C     3.5114280    2.1597139   -0.5979427 
C     2.4282514    2.1124253   -1.4864973 
C     1.3617540    1.2241539   -1.2660265 
C    -0.8328387    3.0202884   -2.3546300 
C    -0.0977795    3.9497867   -1.4098614 
C     0.9098933    4.8298721   -1.8379346 
C     1.6459592    5.5780853   -0.9104505 
C     1.4003679    5.4411103    0.4639480 
C     0.3751376    4.5947039    0.9064144 
C    -0.3894486    3.8746584   -0.0280090 
C    -1.4857043    2.9435922    0.3957136 
O    -1.3730006    1.7215402    0.1461224 
N    -2.6045348    3.4482857    0.9507006 
C    -2.9206606    4.8507791    1.2951119 
C    -3.2890968    4.9493713    2.7793844 
C    -3.9602541    5.3933509    0.3129277 
C    -5.3317078    5.4710572    0.6156146 
C    -6.2460152    5.9433119   -0.3409117 
C    -5.7976781    6.3464651   -1.6073228 
C    -4.4309933    6.2654682   -1.9193443 
C    -3.5224841    5.7917292   -0.9656582 
C     0.2421836    1.2028436   -4.1210305 
N    -0.5869523    2.2714115   -4.6486872 
N    -0.7171974    3.3894199   -3.7785020 
C    -1.3812274    2.0782860   -5.7766426 
O    -1.3890423    0.9987815   -6.3610788 
C    -2.1135539    3.3273891   -6.2347710 
C    -1.3649144    4.5934321   -5.7904072 
C    -1.2412681    4.5797056   -4.2755273 
O    -1.5928444    5.4839058   -3.5288024 
C     1.7033197    1.2993468   -4.5029212 
C     2.2742348    2.5199064   -4.9026606 
C     3.6333530    2.6055820   -5.2330905 
C     4.4446167    1.4626519   -5.1786150 
C     3.8804498    0.2324136   -4.8196038 
C     2.5166817    0.1407090   -4.4815598 
C     1.8971142   -1.1729465   -4.1114714 
O     1.1267965   -1.2934806   -3.1423160 
N     2.2087126   -2.2309720   -4.9105099 
C     1.5437456   -3.5337506   -4.7728958 
C     2.2826728   -4.5588601   -5.6485487 
C     0.0460213   -3.4698316   -5.0955381 
C    -0.7770707   -4.5433167   -4.7019734 
C    -2.1481864   -4.5418370   -4.9944016 
C    -2.7195008   -3.4600942   -5.6833667 
C    -1.9083544   -2.3868968   -6.0805055 
C    -0.5351818   -2.3948975   -5.7896178 
H     3.5389227   -0.8673184    6.1307217 
H     5.5634963    0.4800123    6.6340305 
H     7.8448335   -0.4506474    6.1593578 
H     8.0667319   -2.7479487    5.1927309 
H     6.0434042   -4.0980761    4.7015271 
H     2.5101312   -2.7569740    5.2709753 
H     3.3082663   -4.5012655    6.8986915 
H     4.1484322   -5.3671988    5.5873453 
H     2.3628247   -5.2389729    5.5677866 
H     3.9436298   -4.3557172    3.2079495 
H     5.4129801   -2.9095244    2.0424509 
H     6.4724911   -2.8165140   -0.2089929 
H     5.0106995   -2.6221733   -2.2505955 
H     2.5400989   -2.5394788   -1.9857776 
H     0.7210782   -3.1663197   -0.7543468 
H     0.3837848   -0.4305684    2.3668299 
H     0.8576005   -4.3773206    4.0053032 
H    -0.7979191   -4.5419005    4.6456695 
H    -0.3421899   -6.1741006    2.6727896 
H    -1.6396001   -5.0124887    2.2874374 
H    -3.4309929    2.0678374    3.7768211 
H    -5.4000283    0.9710610    2.6856794 
H    -5.0380850   -1.0317171    1.2172932 
H    -2.7306444   -1.9100291    0.8749027 
H    -0.2248589   -0.2196634    4.4897487 
H     0.7409901    2.4594603    5.3227890 
H     2.0402924    2.0456813    3.2599914 
H     3.1305769    2.0515199    4.6812665 
H     2.6558792    0.4939668    3.9332006 
H     0.2770614   -1.1072470    6.1194121 
H     0.9977003   -2.1584920    8.2222000 
H     2.5560278   -0.9663329    9.7796895 
H     3.3496530    1.3384839    9.1990298 
H     2.6198142    2.4136517    7.0841369 
H     2.5119123   -0.2416194    1.6193450 
H     4.3603118    1.3800933    1.2430270 
H     4.3280121    2.8645704   -0.7840369 
H     2.4174855    2.7818644   -2.3460258 
H    -1.9037387    2.9504335   -2.0851863 
H     1.1226731    4.9251080   -2.9062960 
H     2.4235685    6.2627560   -1.2645197 
H     1.9966693    6.0031182    1.1899295 
H     0.1644225    4.4621270    1.9726257 
H    -3.2940795    2.7378699    1.2135623 
H    -1.9933911    5.4185253    1.1275555 
H    -2.4611487    4.5535604    3.3882522 
H    -3.4890335    5.9985800    3.0526853 
H    -4.1947631    4.3604415    3.0101656 
H    -5.6983519    5.1724421    1.6030250 
H    -7.3104686    6.0043112   -0.0899110 
H    -6.5118984    6.7244754   -2.3471162 
H    -4.0589726    6.5639810   -2.9042821 
H    -2.4622408    5.7247946   -1.2319780 
H    -0.1878205    0.2665500   -4.5040374 
H    -3.1283942    3.3115701   -5.7982632 
H    -2.2216530    3.2602395   -7.3282381 
H    -1.8949998    5.5143508   -6.0720313 
H    -0.3559586    4.6192797   -6.2448269 
H     1.6428997    3.4121410   -4.9487787 
H     4.0595707    3.5682710   -5.5332961 
H     5.5094120    1.5273075   -5.4233934 
H     4.5058518   -0.6664480   -4.7810307 
H     2.7093729   -2.0404925   -5.7783546 
H     1.6408402   -3.8301936   -3.7128052 
H     2.2096675   -4.2822106   -6.7156105 
H     1.8289690   -5.5551640   -5.5304616 
H     3.3467760   -4.6218771   -5.3619902 
H    -0.3426727   -5.3896658   -4.1560590 
H    -2.7728879   -5.3804541   -4.6697820 
H    -3.7916969   -3.4536716   -5.9050472 
H    -2.3289678   -1.5290367   -6.6143915 
H     0.0726792   -1.5427060   -6.1095722 
