197
Energy =
C     3.3077190    0.5832321    2.2433469 
C     2.3152072    0.6753822    3.2716957 
C     1.5648414   -0.4640910    3.6330229 
H     2.0236538    1.6590195    3.6590830 
Pd    1.3437425    0.1033198    1.4117771 
P    -0.8517266   -0.1954753    0.6718585 
P     1.8512121    0.2682682   -0.8431488 
H     3.8357661   -0.3764031    2.1308792 
H     2.0015347   -1.4472643    3.3998795 
C     5.4533008    4.0032128    0.7453396 
C     4.1252940    4.1445355    1.1822247 
C     3.4104311    3.0422395    1.6642013 
C     4.0280646    1.7708013    1.7379580 
C     5.3660155    1.6430585    1.3076830 
C     6.0712854    2.7464825    0.8101773 
H     5.9987123    4.8642717    0.3469846 
H     3.6381724    5.1238809    1.1293931 
H     2.3577990    3.1440779    1.9483851 
H     5.8530467    0.6653270    1.3894579 
H     7.1058378    2.6294523    0.4710398 
C    -1.4325314   -0.5806188    6.7166402 
C    -0.5606205   -1.6620914    6.5212141 
C     0.3929398   -1.6207139    5.4957767 
C     0.5193443   -0.4789687    4.6729234 
C    -0.3474405    0.6158341    4.8974267 
C    -1.3241865    0.5556916    5.8975671 
H    -2.1922875   -0.6207711    7.5040579 
H    -0.6293533   -2.5459433    7.1647627 
H     1.0561401   -2.4774243    5.3316865 
H    -0.2559028    1.5055429    4.2665850 
H    -2.0111563    1.3955473    6.0338437 
C    -4.3468915    4.6762914    2.6819125 
C    -5.3661305    5.0596882    1.7999931 
C    -5.3895819    6.3538839    1.2591302 
C    -4.3893165    7.2718094    1.6130222 
C    -3.3689853    6.8874045    2.4934058 
C    -3.3268600    5.5844518    3.0260393 
C    -2.1930185    5.2038591    3.9681465 
C    -2.6162544    4.2301476    5.0811410 
N    -0.9535853    4.6749639    3.2959365 
C    -0.8074736    3.6264135    2.4119008 
O     0.1394693    2.8311179    2.5484241 
C    -1.7301683    3.5485856    1.2352985 
C    -1.9768078    4.7249508    0.5012346 
C    -2.8359197    4.7280723   -0.5995077 
C    -3.5126421    3.5486491   -0.9393935 
C    -3.2700307    2.3740475   -0.2190141 
C    -2.3413719    2.3359987    0.8369208 
C    -2.0542121    1.0239530    1.5390608 
C    -2.1145775   -1.6211879    0.7181013 
N    -3.3871215   -0.8979987    0.9459905 
N    -3.2533849    0.2189723    1.7925612 
C    -4.6271062   -1.4554847    0.6808474 
O    -4.7351444   -2.4605428   -0.0159054 
C    -5.7646859   -0.7487205    1.4067368 
C    -5.3295889   -0.4424826    2.8528096 
C    -4.1131339    0.4734112    2.8425310 
O    -3.9129704    1.4097826    3.6130667 
C    -1.9914324   -2.7992476    1.6568824 
C    -2.2643911   -4.1022481    1.1568226 
C    -2.3349861   -5.1877442    2.0495901 
C    -2.1206093   -5.0005348    3.4208390 
C    -1.8511797   -3.7167820    3.9129255 
C    -1.7951877   -2.6227033    3.0361098 
C    -2.4412729   -4.3457448   -0.3213347 
O    -1.6709629   -3.8794123   -1.1711871 
N    -3.4955204   -5.1390951   -0.6757009 
C    -3.8768752   -5.2151791   -2.0952001 
C    -5.2637089   -5.8652279   -2.2092437 
C    -2.8244281   -5.9579042   -2.9116230 
C    -2.4376940   -5.4774735   -4.1744083 
C    -1.4963178   -6.1741744   -4.9459046 
C    -0.9168987   -7.3547020   -4.4557738 
C    -1.2983637   -7.8408449   -3.1953903 
C    -2.2524327   -7.1502916   -2.4347269 
C    -0.9008455    0.0501463   -1.1666619 
C    -2.0894656   -0.0883950   -1.9089152 
C    -2.0705848   -0.0882420   -3.3085148 
C    -0.8522197    0.0192215   -3.9883668 
C     0.3394231    0.1317520   -3.2640876 
C     0.3274958    0.1639850   -1.8579922 
C     2.9513268   -1.2218105   -1.3066764 
C     2.4450835   -2.1018442   -2.4296568 
C     2.8827115   -1.9453936   -3.7544525 
C     2.3511617   -2.7416999   -4.7792483 
C     1.3748562   -3.7061433   -4.4880807 
C     0.9566530   -3.9022998   -3.1645509 
C     1.4940373   -3.1096954   -2.1363591 
C     1.1101946   -3.3197159   -0.7018119 
O     0.6889061   -2.3877216    0.0079986 
N     1.3492849   -4.5528557   -0.1950532 
C     1.1884044   -4.8402581    1.2360495 
C     2.4570015   -4.4210001    2.0038982 
C     0.7493653   -6.2861541    1.4448975 
C     0.0245216   -6.9686914    0.4467223 
C    -0.4353720   -8.2760305    0.6621554 
C    -0.1924241   -8.9223402    1.8824030 
C     0.5233919   -8.2505159    2.8836919 
C     0.9944261   -6.9484312    2.6636371 
C     3.0749274    1.5069860   -1.6351328 
N     4.2563311    0.7036164   -1.9982525 
N     4.2665692   -0.6356262   -1.5098132 
C     5.4515617    1.3108138   -2.3500679 
O     5.5241718    2.5242993   -2.5113716 
C     6.6035122    0.3300080   -2.4841450 
C     6.7043537   -0.5242460   -1.2126031 
C     5.3790370   -1.1897874   -0.8695954 
O     5.2665831   -2.1880213   -0.1671853 
C     2.5106265    2.2819962   -2.8159800 
C     2.8993979    2.0006979   -4.1361857 
C     2.3290846    2.6808216   -5.2186986 
C     1.3418286    3.6515299   -5.0004701 
C     0.9689622    3.9671699   -3.6904697 
C     1.5634895    3.3114035   -2.5994601 
C     1.1793541    3.6278352   -1.1915999 
O     0.8569218    2.6955893   -0.4262139 
N     1.2121981    4.9008700   -0.7052795 
C     1.5922686    6.2452683   -1.2189667 
C     0.3283484    7.1034670   -1.3904212 
C     2.5325106    6.2294508   -2.4227736 
C     2.2779923    7.0065089   -3.5671750 
C     3.1623857    6.9888277   -4.6568083 
C     4.3087814    6.1856953   -4.6206518 
C     4.5762426    5.4095455   -3.4818612 
C     3.7017251    5.4433294   -2.3901340 
H    -4.3378974    3.6588725    3.0837399 
H    -6.1470822    4.3399542    1.5323191 
H    -6.1899630    6.6503181    0.5727506 
H    -4.4090861    8.2903347    1.2105820 
H    -2.5887098    7.6073714    2.7689228 
H    -1.8447499    6.1415700    4.4350938 
H    -2.9052723    3.2537591    4.6601028 
H    -3.4731543    4.6406603    5.6414627 
H    -1.7832293    4.0739028    5.7895738 
H    -0.1816004    4.6319730    3.9695319 
H    -1.4988718    5.6517239    0.8259520 
H    -3.0080622    5.6534428   -1.1571301 
H    -4.2318607    3.5406855   -1.7647421 
H    -3.8193697    1.4646992   -0.4739421 
H    -1.5765673    1.2108502    2.5110905 
H    -2.1141133   -2.0008807   -0.3106773 
H    -6.0110795    0.1924944    0.8782141 
H    -6.6461750   -1.4047002    1.3596492 
H    -6.1180323    0.0586752    3.4335206 
H    -5.0647373   -1.3792178    3.3801476 
H    -2.5198061   -6.1924341    1.6577492 
H    -2.1527878   -5.8593174    4.0986090 
H    -1.6847472   -3.5576157    4.9811833 
H    -1.5956703   -1.6219298    3.4338798 
H    -4.2412429   -5.2409657    0.0119396 
H    -3.9304925   -4.1781003   -2.4786148 
H    -5.5723130   -5.9045797   -3.2661018 
H    -5.2480884   -6.8982971   -1.8193750 
H    -6.0128461   -5.2770946   -1.6490629 
H    -2.8657743   -4.5402383   -4.5482205 
H    -1.2098095   -5.7906729   -5.9314970 
H    -0.1748846   -7.8946970   -5.0534101 
H    -0.8522211   -8.7628453   -2.8063478 
H    -2.5487012   -7.5233555   -1.4482791 
H    -3.0427985   -0.2348868   -1.3967686 
H    -3.0090697   -0.1961574   -3.8618651 
H    -0.8188851   -0.0018917   -5.0821266 
H     1.2822661    0.1842213   -3.8056578 
H     3.0393516   -1.8173653   -0.3865221 
H     3.6450875   -1.1925141   -3.9798958 
H     2.6985583   -2.6043454   -5.8086914 
H     0.9431383   -4.3167806   -5.2870297 
H     0.1894317   -4.6459656   -2.9276352 
H     1.8252416   -5.2360783   -0.7836910 
H     0.3652290   -4.1798695    1.5623572 
H     2.7227275   -3.3878232    1.7257483 
H     2.2873549   -4.4453469    3.0935381 
H     3.3097281   -5.0791570    1.7653755 
H    -0.2014754   -6.4687749   -0.5009393 
H    -0.9880692   -8.7929817   -0.1291623 
H    -0.5520153   -9.9430062    2.0496929 
H     0.7253810   -8.7445046    3.8401775 
H     1.5523391   -6.4461517    3.4592502 
H     3.3455479    2.1995960   -0.8165289 
H     7.5190864    0.9082848   -2.6730417 
H     6.4155571   -0.3219705   -3.3586183 
H     7.0214018    0.0915850   -0.3533451 
H     7.4471379   -1.3317231   -1.3130266 
H     3.6565732    1.2343666   -4.3193072 
H     2.6560193    2.4470128   -6.2369860 
H     0.8823332    4.1766572   -5.8433026 
H     0.2146730    4.7367753   -3.5045880 
H     0.9055782    4.9071521    0.2699372 
H     2.1730247    6.6867649   -0.3845376 
H    -0.3135286    6.7154632   -2.1996137 
H     0.5931299    8.1494699   -1.6154202 
H    -0.2603580    7.1001361   -0.4583120 
H     1.3810316    7.6286396   -3.6298445 
H     2.9453220    7.6017127   -5.5382410 
H     4.9920650    6.1613144   -5.4762270 
H     5.4511556    4.7561705   -3.4388900 
H     3.9181293    4.8135713   -1.5213738 
