197
Energy =
C     1.8374892   -0.1045706    2.4671659 
C     0.5070690   -0.2728067    2.9433080 
C    -0.1790325   -1.4858167    2.6718347 
H    -0.0376733    0.5690572    3.3902863 
Pd    0.4555161   -0.4599283    0.7728904 
P    -1.2192836   -0.7523816   -0.8034377 
P     1.6120514    0.5915489   -0.9403970 
H     2.4243295   -1.0190069    2.3063647 
H     0.4374934   -2.3784077    2.4832963 
C     4.2011011    3.4319830    3.0963357 
C     2.8037633    3.5401399    3.0035027 
C     2.0193277    2.4079856    2.7653649 
C     2.6205200    1.1336500    2.6247965 
C     4.0301388    1.0437261    2.6856484 
C     4.8120495    2.1807947    2.9288777 
H     4.8079528    4.3243088    3.2785258 
H     2.3271259    4.5194470    3.1034938 
H     0.9315913    2.5092910    2.6742285 
H     4.5085065    0.0637335    2.5730469 
H     5.9012271    2.0854428    3.0002177 
C    -4.1479453   -2.3241987    4.1074047 
C    -3.1498414   -3.3086287    4.1396622 
C    -1.8722612   -3.0307076    3.6376304 
C    -1.5569011   -1.7515325    3.1324448 
C    -2.5610194   -0.7569829    3.1350341 
C    -3.8485963   -1.0498443    3.5975704 
H    -5.1541251   -2.5458499    4.4786496 
H    -3.3704798   -4.3021230    4.5447082 
H    -1.1036868   -3.8106112    3.6338773 
H    -2.3374320    0.2491948    2.7618202 
H    -4.6273634   -0.2847083    3.5461229 
C    -3.0020751    4.1647059    4.4710125 
C    -2.4916466    5.3762186    4.9595582 
C    -3.3181137    6.5074575    5.0373451 
C    -4.6575054    6.4163728    4.6294651 
C    -5.1643729    5.2046211    4.1371883 
C    -4.3426665    4.0654823    4.0512206 
C    -4.8549413    2.7397074    3.4860339 
C    -6.2517067    2.3313533    3.9662506 
N    -4.8419494    2.7596019    2.0082772 
C    -3.7005200    2.5424802    1.3165635 
O    -2.5978620    2.4369568    1.8970637 
C    -3.8354033    2.5054326   -0.1851987 
C    -4.4309240    3.6118260   -0.8217383 
C    -4.5511860    3.6633572   -2.2157822 
C    -4.1103402    2.5781131   -2.9846228 
C    -3.5401611    1.4639860   -2.3553394 
C    -3.3597092    1.4158360   -0.9623310 
C    -2.8441880    0.1568512   -0.2875576 
C    -2.1756686   -2.3414399   -1.2523037 
N    -3.5596315   -1.9052220   -1.3269446 
N    -3.8636525   -0.9231777   -0.3663566 
C    -4.4183707   -2.2003992   -2.3818080 
O    -4.0442617   -2.8574186   -3.3450413 
C    -5.8365834   -1.7028802   -2.1247800 
C    -6.1401917   -1.7089264   -0.6128098 
C    -5.1612442   -0.7717860    0.0852795 
O    -5.4647456    0.1108263    0.8841425 
C    -1.9455722   -3.5180759   -0.3209035 
C    -0.7422716   -4.2597106   -0.4194282 
C    -0.5437216   -5.3890677    0.3949061 
C    -1.5446039   -5.8127917    1.2780571 
C    -2.7474502   -5.0999507    1.3519120 
C    -2.9362042   -3.9508972    0.5717150 
C     0.2817211   -3.8585427   -1.4375106 
O     0.5965511   -2.6735133   -1.6415698 
N     0.8149979   -4.8778023   -2.1643853 
C     1.7566039   -4.6384963   -3.2650942 
C     1.0086740   -4.2994763   -4.5646804 
C     2.7437624   -5.7996820   -3.3466384 
C     3.1928275   -6.4149862   -2.1587094 
C     4.1476769   -7.4396128   -2.1928844 
C     4.6763144   -7.8712438   -3.4193500 
C     4.2344002   -7.2709613   -4.6064011 
C     3.2746643   -6.2469137   -4.5706427 
C    -0.5632439   -0.2598100   -2.4682849 
C    -1.2346221   -0.5596590   -3.6669792 
C    -0.6622100   -0.2477908   -4.9089468 
C     0.5941665    0.3655027   -4.9666791 
C     1.2884377    0.6334965   -3.7799726 
C     0.7338562    0.3097926   -2.5308995 
C     3.4650211    0.0814949   -1.0136809 
C     3.8982488   -1.0623044   -1.9099520 
C     4.1711177   -0.8371169   -3.2699468 
C     4.6930118   -1.8426286   -4.0918796 
C     4.9881952   -3.1017955   -3.5551572 
C     4.7395563   -3.3391000   -2.1986239 
C     4.1760743   -2.3458060   -1.3750487 
C     3.8789148   -2.6693476    0.0580201 
O     2.8281791   -2.3225022    0.6199935 
N     4.8291719   -3.3878136    0.7245985 
C     4.6384796   -3.7692846    2.1311865 
C     5.9911796   -4.1667541    2.7407518 
C     3.5955239   -4.8762202    2.2757779 
C     2.5367552   -4.7458859    3.1908097 
C     1.6182844   -5.7901840    3.3741019 
C     1.7450904   -6.9766687    2.6363297 
C     2.7882189   -7.1082573    1.7056882 
C     3.7067522   -6.0636942    1.5294878 
C     2.0752030    2.4439487   -0.9111856 
N     3.5273683    2.4918853   -0.8579076 
N     4.2023093    1.3252232   -1.3213388 
C     4.1392539    3.6169999   -0.3179533 
O     3.4529991    4.5566179    0.0729700 
C     5.6561688    3.5899837   -0.3175679 
C     6.1896759    2.7353827   -1.4749605 
C     5.5995378    1.3377757   -1.3829088 
O     6.2528262    0.3033920   -1.3545368 
C     1.4816489    3.2809095   -2.0298540 
C     2.2227261    3.6672132   -3.1570506 
C     1.6170953    4.3986298   -4.1886496 
C     0.2613922    4.7502200   -4.1037599 
C    -0.4786144    4.4025687   -2.9647106 
C     0.1344561    3.6852482   -1.9253683 
C    -0.5957250    3.2183148   -0.7047165 
O    -0.7047486    1.9842704   -0.5270736 
N    -1.0453460    4.0972040    0.2070461 
C    -0.8747110    5.5604238    0.2206224 
C    -0.0727341    5.9716156    1.4667863 
C    -2.2300343    6.2523399    0.0911461 
C    -3.1637707    6.2454113    1.1458334 
C    -4.4199568    6.8479994    0.9841073 
C    -4.7638686    7.4612950   -0.2306665 
C    -3.8366540    7.4812054   -1.2826966 
C    -2.5786839    6.8832514   -1.1175151 
H    -2.3560413    3.2845973    4.3921964 
H    -1.4463386    5.4367015    5.2818411 
H    -2.9226806    7.4547993    5.4182518 
H    -5.3102644    7.2935717    4.6936507 
H    -6.2106138    5.1523463    3.8163090 
H    -4.1301471    1.9640943    3.7885028 
H    -7.0206570    3.0602800    3.6545487 
H    -6.2695036    2.2686226    5.0660152 
H    -6.5231465    1.3471944    3.5465432 
H    -5.7201479    2.6093174    1.5121971 
H    -4.7757910    4.4538916   -0.2148429 
H    -4.9911150    4.5462765   -2.6901716 
H    -4.2089152    2.5926127   -4.0751682 
H    -3.2186660    0.6179360   -2.9636987 
H    -2.6608818    0.3673767    0.7729491 
H    -1.8759709   -2.6258141   -2.2719218 
H    -5.9306657   -0.6766712   -2.5293979 
H    -6.5203478   -2.3485236   -2.6962485 
H    -7.1565239   -1.3551177   -0.3859938 
H    -6.0372880   -2.7344969   -0.2100350 
H     0.4057123   -5.9319358    0.3453423 
H    -1.3812012   -6.6945504    1.9054569 
H    -3.5402285   -5.4236420    2.0325353 
H    -3.8680931   -3.3870816    0.6569203 
H     0.4082930   -5.8081179   -2.0706245 
H     2.3117551   -3.7330015   -2.9626771 
H     1.7142877   -3.9747183   -5.3475654 
H     0.4343528   -5.1634771   -4.9419335 
H     0.3190296   -3.4613767   -4.3714553 
H     2.7965427   -6.0764232   -1.1956851 
H     4.4801294   -7.9047400   -1.2578323 
H     5.4214607   -8.6729465   -3.4498064 
H     4.6332314   -7.6039125   -5.5705485 
H     2.9451411   -5.7957718   -5.5109377 
H    -2.2060470   -1.0658008   -3.6574084 
H    -1.2052931   -0.4894902   -5.8282498 
H     1.0429002    0.6255313   -5.9305866 
H     2.2685025    1.1079803   -3.8302680 
H     3.6412480   -0.1873567    0.0426247 
H     4.0345047    0.1664365   -3.6787579 
H     4.8929559   -1.6300240   -5.1471599 
H     5.3985476   -3.8991565   -4.1818800 
H     4.9422511   -4.3302297   -1.7818671 
H     5.7364908   -3.5345919    0.2851925 
H     4.2517599   -2.8776167    2.6581386 
H     6.7146231   -3.3357791    2.6645724 
H     5.8615601   -4.4223634    3.8043204 
H     6.4098865   -5.0522660    2.2299440 
H     2.4317583   -3.8178936    3.7650472 
H     0.8012953   -5.6765288    4.0948573 
H     1.0330989   -7.7959556    2.7829761 
H     2.8901945   -8.0293315    1.1212033 
H     4.5210329   -6.1702470    0.8034408 
H     1.7137740    2.8204186    0.0607735 
H     5.9866893    3.1769167    0.6529881 
H     6.0038499    4.6330791   -0.3667795 
H     7.2839829    2.6333406   -1.4511655 
H     5.9029649    3.1879246   -2.4437126 
H     3.2807326    3.3927751   -3.2245179 
H     2.2057923    4.6917109   -5.0640869 
H    -0.2152481    5.3058094   -4.9178628 
H    -1.5355839    4.6736327   -2.8777063 
H    -1.5258029    3.6310605    1.0005809 
H    -0.2765022    5.8112388   -0.6695714 
H    -0.5702627    5.6319859    2.3925879 
H     0.0224296    7.0692946    1.5106896 
H     0.9359590    5.5288461    1.4148375 
H    -2.9239437    5.7651611    2.1006912 
H    -5.1300907    6.8344033    1.8158253 
H    -5.7458422    7.9307507   -0.3522423 
H    -4.0884659    7.9697694   -2.2302151 
H    -1.8527426    6.9118637   -1.9382083 
