197
Energy =
C    -3.1633486   -1.8517655   -1.1827114 
C    -3.6467716   -0.5289472   -1.0964605 
C    -3.0845715    0.5096457   -1.9073776 
H    -4.3208292   -0.2615795   -0.2719187 
Pd   -1.4976202   -0.3752226   -0.6855555 
P     0.1175967    1.2125409   -1.1776078 
P     0.0486047   -1.1625414    0.8704200 
H    -2.5696240   -2.1156829   -2.0711709 
H    -2.7557347    0.2425962   -2.9201208 
C    -4.6146227   -5.1432056    1.1852561 
C    -5.4164083   -4.0056220    1.0028482 
C    -4.9552140   -2.9351924    0.2268963 
C    -3.6769825   -2.9765959   -0.3777121 
C    -2.8936802   -4.1406809   -0.2053039 
C    -3.3534916   -5.2105625    0.5712779 
H    -4.9778847   -5.9807368    1.7900568 
H    -6.4118997   -3.9567388    1.4568453 
H    -5.6043146   -2.0684690    0.0650147 
H    -1.9051741   -4.2015758   -0.6710270 
H    -2.7123521   -6.0863597    0.7059491 
C    -3.7711350    4.6995342   -1.1634025 
C    -3.8538229    3.7762868   -0.1083479 
C    -3.6469380    2.4134308   -0.3448583 
C    -3.3530426    1.9400527   -1.6474606 
C    -3.2715750    2.8788437   -2.7009976 
C    -3.4876464    4.2423812   -2.4583240 
H    -3.9093961    5.7682300   -0.9749855 
H    -4.0573151    4.1239888    0.9095686 
H    -3.6521033    1.7132125    0.4967604 
H    -3.0452674    2.5281111   -3.7148693 
H    -3.4338329    4.9595918   -3.2837396 
C     2.4117050   -5.1193102   -5.3673682 
C     2.6773393   -4.9018416   -6.7277746 
C     3.9113327   -4.3619296   -7.1221382 
C     4.8766811   -4.0509707   -6.1514752 
C     4.5993467   -4.2551194   -4.7917131 
C     3.3614973   -4.7853363   -4.3825338 
C     2.9995666   -4.8323567   -2.9001835 
C     2.2620940   -6.0974287   -2.4326472 
N     2.1838814   -3.6197625   -2.6631768 
C     1.9895959   -2.8647431   -1.5554108 
O     1.1026318   -1.9861382   -1.5493294 
C     2.8023351   -3.1134547   -0.3232286 
C     4.2071330   -3.1787958   -0.3459560 
C     4.9284808   -3.4171532    0.8304151 
C     4.2387322   -3.6208894    2.0339696 
C     2.8415842   -3.5214198    2.0681901 
C     2.1079421   -3.2311629    0.9055006 
C     0.6083500   -2.9991751    0.9553051 
C    -0.3183329   -1.1198903    2.7405982 
N    -0.0738194   -2.5054335    3.2010735 
N    -0.0305063   -3.4706212    2.1717543 
C    -0.0803344   -2.8537232    4.5380872 
O    -0.1216533   -1.9941350    5.4156026 
C    -0.1089729   -4.3592363    4.7796526 
C    -0.9924657   -5.0573821    3.7293902 
C    -0.4561035   -4.7784840    2.3346868 
O    -0.3373663   -5.5941182    1.4249994 
C    -1.7018704   -0.6488490    3.1463862 
C    -1.8658376    0.2673184    4.2128497 
C    -3.1659196    0.6362095    4.6153486 
C    -4.2958422    0.1131269    3.9730750 
C    -4.1306138   -0.8250758    2.9444275 
C    -2.8428985   -1.2077249    2.5468944 
C    -0.6820027    0.8788141    4.9170781 
O     0.2863790    1.3626402    4.3123911 
N    -0.7720235    0.9123474    6.2767371 
C     0.3470334    1.4204192    7.0797864 
C     0.3767340    0.6885954    8.4304526 
C     0.2704512    2.9372308    7.2434365 
C    -0.9482165    3.5695406    7.5538153 
C    -1.0016914    4.9531471    7.7720483 
C     0.1671398    5.7254288    7.6818901 
C     1.3842140    5.1064345    7.3585102 
C     1.4326721    3.7217872    7.1379832 
C     1.5762941   -0.1416309    0.7461839 
C     2.6476914   -0.2921188    1.6419132 
C     3.8489034    0.3988190    1.4357236 
C     3.9841346    1.2505394    0.3328032 
C     2.8975645    1.4584013   -0.5270283 
C     1.6825856    0.7846690   -0.3197468 
C    -0.1122624    3.0868997   -0.8653447 
C     0.8208195    3.6272430    0.2133196 
C     1.9731753    4.3581770   -0.1209525 
C     2.8729185    4.7824410    0.8638599 
C     2.6487658    4.4577273    2.2081040 
C     1.4894716    3.7615827    2.5653931 
C     0.5628339    3.3738661    1.5829545 
C    -0.7055720    2.6703066    1.9422869 
O    -0.9956769    1.5974675    1.3703232 
N    -1.5980841    3.2406711    2.7934047 
C    -1.4500849    4.3435901    3.7655346 
C    -2.8379069    4.6117182    4.3755840 
C    -0.8708832    5.6269488    3.1822202 
C    -0.0981551    6.4488214    4.0228102 
C     0.4202065    7.6625480    3.5533273 
C     0.1815213    8.0614028    2.2294900 
C    -0.5816871    7.2432628    1.3838667 
C    -1.1139631    6.0365960    1.8606690 
C     0.3442596    1.4511849   -3.0429794 
N     0.2609890    2.8935405   -3.3095285 
N     0.0937882    3.7384623   -2.1655108 
C    -0.2496782    3.2430158   -4.5637686 
O    -0.3811415    2.3828118   -5.4272004 
C    -0.5670732    4.7126588   -4.7664789 
C     0.1098780    5.6071450   -3.7234522 
C    -0.1612455    5.0893084   -2.3222687 
O    -0.5489013    5.7720466   -1.3790015 
C     1.5377773    0.7887688   -3.7019728 
C     2.7293184    1.5242109   -3.8330620 
C     3.8839694    0.9663493   -4.3900539 
C     3.8579933   -0.3586124   -4.8441560 
C     2.6679367   -1.0864855   -4.7680046 
C     1.4883017   -0.5386280   -4.2134346 
C     0.2093882   -1.3335510   -4.2266187 
O    -0.8324260   -0.9872950   -3.6502913 
N     0.2330303   -2.5266857   -4.9160305 
C    -1.0037395   -3.3280107   -5.0617862 
C    -1.2273272   -4.1778477   -3.8039272 
C    -0.9305375   -4.0901197   -6.3818221 
C    -0.7281871   -3.3615003   -7.5737057 
C    -0.6194355   -4.0154365   -8.8070930 
C    -0.7176238   -5.4148605   -8.8724055 
C    -0.9344589   -6.1476893   -7.6974828 
C    -1.0419973   -5.4897401   -6.4613554 
H     1.4437996   -5.5415792   -5.0810962 
H     1.9148982   -5.1546073   -7.4721799 
H     4.1231569   -4.1918458   -8.1827883 
H     5.8466142   -3.6417192   -6.4537094 
H     5.3477198   -3.9859853   -4.0370670 
H     3.9258904   -4.7391137   -2.3150177 
H     2.8906841   -6.9890988   -2.5946678 
H     1.3133989   -6.2392425   -2.9767839 
H     2.0255501   -6.0167654   -1.3575880 
H     1.5238133   -3.3859357   -3.4162323 
H     4.7376186   -3.0167666   -1.2897822 
H     6.0220765   -3.4558061    0.8053271 
H     4.7896783   -3.8398137    2.9543409 
H     2.3138202   -3.6484205    3.0172979 
H     0.1098862   -3.5003493    0.1144915 
H     0.4329195   -0.4596930    3.1961356 
H     0.9241067   -4.7555231    4.7327482 
H    -0.4734610   -4.5158691    5.8058403 
H    -1.0224292   -6.1482389    3.8653217 
H    -2.0307729   -4.6769095    3.7872249 
H    -3.2852682    1.3494635    5.4381757 
H    -5.2980750    0.4227061    4.2869749 
H    -5.0014783   -1.2703035    2.4548380 
H    -2.7247990   -1.9570174    1.7570526 
H    -1.4345136    0.2750019    6.7162814 
H     1.2680052    1.1880584    6.5163380 
H     0.4695874   -0.3999243    8.2699262 
H     1.2344052    1.0354813    9.0286883 
H    -0.5417928    0.8928749    9.0100479 
H    -1.8638988    2.9706027    7.6202496 
H    -1.9567543    5.4307535    8.0161206 
H     0.1269968    6.8060972    7.8536512 
H     2.2977327    5.7044433    7.2723273 
H     2.3842360    3.2417291    6.8809529 
H     2.5565320   -0.9578392    2.5034424 
H     4.6779498    0.2647105    2.1376382 
H     4.9216996    1.7878054    0.1591753 
H     2.9944011    2.1697770   -1.3467212 
H    -1.1683551    3.2013113   -0.5619228 
H     2.1710218    4.5951434   -1.1702214 
H     3.7570784    5.3604487    0.5754951 
H     3.3606127    4.7659834    2.9802785 
H     1.2953933    3.4987614    3.6081444 
H    -2.3967754    2.6224477    2.9569846 
H    -0.7841439    4.0001500    4.5806700 
H    -3.2492742    3.6996437    4.8445895 
H    -2.7523621    5.3875585    5.1518401 
H    -3.5392478    4.9682150    3.6011594 
H     0.1079492    6.1245196    5.0484990 
H     1.0227818    8.2904724    4.2190427 
H     0.5986477    9.0022402    1.8542505 
H    -0.7476727    7.5193913    0.3395102 
H    -1.6822253    5.3971270    1.1780232 
H    -0.5630076    0.9831889   -3.4541031 
H    -1.6662279    4.8159727   -4.7166351 
H    -0.2733814    4.9725227   -5.7958582 
H    -0.2444171    6.6467669   -3.7706268 
H     1.2053949    5.6095108   -3.8840957 
H     2.7323430    2.5692325   -3.5062769 
H     4.7974745    1.5646743   -4.4702044 
H     4.7501684   -0.8254644   -5.2729585 
H     2.6855739   -2.1140266   -5.1439464 
H     0.9738607   -2.7081487   -5.5937489 
H    -1.8319174   -2.5965930   -5.1218921 
H    -0.4738702   -4.9775074   -3.7113554 
H    -2.2291035   -4.6386805   -3.8060926 
H    -1.1393334   -3.5270849   -2.9201739 
H    -0.6562415   -2.2680056   -7.5322817 
H    -0.4639992   -3.4317009   -9.7205414 
H    -0.6335846   -5.9293231   -9.8352532 
H    -1.0209305   -7.2385685   -7.7388182 
H    -1.2136154   -6.0826526   -5.5581061 
