197
Energy =
C     2.2580467    1.0854406    3.5707030 
C     0.9800353    0.9218810    4.1704999 
C     0.3556745   -0.3571241    4.0986793 
H     0.4161330    1.7869640    4.5397856 
Pd    0.7592398    0.4775766    2.0581501 
P    -0.7322549   -0.5659474    0.6084065 
P     1.4197330    1.6864676    0.1954627 
H     2.8494303    0.1658924    3.4363460 
H     1.0315171   -1.2233808    4.0616633 
C     4.7407776    4.5948224    3.6352158 
C     3.3552579    4.7294418    3.8249815 
C     2.5242703    3.6043181    3.7858890 
C     3.0634284    2.3188095    3.5431688 
C     4.4523804    2.2078311    3.3047111 
C     5.2852537    3.3307604    3.3628613 
H     5.3894610    5.4751553    3.6959578 
H     2.9262962    5.7183517    4.0116607 
H     1.4483910    3.7211319    3.9475626 
H     4.8851970    1.2252141    3.0882138 
H     6.3585260    3.2155611    3.1828645 
C    -3.6023063   -1.1912372    5.5613942 
C    -3.3290137    0.0441058    4.9515590 
C    -2.0486229    0.3267006    4.4658380 
C    -1.0131309   -0.6325793    4.5768485 
C    -1.3021426   -1.8767986    5.1811621 
C    -2.5844217   -2.1490224    5.6775362 
H    -4.6101234   -1.4102057    5.9273617 
H    -4.1296141    0.7797839    4.8296604 
H    -1.8515470    1.2790591    3.9600945 
H    -0.5076623   -2.6245997    5.2869459 
H    -2.7875867   -3.1121821    6.1579947 
C    -7.2208065   -3.6784815    0.9745586 
C    -7.8557879   -4.3216650    2.0492990 
C    -8.1150017   -5.6975645    1.9980899 
C    -7.7316753   -6.4312052    0.8638996 
C    -7.1024165   -5.7887213   -0.2093897 
C    -6.8402995   -4.4039220   -0.1698129 
C    -6.1507618   -3.7479941   -1.3689277 
C    -7.0471613   -3.7459435   -2.6247038 
N    -5.7128869   -2.3835159   -1.0749898 
C    -4.4262276   -1.9431798   -1.1505483 
O    -3.4574504   -2.6872388   -1.3748551 
C    -4.2833809   -0.4489662   -1.0519434 
C    -4.9894399    0.3099879   -2.0108674 
C    -4.8376369    1.6966949   -2.0925062 
C    -3.9891558    2.3435918   -1.1849649 
C    -3.3079296    1.6053164   -0.2123786 
C    -3.4305785    0.2039355   -0.1356609 
C    -2.6077293   -0.4679737    0.9558225 
C    -0.8065297   -2.4341760    0.3411873 
N    -2.0339244   -2.8644649    1.0187926 
N    -2.9563453   -1.8284463    1.3524724 
C    -2.4803764   -4.1618061    0.8143296 
O    -1.8046293   -4.9737276    0.1802736 
C    -3.7828227   -4.4977888    1.5033973 
C    -4.1112254   -3.5279192    2.6436683 
C    -4.0410653   -2.0854463    2.1773037 
O    -4.8429823   -1.1959439    2.4460626 
C     0.3892977   -3.2222516    0.8423954 
C     1.2803405   -3.8771916   -0.0344638 
C     2.3806650   -4.5771015    0.4970280 
C     2.5991009   -4.6397547    1.8786804 
C     1.7016236   -4.0005856    2.7502219 
C     0.6067155   -3.3047944    2.2282315 
C     1.1490660   -3.8546875   -1.5395063 
O     2.0889426   -3.4886591   -2.2601092 
N    -0.0422035   -4.2850036   -2.0256877 
C    -0.3051228   -4.3416979   -3.4684822 
C    -1.7954182   -4.6459575   -3.6924515 
C     0.5963640   -5.3568601   -4.1693760 
C     0.8122234   -6.6301430   -3.6118186 
C     1.6049889   -7.5747653   -4.2778126 
C     2.1902967   -7.2581307   -5.5135623 
C     1.9801932   -5.9902665   -6.0756879 
C     1.1895420   -5.0464095   -5.4044682 
C    -0.4953203    0.1190141   -1.0780465 
C    -1.1921371   -0.3999811   -2.1848121 
C    -1.0396757    0.1869947   -3.4472200 
C    -0.2019184    1.2984084   -3.6095183 
C     0.5062718    1.8082184   -2.5146604 
C     0.3808263    1.2185223   -1.2441976 
C     3.2310216    1.6950429   -0.3971433 
C     3.4233855    1.1346762   -1.7957808 
C     3.6702251    1.9774004   -2.8899840 
C     3.7541107    1.4553489   -4.1878984 
C     3.5722884    0.0826235   -4.4045157 
C     3.3741903   -0.7776745   -3.3167386 
C     3.3277017   -0.2604937   -2.0128327 
C     3.1689196   -1.1292073   -0.8022851 
O     2.2195904   -0.9062505   -0.0141234 
N     4.1121173   -2.0456010   -0.4854195 
C     5.1626756   -2.6589103   -1.3249420 
C     5.9874669   -3.5991918   -0.4264229 
C     6.0756354   -1.6435293   -2.0013110 
C     6.4635779   -0.4549601   -1.3597670 
C     7.3329221    0.4437945   -1.9925280 
C     7.8399022    0.1540897   -3.2680268 
C     7.4675776   -1.0368791   -3.9097881 
C     6.5864727   -1.9269597   -3.2805978 
C     1.3947567    3.5910955    0.4049707 
N     2.6652228    4.0630161   -0.1658489 
N     3.6881969    3.0709741   -0.2331598 
C     3.0195138    5.4043932   -0.0947571 
O     2.2471658    6.2435118    0.3602778 
C     4.4164702    5.6879222   -0.6132399 
C     5.4158139    4.7886285    0.1255557 
C     5.0283814    3.3219963    0.0459119 
O     5.8196150    2.3910701    0.1567323 
C     0.1861931    4.2940629   -0.1774838 
C     0.1917420    4.8235014   -1.4814543 
C    -0.9383444    5.4536968   -2.0105093 
C    -2.1056682    5.5627603   -1.2417670 
C    -2.1208347    5.0562221    0.0613464 
C    -0.9809143    4.4329178    0.6016729 
C    -1.0557385    3.9290582    2.0230282 
O    -1.3652879    2.7519415    2.2772548 
N    -0.8113879    4.8389911    3.0057402 
C    -0.2335392    6.1996830    2.8501712 
C     0.1240350    6.7272436    4.2489687 
C    -1.1638437    7.1622415    2.1202516 
C    -0.6722726    7.9224674    1.0451850 
C    -1.5180811    8.8123203    0.3669177 
C    -2.8588731    8.9482352    0.7556854 
C    -3.3523541    8.1951442    1.8336760 
C    -2.5066363    7.3097826    2.5148034 
H    -6.9889815   -2.6121433    1.0617422 
H    -8.1410857   -3.7386164    2.9315737 
H    -8.6086701   -6.1986248    2.8372585 
H    -7.9203483   -7.5089438    0.8168306 
H    -6.7984398   -6.3741145   -1.0851739 
H    -5.2217673   -4.3021387   -1.5930349 
H    -7.9587752   -3.1482276   -2.4474150 
H    -7.3609812   -4.7710397   -2.8807363 
H    -6.5001272   -3.3207610   -3.4834327 
H    -6.4279675   -1.6838181   -0.8780047 
H    -5.6411333   -0.2109069   -2.7213799 
H    -5.3766714    2.2652396   -2.8570951 
H    -3.8536001    3.4269504   -1.2308055 
H    -2.6601375    2.1174985    0.5082239 
H    -2.6981100    0.1601425    1.8589136 
H    -0.9358349   -2.5655170   -0.7445163 
H    -4.5793340   -4.4770001    0.7410490 
H    -3.7117472   -5.5402225    1.8514101 
H    -5.1159511   -3.7028592    3.0528545 
H    -3.3782003   -3.6398549    3.4650423 
H     3.0521958   -5.0900728   -0.1991952 
H     3.4513494   -5.2016181    2.2753257 
H     1.8486775   -4.0589835    3.8342749 
H    -0.1193777   -2.8320063    2.8961598 
H    -0.7374918   -4.6426926   -1.3503073 
H    -0.0672931   -3.3427158   -3.8801862 
H    -2.0161296   -4.6425239   -4.7723045 
H    -2.0450922   -5.6471042   -3.2984132 
H    -2.4314846   -3.9025167   -3.1830621 
H     0.3650453   -6.8774887   -2.6417306 
H     1.7669428   -8.5619675   -3.8311841 
H     2.8104523   -7.9955816   -6.0342739 
H     2.4391140   -5.7331656   -7.0367236 
H     1.0378650   -4.0511205   -5.8396344 
H    -1.8673132   -1.2546421   -2.0610968 
H    -1.5854417   -0.2248209   -4.3021338 
H    -0.0822785    1.7639964   -4.5927629 
H     1.1812378    2.6499022   -2.6625088 
H     3.7833627    1.0859633    0.3376056 
H     3.7914629    3.0523251   -2.7206206 
H     3.9526706    2.1251241   -5.0309913 
H     3.6128128   -0.3253623   -5.4194138 
H     3.2399909   -1.8523875   -3.4639402 
H     3.8434305   -2.5874653    0.3412358 
H     4.6564103   -3.2665088   -2.0977192 
H     5.3483120   -4.3673426    0.0442982 
H     6.7519757   -4.1101647   -1.0323890 
H     6.5007184   -3.0248044    0.3641717 
H     6.0627009   -0.2034126   -0.3728745 
H     7.5966366    1.3738240   -1.4798436 
H     8.5200700    0.8554337   -3.7634336 
H     7.8553998   -1.2690668   -4.9075656 
H     6.2803305   -2.8470388   -3.7928770 
H     1.4184116    3.7345167    1.5031965 
H     4.6236707    6.7563797   -0.4593046 
H     4.4455689    5.4790618   -1.6997744 
H     5.4638370    5.0636744    1.1934031 
H     6.4362082    4.8750852   -0.2791651 
H     1.1092163    4.7691705   -2.0746163 
H    -0.9024198    5.8713289   -3.0217380 
H    -2.9912157    6.0657686   -1.6420614 
H    -3.0128519    5.1698769    0.6836182 
H    -0.9556746    4.4859933    3.9540083 
H     0.6884761    6.1026944    2.2490867 
H    -0.7859495    6.8665614    4.8590268 
H     0.6206512    7.7057842    4.1571990 
H     0.8028880    6.0383732    4.7823114 
H     0.3645683    7.7855416    0.7207756 
H    -1.1300993    9.3933487   -0.4765950 
H    -3.5195375    9.6400759    0.2223155 
H    -4.3977592    8.2995324    2.1435938 
H    -2.8995566    6.7094543    3.3442420 
