197
Energy =
C     2.9991585    0.5712286    2.3268540 
C     1.8835458    0.4726922    3.2175508 
C     1.2299772   -0.7635431    3.4079142 
H     1.4442516    1.3834193    3.6428063 
Pd    1.2198549   -0.0381426    1.2144835 
P    -0.8011350   -0.5885765    0.1671996 
P     1.9600305    0.4801261   -0.9285122 
H     3.6402173   -0.3164861    2.2133462 
H     1.7999670   -1.6747042    3.1705548 
C     4.9100347    4.3367027    1.4887186 
C     5.6670176    3.1597979    1.5731331 
C     5.0395407    1.9359481    1.8436942 
C     3.6427883    1.8676854    2.0316230 
C     2.8869860    3.0594602    1.9406268 
C     3.5203332    4.2791586    1.6822122 
H     5.3980774    5.2897568    1.2632797 
H     6.7522224    3.1992631    1.4302419 
H     5.6308711    1.0176205    1.9328569 
H     1.7967262    3.0084480    2.0244812 
H     2.9225172    5.1910368    1.6091398 
C    -1.9897072   -1.3783209    6.1880455 
C    -1.9512570   -0.2000845    5.4248440 
C    -0.9154273    0.0173291    4.5098215 
C     0.0937717   -0.9560473    4.3276520 
C     0.0402601   -2.1417099    5.0954360 
C    -0.9850587   -2.3446853    6.0275237 
H    -2.7990799   -1.5407219    6.9076433 
H    -2.7312164    0.5574266    5.5350763 
H    -0.8993713    0.9377020    3.9183330 
H     0.8181438   -2.9023586    4.9637544 
H    -1.0015869   -3.2609867    6.6278913 
C    -2.2326953    4.6769250    5.9548763 
C    -3.0998492    4.1689874    6.9305281 
C    -4.0564164    3.1998973    6.5890065 
C    -4.1342034    2.7468349    5.2656970 
C    -3.2613084    3.2552996    4.2904365 
C    -2.2979321    4.2245747    4.6205358 
C    -1.3386676    4.8354134    3.5858135 
C     0.1459713    4.6165712    3.9295143 
N    -1.6658808    4.4359542    2.2047446 
C    -1.5051998    3.1630537    1.6975268 
O    -0.7862663    2.3238995    2.2528607 
C    -2.3062251    2.8923550    0.4487433 
C    -2.7216840    3.9661874   -0.3710858 
C    -3.5837245    3.7739740   -1.4531362 
C    -4.0954067    2.4936429   -1.7035227 
C    -3.6867723    1.4210976   -0.9059651 
C    -2.7595369    1.5827270    0.1416983 
C    -2.2976471    0.3563817    0.9044391 
C    -1.7993788   -2.2093431   -0.0312172 
N    -3.2032330   -1.7463412    0.1507666 
N    -3.3263466   -0.6678091    1.0520400 
C    -4.2920539   -2.5549076   -0.1307511 
O    -4.1705080   -3.5651797   -0.8182853 
C    -5.5712870   -2.1137499    0.5662932 
C    -5.2495741   -1.7782713    2.0346037 
C    -4.2487760   -0.6331714    2.0887516 
O    -4.2597008    0.2955512    2.8891971 
C    -1.5273243   -3.4091606    0.8461367 
C    -1.5017529   -4.7032757    0.2646256 
C    -1.4501359   -5.8365376    1.0986557 
C    -1.4089958   -5.7001168    2.4916227 
C    -1.4342260   -4.4221611    3.0649460 
C    -1.4988255   -3.2856598    2.2454474 
C    -1.4428119   -4.9272623   -1.2318340 
O    -0.5448610   -4.4474492   -1.9375512 
N    -2.3920876   -5.7700448   -1.7214983 
C    -2.4648264   -6.1572481   -3.1461105 
C    -1.3304582   -7.1318953   -3.4934987 
C    -2.5865216   -4.9424887   -4.0766559 
C    -3.7266513   -4.1216139   -3.9713241 
C    -3.9203215   -3.0474229   -4.8493710 
C    -2.9711869   -2.7713719   -5.8464777 
C    -1.8181146   -3.5624919   -5.9386756 
C    -1.6298156   -4.6399777   -5.0607029 
C    -0.6566108   -0.1678377   -1.6286592 
C    -1.7120706   -0.4098314   -2.5270934 
C    -1.5453037   -0.2131946   -3.9024552 
C    -0.3022136    0.1880526   -4.4023579 
C     0.7646717    0.4022340   -3.5230416 
C     0.5970866    0.2493772   -2.1351526 
C     3.3608660   -0.7311594   -1.4018414 
C     3.1252069   -1.5477998   -2.6531950 
C     3.6380659   -1.1738096   -3.9052138 
C     3.3270432   -1.9184945   -5.0523962 
C     2.4981817   -3.0466209   -4.9577248 
C     2.0165933   -3.4575861   -3.7065930 
C     2.3364436   -2.7186294   -2.5563088 
C     1.8647199   -3.1374913   -1.1934948 
O     1.1548831   -2.3915262   -0.4940777 
N     2.3388263   -4.3168857   -0.7324227 
C     2.0327686   -4.7970900    0.6211277 
C     3.0842969   -4.2765288    1.6180867 
C     1.8218651   -6.3083135    0.6160230 
C     2.0476168   -7.0840907    1.7691586 
C     1.7670367   -8.4583558    1.7768003 
C     1.2655159   -9.0858819    0.6272942 
C     1.0452741   -8.3247604   -0.5300820 
C     1.3160467   -6.9493947   -0.5330781 
C     3.0205553    1.9989605   -1.4374347 
N     4.3487880    1.4532986   -1.7648605 
N     4.5586595    0.0919320   -1.4004157 
C     5.4391044    2.3035688   -1.9095837 
O     5.2905086    3.5191138   -1.9396350 
C     6.7608300    1.5624220   -2.0163004 
C     6.9046315    0.5782230   -0.8465134 
C     5.6970488   -0.3382118   -0.7142558 
O     5.7083003   -1.4188152   -0.1348822 
C     2.4436952    2.8270604   -2.5768624 
C     2.9761366    2.7618999   -3.8767889 
C     2.3693413    3.4307977   -4.9461076 
C     1.1955492    4.1689601   -4.7398516 
C     0.6794388    4.2839736   -3.4444744 
C     1.3143329    3.6527850   -2.3578251 
C     0.7617528    3.7322226   -0.9706936 
O     0.5702971    2.6803395   -0.3300431 
N     0.4993731    4.9359294   -0.3950767 
C     0.6418866    6.3199183   -0.8992491 
C     1.8530602    7.0260177   -0.2705006 
C    -0.6933767    7.0202747   -0.6552495 
C    -1.5972847    7.2284420   -1.7133337 
C    -2.8783031    7.7477046   -1.4722535 
C    -3.2748870    8.0636633   -0.1643462 
C    -2.3746007    7.8795810    0.8971746 
C    -1.0923170    7.3674332    0.6515224 
H    -1.5006562    5.4426026    6.2376937 
H    -3.0318060    4.5363494    7.9600939 
H    -4.7366207    2.8047590    7.3509390 
H    -4.8628386    1.9852703    4.9709507 
H    -3.3510719    2.8650579    3.2737880 
H    -1.5141031    5.9277862    3.5930029 
H     0.3771444    3.5466267    4.0153312 
H     0.3848254    5.1099990    4.8851722 
H     0.7872486    5.0590828    3.1478035 
H    -2.4260632    4.9755019    1.7912937 
H    -2.3519495    4.9774709   -0.1778888 
H    -3.8688925    4.6267399   -2.0772572 
H    -4.8064200    2.3274736   -2.5192849 
H    -4.0988791    0.4257983   -1.0920573 
H    -1.9669311    0.6419286    1.9115169 
H    -1.6634130   -2.4946815   -1.0827769 
H    -5.9858144   -1.2225055    0.0570106 
H    -6.2990642   -2.9323621    0.4680668 
H    -6.1402280   -1.4699594    2.6016998 
H    -4.8115210   -2.6588557    2.5428559 
H    -1.4095894   -6.8309971    0.6439935 
H    -1.3503261   -6.5916032    3.1240955 
H    -1.4099187   -4.3008771    4.1507171 
H    -1.5321787   -2.2919054    2.7048473 
H    -3.2203864   -5.9028387   -1.1439040 
H    -3.4173168   -6.7095638   -3.2288143 
H    -1.4338223   -7.4956189   -4.5293377 
H    -0.3479020   -6.6463191   -3.3830350 
H    -1.3686807   -7.9975225   -2.8123139 
H    -4.4665629   -4.3230514   -3.1900037 
H    -4.8234717   -2.4324107   -4.7640707 
H    -3.1311347   -1.9461312   -6.5495239 
H    -1.0622875   -3.3469124   -6.7019043 
H    -0.7260393   -5.2485038   -5.1532052 
H    -2.6696870   -0.7879596   -2.1625713 
H    -2.3802603   -0.4111869   -4.5786581 
H    -0.1490227    0.3143064   -5.4787328 
H     1.7355043    0.6780621   -3.9300489 
H     3.4718226   -1.4068282   -0.5404966 
H     4.2814621   -0.2906636   -3.9772556 
H     3.7281915   -1.6118212   -6.0241059 
H     2.2348917   -3.6132452   -5.8569727 
H     1.3619894   -4.3282867   -3.6092645 
H     3.0068242   -4.8339326   -1.3031561 
H     1.0677564   -4.3195947    0.8688362 
H     3.1986275   -3.1878593    1.4848691 
H     2.7683928   -4.4603074    2.6587817 
H     4.0663627   -4.7534119    1.4582694 
H     2.4386846   -6.6182199    2.6783779 
H     1.9491104   -9.0421778    2.6855057 
H     1.0541463  -10.1603455    0.6322647 
H     0.6569581   -8.8013650   -1.4363838 
H     1.1073074   -6.3550237   -1.4274143 
H     3.0937060    2.6106406   -0.5199907 
H     7.5668472    2.3097050   -2.0337269 
H     6.7788130    1.0091511   -2.9748770 
H     7.0340280    1.1210687    0.1049064 
H     7.7850562   -0.0743942   -0.9605867 
H     3.8695670    2.1588869   -4.0557154 
H     2.8062122    3.3579914   -5.9472671 
H     0.6910385    4.6584019   -5.5788961 
H    -0.2460277    4.8422154   -3.2718658 
H     0.1041494    4.8513721    0.5482444 
H     0.8145494    6.2554784   -1.9823470 
H     1.7667278    7.0835952    0.8283948 
H     1.9314274    8.0548135   -0.6599247 
H     2.7767425    6.4781560   -0.5198352 
H    -1.2985908    6.9763346   -2.7372777 
H    -3.5682602    7.9050121   -2.3080046 
H    -4.2760126    8.4634731    0.0263533 
H    -2.6695808    8.1437281    1.9187454 
H    -0.4013491    7.2297162    1.4908006 
