197
Energy =
C     1.7139407    1.4631057    3.7032197 
C     0.3141635    1.5495012    3.9133140 
C    -0.4716520    0.3593065    3.8973404 
H    -0.1771233    2.5299682    3.9179359 
Pd    0.5840636    0.6476601    1.9629042 
P    -0.6178432   -0.5215911    0.3516935 
P     1.8857960    1.3495132    0.1759123 
H     2.1949595    0.4992098    3.9325545 
H     0.0102042   -0.5618990    4.2535106 
C     4.4397761    4.7827491    3.7562206 
C     3.0868225    5.0044114    3.4506285 
C     2.1853356    3.9355779    3.4160529 
C     2.6307357    2.6150300    3.6620666 
C     4.0027803    2.4001745    3.9234163 
C     4.8953661    3.4757885    3.9902528 
H     5.1357322    5.6271195    3.8058438 
H     2.7282588    6.0167354    3.2448947 
H     1.1281824    4.1286755    3.2073519 
H     4.3690895    1.3816292    4.0901728 
H     5.9506551    3.2869214    4.2119394 
C    -4.7639008    0.5236163    4.1810604 
C    -4.0697302    1.4862057    3.4290712 
C    -2.6775910    1.4243652    3.3186923 
C    -1.9469580    0.3976285    3.9646018 
C    -2.6565670   -0.5750927    4.7013645 
C    -4.0533202   -0.5068330    4.8134271 
H    -5.8548472    0.5679919    4.2543105 
H    -4.6242174    2.2680314    2.9008934 
H    -2.1349694    2.1539217    2.7048147 
H    -2.1068517   -1.3731841    5.2133869 
H    -4.5873301   -1.2599811    5.4029330 
C    -7.1077182    0.8946682   -3.6525408 
C    -7.5287143    1.3510188   -4.9095764 
C    -7.6206082    0.4577280   -5.9874731 
C    -7.2926618   -0.8937848   -5.7996426 
C    -6.8748135   -1.3477635   -4.5404856 
C    -6.7762131   -0.4576837   -3.4555732 
C    -6.3388293   -0.9321873   -2.0723645 
C    -7.5177410   -1.5133490   -1.2739416 
N    -5.2553484   -1.9339883   -2.1257301 
C    -3.9152984   -1.6948715   -2.1091150 
O    -3.0818132   -2.6142875   -2.0320872 
C    -3.4753523   -0.2636790   -2.2827347 
C    -3.6608917    0.3056847   -3.5603438 
C    -3.1517826    1.5715947   -3.8640993 
C    -2.4691728    2.2955155   -2.8764191 
C    -2.3006229    1.7464559   -1.6022380 
C    -2.7832814    0.4600385   -1.2907255 
C    -2.4533923   -0.0538526    0.0993699 
C    -1.0208370   -2.3697759    0.4041308 
N    -2.4507364   -2.4326698    0.7438225 
N    -3.1837438   -1.2178175    0.5886628 
C    -3.1008542   -3.6549139    0.6733889 
O    -2.4793282   -4.6979046    0.4778668 
C    -4.5915404   -3.6020019    0.9496366 
C    -4.9808969   -2.3565291    1.7542853 
C    -4.4724163   -1.0970577    1.0783288 
O    -5.1044752   -0.0544313    0.9238535 
C    -0.1911298   -3.1793766    1.3834458 
C     0.7433324   -4.1504278    0.9626858 
C     1.5110885   -4.8270033    1.9310998 
C     1.3530322   -4.5644005    3.2969411 
C     0.4046471   -3.6155061    3.7130259 
C    -0.3572977   -2.9363455    2.7579868 
C     0.9987418   -4.5317919   -0.4799970 
O     2.1483140   -4.5345472   -0.9498453 
N    -0.1018470   -4.9162402   -1.1724483 
C    -0.0187180   -5.4401105   -2.5486700 
C     0.0244321   -4.2929626   -3.5759758 
C    -1.1697291   -6.4054580   -2.7944083 
C    -0.9142003   -7.7530440   -3.1039574 
C    -1.9693325   -8.6470525   -3.3400836 
C    -3.2965144   -8.2019889   -3.2614168 
C    -3.5599679   -6.8591876   -2.9495555 
C    -2.5069216   -5.9633321   -2.7212311 
C     0.1572674   -0.2608623   -1.2903057 
C    -0.3126984   -0.9177404   -2.4404377 
C     0.2429285   -0.6254444   -3.6920344 
C     1.2681153    0.3224120   -3.8017751 
C     1.7506703    0.9666217   -2.6563586 
C     1.2074708    0.6812116   -1.3914363 
C     3.7494421    0.9518226    0.1634306 
C     4.1810684    0.0603111   -0.9879926 
C     4.8522086    0.5847632   -2.1028247 
C     5.1498830   -0.2278789   -3.2055665 
C     4.7603655   -1.5743292   -3.2111839 
C     4.1374599   -2.1254764   -2.0837010 
C     3.8732478   -1.3214668   -0.9638862 
C     3.2493745   -1.8748543    0.2808185 
O     2.1879958   -1.3667998    0.7116667 
N     3.8812498   -2.8333761    0.9951687 
C     5.0045392   -3.7192468    0.6255388 
C     5.3679415   -4.5534784    1.8682244 
C     6.2316212   -2.9716295    0.1178157 
C     7.0213014   -3.5540309   -0.8896558 
C     8.1875175   -2.9192637   -1.3383552 
C     8.5720242   -1.6870125   -0.7882931 
C     7.7875745   -1.0986953    0.2148034 
C     6.6289935   -1.7421556    0.6706061 
C     2.1856821    3.2297766   -0.0176243 
N     3.6382493    3.3549402   -0.2530655 
N     4.4117653    2.2491247    0.2123273 
C     4.2330983    4.6142645   -0.3323964 
O     3.5559834    5.6342907   -0.3455574 
C     5.7484209    4.5574175   -0.3971442 
C     6.2723365    3.7509175    0.7973955 
C     5.6244677    2.3798461    0.8837195 
O     6.1320153    1.4091978    1.4370467 
C     1.3744141    3.9489422   -1.0839478 
C     1.9056070    4.1335252   -2.3742224 
C     1.2059540    4.8169954   -3.3726234 
C    -0.0567262    5.3573319   -3.0972647 
C    -0.5933543    5.2070663   -1.8152470 
C     0.1011846    4.5079036   -0.8042369 
C    -0.5680873    4.3399770    0.5290973 
O    -0.5722183    3.2527024    1.1356620 
N    -1.2318649    5.4303264    1.0034459 
C    -2.0777897    5.3892283    2.2054011 
C    -3.1884795    6.4449558    2.0788518 
C    -1.2752201    5.5584670    3.4936850 
C    -1.5327207    4.7286327    4.5999155 
C    -0.8253196    4.8979708    5.8001261 
C     0.1371273    5.9113182    5.9121489 
C     0.3859825    6.7562501    4.8196753 
C    -0.3103480    6.5761259    3.6167375 
H    -7.0208202    1.5978917   -2.8158599 
H    -7.7787062    2.4081680   -5.0496034 
H    -7.9447318    0.8130616   -6.9712209 
H    -7.3615543   -1.5969662   -6.6365139 
H    -6.6072292   -2.4025814   -4.4086180 
H    -5.9370791   -0.0720820   -1.5112365 
H    -7.9181647   -2.4186974   -1.7653898 
H    -8.3314818   -0.7728030   -1.2220371 
H    -7.2049425   -1.7593369   -0.2458293 
H    -5.5123838   -2.9223531   -2.1614061 
H    -4.1969778   -0.2653591   -4.3241055 
H    -3.2915581    1.9890591   -4.8661899 
H    -2.0577909    3.2846238   -3.0966508 
H    -1.7553664    2.3045309   -0.8336917 
H    -2.6462761    0.7646989    0.8133765 
H    -0.8846017   -2.7364362   -0.6260973 
H    -5.1076926   -3.6134396   -0.0262984 
H    -4.8580368   -4.5362365    1.4676888 
H    -6.0682950   -2.2597740    1.8846678 
H    -4.5221354   -2.3967605    2.7606115 
H     2.2246545   -5.5827034    1.5874454 
H     1.9496673   -5.1121486    4.0339904 
H     0.2538376   -3.4161408    4.7796123 
H    -1.1163063   -2.2122541    3.0690507 
H    -0.9958550   -4.9733481   -0.6589872 
H     0.9382860   -5.9875345   -2.6098148 
H     0.1607590   -4.7022845   -4.5914488 
H    -0.9169246   -3.7184169   -3.5542208 
H     0.8664185   -3.6182098   -3.3472519 
H     0.1221845   -8.1062332   -3.1595604 
H    -1.7534505   -9.6934252   -3.5812808 
H    -4.1220811   -8.8990835   -3.4409623 
H    -4.5959051   -6.5069381   -2.8842112 
H    -2.7295563   -4.9180996   -2.4790260 
H    -1.1292205   -1.6440372   -2.3686775 
H    -0.1321742   -1.1433206   -4.5800902 
H     1.7092222    0.5527473   -4.7765881 
H     2.5746795    1.6716804   -2.7499311 
H     3.9505567    0.4552392    1.1267924 
H     5.1353101    1.6425466   -2.1058872 
H     5.6781003    0.1962725   -4.0657592 
H     4.9668013   -2.2046548   -4.0818551 
H     3.8394251   -3.1777073   -2.0603981 
H     3.3118557   -3.1512750    1.7848556 
H     4.6424688   -4.4064660   -0.1609207 
H     4.5014376   -5.1374140    2.2263807 
H     6.1773078   -5.2562798    1.6156037 
H     5.7218352   -3.8979416    2.6828087 
H     6.7128046   -4.5080003   -1.3340789 
H     8.7913173   -3.3832114   -2.1257965 
H     9.4786056   -1.1857012   -1.1443240 
H     8.0583647   -0.1302480    0.6459757 
H     6.0193591   -1.2593585    1.4408711 
H     1.9394169    3.6379560    0.9795174 
H     6.1238607    5.5905273   -0.3998124 
H     6.0498932    4.0733870   -1.3458977 
H     6.0607584    4.2823859    1.7407529 
H     7.3607974    3.5899277    0.7509739 
H     2.9121411    3.7632046   -2.5862680 
H     1.6562142    4.9386168   -4.3629188 
H    -0.6165394    5.8935335   -3.8699660 
H    -1.5881020    5.6090602   -1.5946158 
H    -1.1025854    6.3218554    0.5270941 
H    -2.5315334    4.3841059    2.2183430 
H    -2.7605160    7.4631902    2.0424673 
H    -3.8531941    6.3950343    2.9560709 
H    -3.7888207    6.2754049    1.1680633 
H    -2.2898339    3.9402351    4.5222427 
H    -1.0285186    4.2354043    6.6481117 
H     0.6909709    6.0444535    6.8469964 
H     1.1314541    7.5540929    4.9033286 
H    -0.0933526    7.2298336    2.7638004 
