197
Energy =
C    -3.2266018   -1.4204429   -0.5600037 
C    -3.5052290   -0.0822768   -0.2130537 
C    -3.0334198    0.9886699   -1.0432722 
H    -3.9386708    0.1539872    0.7674825 
Pd   -1.3323064   -0.1740868   -0.3379082 
P     0.4099065    1.1787369   -1.0543325 
P     0.3726078   -1.4275946    0.6274749 
H    -2.9233252   -1.6163337   -1.5993717 
H    -3.0041244    0.8104441   -2.1254009 
C    -4.2853778   -4.9618891    1.6296176 
C    -4.8046216   -3.7202426    2.0340322 
C    -4.4795345   -2.5556220    1.3303198 
C    -3.6229113   -2.6104568    0.2058676 
C    -3.1390528   -3.8720614   -0.2086795 
C    -3.4562065   -5.0358977    0.4996082 
H    -4.5391474   -5.8704311    2.1855114 
H    -5.4738114   -3.6621796    2.8991178 
H    -4.9068833   -1.5987119    1.6456773 
H    -2.5042946   -3.9290239   -1.0987929 
H    -3.0415174   -5.9954372    0.1794122 
C    -3.5718826    5.0802046    0.1796704 
C    -3.1392640    4.1244655    1.1133159 
C    -2.9479809    2.7955805    0.7203179 
C    -3.1815781    2.3971525   -0.6183149 
C    -3.6017808    3.3706521   -1.5488511 
C    -3.8054986    4.6991642   -1.1490901 
H    -3.7162955    6.1183895    0.4914228 
H    -2.9359005    4.4257946    2.1456560 
H    -2.5751208    2.0578059    1.4407911 
H    -3.7972557    3.0693172   -2.5847784 
H    -4.1571836    5.4403555   -1.8756841 
C    -0.0292416   -4.6616227   -5.9904350 
C    -0.4057043   -4.8062944   -7.3317965 
C    -1.5026209   -5.6134003   -7.6758472 
C    -2.2111409   -6.2811785   -6.6677207 
C    -1.8331489   -6.1371657   -5.3224005 
C    -0.7450699   -5.3190065   -4.9684181 
C    -0.3365694   -5.0738835   -3.5151054 
C    -1.0467219   -5.9559097   -2.4817408 
N    -0.5281647   -3.6328685   -3.2128688 
C     0.3126737   -2.8003357   -2.5537542 
O     0.0422879   -1.5957860   -2.3690849 
C     1.5681452   -3.4080676   -1.9810210 
C     2.6908623   -3.6373535   -2.7948680 
C     3.8362337   -4.2382423   -2.2538816 
C     3.8525065   -4.6280384   -0.9066902 
C     2.7468757   -4.3649500   -0.0865957 
C     1.6072452   -3.7308448   -0.6054476 
C     0.4464744   -3.3080144    0.2748881 
C     0.6601180   -1.6488418    2.4866366 
N     0.9210288   -3.0941054    2.6364784 
N     0.3989664   -3.9073841    1.6042592 
C     1.4681338   -3.6241767    3.7906849 
O     1.8881957   -2.8909995    4.6826368 
C     1.4034854   -5.1446929    3.8532985 
C     0.0629872   -5.6355494    3.2773908 
C    -0.0736352   -5.1898235    1.8295175 
O    -0.4907357   -5.8791291    0.9049522 
C    -0.4228536   -1.1321112    3.4101001 
C    -0.0746206   -0.3548866    4.5423540 
C    -1.0903864    0.0981130    5.4080858 
C    -2.4355091   -0.2107028    5.1625670 
C    -2.7730485   -1.0064955    4.0583414 
C    -1.7699092   -1.4653029    3.1942107 
C     1.3591888    0.0221098    4.8286377 
O     2.1120209    0.5035231    3.9688795 
N     1.7639219   -0.1709983    6.1141407 
C     3.1791657    0.0253892    6.4792224 
C     3.5448581   -0.9188486    7.6300153 
C     3.4463376    1.5033791    6.7597783 
C     4.1912221    2.2662434    5.8426867 
C     4.3998332    3.6378726    6.0528243 
C     3.8668916    4.2633070    7.1896009 
C     3.1263248    3.5092754    8.1138788 
C     2.9139345    2.1408223    7.8967966 
C     2.0056394   -0.7290023    0.1570927 
C     3.2060783   -1.2829130    0.6345975 
C     4.4367006   -0.7086468    0.2962662 
C     4.4711655    0.4363460   -0.5091977 
C     3.2785177    1.0171468   -0.9561583 
C     2.0363851    0.4457117   -0.6266961 
C     0.3790967    3.0238554   -0.5585880 
C     1.6124116    3.4333423    0.2266179 
C     2.6705295    4.1615364   -0.3433662 
C     3.8538367    4.3955941    0.3685567 
C     4.0082853    3.8863476    1.6660743 
C     2.9455375    3.2042590    2.2695158 
C     1.7406195    3.0064910    1.5720520 
C     0.5873858    2.3027185    2.2213913 
O     0.0969274    1.2856266    1.6846541 
N     0.0500679    2.8150333    3.3505449 
C     0.3863543    4.0573103    4.0812449 
C     0.4679550    3.7446760    5.5778669 
C    -0.5727730    5.1828288    3.6870249 
C    -1.6721015    5.5605006    4.4796460 
C    -2.5284540    6.5938344    4.0646935 
C    -2.2925364    7.2626477    2.8543778 
C    -1.2050798    6.8841127    2.0510329 
C    -0.3551258    5.8518273    2.4655390 
C     0.3564234    1.5651300   -2.9190840 
N    -0.2427574    2.9034102   -2.9070400 
N     0.1800437    3.7397417   -1.8292335 
C    -0.9935272    3.3329949   -3.9764575 
O    -1.2764023    2.5489473   -4.8916003 
C    -1.3926798    4.7954798   -3.9643042 
C    -0.3441245    5.6569304   -3.2481269 
C    -0.0359757    5.1132178   -1.8623944 
O     0.0669946    5.7877746   -0.8450671 
C     1.6181451    1.5024834   -3.7635716 
C     2.5493852    2.5580840   -3.6840875 
C     3.7690095    2.5175491   -4.3666830 
C     4.0948576    1.3881858   -5.1318999 
C     3.1619179    0.3553532   -5.2603603 
C     1.9028589    0.4171407   -4.6268887 
C     0.9351856   -0.6614773   -5.0651310 
O     1.3179090   -1.8300825   -5.2157758 
N    -0.3064746   -0.2207259   -5.4164372 
C    -1.2758171   -1.0740632   -6.1133599 
C    -1.6540885   -0.4353632   -7.4638850 
C    -2.5185175   -1.3738456   -5.2787578 
C    -3.0324526   -2.6849172   -5.2527327 
C    -4.1900748   -2.9917666   -4.5192746 
C    -4.8716165   -1.9797263   -3.8290442 
C    -4.3890094   -0.6618996   -3.8835786 
C    -3.2145266   -0.3607896   -4.5901089 
H     0.7945932   -3.9909927   -5.7286493 
H     0.1572232   -4.2814188   -8.1112561 
H    -1.8001790   -5.7239841   -8.7239285 
H    -3.0644225   -6.9176587   -6.9251682 
H    -2.4036063   -6.6651451   -4.5528178 
H     0.7467958   -5.2606787   -3.4342505 
H    -0.8628377   -7.0215225   -2.7005240 
H    -2.1376487   -5.7866631   -2.4916860 
H    -0.6702191   -5.7480234   -1.4673270 
H    -1.3561086   -3.1805198   -3.6174697 
H     2.6493849   -3.3269574   -3.8440000 
H     4.7098931   -4.4158642   -2.8892293 
H     4.7325346   -5.1269341   -0.4879345 
H     2.7695871   -4.6461870    0.9713300 
H    -0.5088182   -3.5490499   -0.2188510 
H     1.5905328   -1.1077299    2.7084306 
H     2.2464307   -5.5721064    3.2762599 
H     1.5414064   -5.4352020    4.9052501 
H    -0.0274764   -6.7314022    3.2965205 
H    -0.7794617   -5.2138361    3.8591542 
H    -0.8162632    0.7099175    6.2746477 
H    -3.2146576    0.1591153    5.8372806 
H    -3.8169941   -1.2737495    3.8694496 
H    -2.0410485   -2.0884491    2.3348016 
H     1.1910055   -0.7709409    6.7059896 
H     3.7630141   -0.2540283    5.5847419 
H     3.3696428   -1.9644860    7.3232630 
H     4.6083316   -0.7985825    7.8920049 
H     2.9486013   -0.7093806    8.5364285 
H     4.5972694    1.7752002    4.9515131 
H     4.9793374    4.2195778    5.3271904 
H     4.0290396    5.3333779    7.3570605 
H     2.7097466    3.9908607    9.0050951 
H     2.3205700    1.5666071    8.6176938 
H     3.1848158   -2.1629393    1.2823214 
H     5.3644661   -1.1544901    0.6684281 
H     5.4268074    0.8965573   -0.7791506 
H     3.3268669    1.9245802   -1.5541787 
H    -0.5291715    3.1314846    0.0620106 
H     2.5680843    4.5547153   -1.3578452 
H     4.6608530    4.9684880   -0.0996193 
H     4.9453593    4.0342644    2.2125958 
H     3.0391184    2.7969575    3.2802443 
H    -0.7396768    2.2709330    3.7089469 
H     1.3870587    4.3562026    3.7380703 
H     0.7189291    4.6526570    6.1487292 
H    -0.4899635    3.3508902    5.9627422 
H     1.2497956    2.9906357    5.7610697 
H    -1.8638908    5.0595925    5.4342555 
H    -3.3761639    6.8821175    4.6955634 
H    -2.9561642    8.0750326    2.5386087 
H    -1.0155488    7.3746783    1.0916859 
H     0.4781001    5.5595982    1.8178557 
H    -0.3975123    0.8622212   -3.2976120 
H    -2.3680437    4.8819224   -3.4558852 
H    -1.5375497    5.0999525   -5.0118542 
H    -0.6750102    6.6984841   -3.1285626 
H     0.5993810    5.6647940   -3.8277694 
H     2.3121986    3.4214418   -3.0561242 
H     4.4676648    3.3568946   -4.2866078 
H     5.0575366    1.3260606   -5.6495102 
H     3.3712823   -0.5146132   -5.8904364 
H    -0.5187397    0.7850578   -5.3476992 
H    -0.7511886   -2.0253619   -6.2943947 
H    -2.1340877    0.5473560   -7.3091059 
H    -2.3634445   -1.0835240   -8.0049314 
H    -0.7536086   -0.2948340   -8.0859469 
H    -2.5258650   -3.4736061   -5.8184381 
H    -4.5603241   -4.0225409   -4.5010051 
H    -5.7791513   -2.2104072   -3.2615138 
H    -4.9342638    0.1352665   -3.3664252 
H    -2.8428326    0.6703104   -4.6223719 
