197
Energy =
C    -3.1159144   -1.6292988   -0.8871565 
C    -3.5889079   -0.3728809   -0.4487464 
C    -3.1061949    0.8264629   -1.0775904 
H    -4.1767873   -0.2960228    0.4747869 
Pd   -1.4309681   -0.2543714   -0.2145714 
P     0.2485604    1.2994318   -0.5999152 
P     0.2475855   -1.4848557    0.8264818 
H    -2.6614975   -1.6708584   -1.8900794 
H    -2.9306542    0.7897889   -2.1628586 
C    -3.9103087   -5.5099502    0.7800080 
C    -3.0832384   -5.3636446   -0.3439301 
C    -2.8488661   -4.0918473   -0.8774374 
C    -3.4317849   -2.9396583   -0.2999292 
C    -4.2869565   -3.1073190    0.8150582 
C    -4.5175964   -4.3782116    1.3514707 
H    -4.0960971   -6.5039279    1.2004477 
H    -2.6034774   -6.2367944   -0.7939093 
H    -2.2043403   -3.9800934   -1.7560395 
H    -4.7867549   -2.2404197    1.2580746 
H    -5.1840217   -4.4894593    2.2133953 
C    -3.8592785    4.7423996    0.5511227 
C    -3.7201447    3.6407297    1.4101999 
C    -3.4662083    2.3666712    0.8916586 
C    -3.3525065    2.1677371   -0.5059365 
C    -3.4636842    3.2891406   -1.3575303 
C    -3.7278021    4.5599019   -0.8324145 
H    -4.0418030    5.7405524    0.9602731 
H    -3.7962667    3.7777626    2.4931161 
H    -3.3155157    1.5228141    1.5746641 
H    -3.3630907    3.1544931   -2.4389301 
H    -3.8230513    5.4144886   -1.5096677 
C     2.2905856   -4.3650412   -5.9766742 
C     2.5326429   -4.0724650   -7.3275491 
C     1.4762284   -3.6720244   -8.1586141 
C     0.1776509   -3.5753032   -7.6336131 
C    -0.0625954   -3.8724080   -6.2850260 
C     0.9945519   -4.2647989   -5.4397500 
C     0.7634552   -4.4842650   -3.9479599 
C    -0.3419922   -5.5002783   -3.6115567 
N     0.4626952   -3.1775002   -3.3340802 
C     1.0489971   -2.6004196   -2.2734782 
O     0.6536310   -1.4939991   -1.8330786 
C     2.1324295   -3.3149097   -1.5164789 
C     3.4180195   -3.5500095   -2.0301390 
C     4.3895165   -4.1681914   -1.2293861 
C     4.0693092   -4.5677232    0.0771858 
C     2.7902340   -4.3211099    0.5952119 
C     1.8212340   -3.6769672   -0.1885031 
C     0.4487157   -3.2998312    0.3320269 
C     0.2547715   -1.9159742    2.6842030 
N     0.2021950   -3.4030994    2.7518235 
N    -0.0048939   -4.0582222    1.4925539 
C    -0.1079021   -4.0397589    3.9392116 
O     0.0915219   -3.4860917    5.0227068 
C    -0.7649198   -5.3971594    3.8054242 
C    -0.1874932   -6.2194571    2.6525687 
C    -0.1212105   -5.4383662    1.3571440 
O    -0.1169190   -5.9454263    0.2393985 
C    -0.8692890   -1.2668423    3.4754258 
C    -0.6331920   -0.4341631    4.5945520 
C    -1.7296005    0.1531183    5.2561173 
C    -3.0433810   -0.0800531    4.8336922 
C    -3.2751618   -0.9124301    3.7265425 
C    -2.1938012   -1.4956244    3.0584393 
C     0.7412138   -0.0506744    5.1080940 
O     1.0153395    1.1347009    5.3473309 
N     1.5955986   -1.0935233    5.2799681 
C     2.9795830   -0.9796196    5.7690286 
C     3.8149281   -0.0129750    4.9045196 
C     3.6037110   -2.3702138    5.7843631 
C     3.5081242   -3.2147108    4.6598853 
C     4.1213446   -4.4738622    4.6510747 
C     4.8477508   -4.9102386    5.7698667 
C     4.9511356   -4.0781326    6.8936602 
C     4.3315448   -2.8191089    6.8998833 
C     1.8557214   -0.6004524    0.6468655 
C     3.0490405   -1.1023438    1.1894254 
C     4.2547023   -0.4024206    1.0436737 
C     4.2689028    0.8245338    0.3720049 
C     3.0786677    1.3454550   -0.1532786 
C     1.8676288    0.6446366   -0.0301572 
C     0.1470829    3.1274302   -0.0825245 
C     1.2062354    3.5836950    0.9094592 
C     2.2663470    4.4147431    0.5163581 
C     3.2615691    4.7869148    1.4302206 
C     3.2132127    4.3214948    2.7516700 
C     2.1371671    3.5292637    3.1703119 
C     1.1244077    3.1805144    2.2631840 
C    -0.0559619    2.3553353    2.6670976 
O    -0.2878202    1.2947045    2.0411976 
N    -0.9274940    2.7929618    3.6064177 
C    -0.7791736    3.8072544    4.6723648 
C    -2.1504800    3.9712883    5.3544651 
C    -0.2722056    5.1581333    4.1867030 
C     0.5689294    5.9095345    5.0271908 
C     1.0195687    7.1777331    4.6362023 
C     0.6406523    7.7030133    3.3915415 
C    -0.1969775    6.9581569    2.5479392 
C    -0.6598019    5.6972259    2.9482416 
C     0.2637151    1.7458636   -2.4651655 
N     0.4726275    3.2053370   -2.5232048 
N     0.1199388    3.9022755   -1.3272856 
C     0.4451092    3.8704235   -3.7351698 
O     0.3306909    3.2638289   -4.8049070 
C     0.4981388    5.3796165   -3.6178684 
C    -0.6327135    5.8179570   -2.6777872 
C    -0.5026078    5.1483137   -1.3231826 
O    -0.8754358    5.6418133   -0.2663223 
C     1.1980706    0.9829304   -3.3824436 
C     2.5857776    1.1921350   -3.3278823 
C     3.4674322    0.4299609   -4.1032688 
C     2.9674657   -0.5588142   -4.9614960 
C     1.5844185   -0.7508363   -5.0607634 
C     0.6959017    0.0186960   -4.2894703 
C    -0.7749596   -0.1975903   -4.5381707 
O    -1.3246440   -1.3138640   -4.4309382 
N    -1.4381962    0.9101972   -4.9515726 
C    -2.8311479    0.8678963   -5.4173088 
C    -2.8810559    0.6321819   -6.9417458 
C    -3.5932237    2.1223336   -5.0109128 
C    -3.0578914    3.4101698   -5.2199030 
C    -3.8051933    4.5528641   -4.8958241 
C    -5.0985167    4.4273796   -4.3645494 
C    -5.6396233    3.1507316   -4.1556777 
C    -4.8906247    2.0087489   -4.4762547 
H     3.1203235   -4.6718129   -5.3287682 
H     3.5472680   -4.1580693   -7.7311481 
H     1.6625038   -3.4399054   -9.2123883 
H    -0.6524236   -3.2650808   -8.2774549 
H    -1.0764068   -3.7656881   -5.8850073 
H     1.7023882   -4.8452379   -3.5012965 
H    -0.1297283   -6.4666011   -4.0989552 
H    -1.3285730   -5.1487946   -3.9605694 
H    -0.3824699   -5.6548858   -2.5194242 
H    -0.2706931   -2.5781986   -3.7805843 
H     3.6548978   -3.2367906   -3.0524562 
H     5.3932909   -4.3469531   -1.6278894 
H     4.8199971   -5.0665987    0.6988162 
H     2.5469395   -4.6209563    1.6202438 
H    -0.3001372   -3.4599880   -0.4580693 
H     1.2263514   -1.5796743    3.0707552 
H    -0.6768543   -5.9104842    4.7737772 
H    -1.8402887   -5.1982821    3.6231918 
H     0.8497880   -6.5327830    2.8837262 
H    -0.7644484   -7.1373196    2.4634556 
H    -1.5255925    0.7930671    6.1204904 
H    -3.8826338    0.3736177    5.3713517 
H    -4.2986312   -1.1104708    3.3912612 
H    -2.3760109   -2.1472857    2.1962675 
H     1.1579323   -2.0324380    5.2710962 
H     2.9570427   -0.5860768    6.8035823 
H     3.3841843    0.9986780    4.9338003 
H     4.8494248    0.0176954    5.2849783 
H     3.8368278   -0.3581960    3.8574173 
H     2.9380641   -2.8872715    3.7841196 
H     4.0341428   -5.1180240    3.7681677 
H     5.3282972   -5.8941977    5.7667155 
H     5.5116907   -4.4118179    7.7732123 
H     4.4116212   -2.1775301    7.7849727 
H     3.0523219   -2.0521366    1.7281284 
H     5.1747362   -0.8166323    1.4676202 
H     5.2000156    1.3899807    0.2664608 
H     3.0982341    2.3208304   -0.6401959 
H    -0.8550698    3.2286360    0.3748898 
H     2.3087523    4.7733786   -0.5172817 
H     4.0777831    5.4409808    1.1065226 
H     3.9968617    4.5977546    3.4639110 
H     2.0682260    3.1744438    4.2024161 
H    -1.6525855    2.0925626    3.7863831 
H    -0.0684907    3.3980551    5.4140683 
H    -2.5307743    3.0055698    5.7328050 
H    -2.0564845    4.6629275    6.2062823 
H    -2.8853561    4.3955313    4.6488972 
H     0.8837043    5.4908582    5.9907884 
H     1.6764788    7.7508739    5.2994188 
H     1.0024387    8.6883585    3.0783506 
H    -0.4871230    7.3395127    1.5648577 
H    -1.2945018    5.1212428    2.2676310 
H    -0.7818576    1.5368584   -2.7456440 
H     0.3954652    5.7999770   -4.6281700 
H     1.4771850    5.6878850   -3.2051568 
H    -1.6165316    5.5322102   -3.0983374 
H    -0.6474033    6.9053444   -2.5101304 
H     2.9816970    1.9770836   -2.6808210 
H     4.5447970    0.6136291   -4.0373302 
H     3.6437710   -1.1637689   -5.5740289 
H     1.1821217   -1.4928752   -5.7564399 
H    -0.8682597    1.7597246   -5.0883277 
H    -3.2804749   -0.0057400   -4.9171133 
H    -2.3963678    1.4654474   -7.4794983 
H    -3.9274339    0.5617683   -7.2829941 
H    -2.3594006   -0.3072068   -7.1926167 
H    -2.0525749    3.5315190   -5.6391537 
H    -3.3802936    5.5470950   -5.0736740 
H    -5.6811554    5.3199876   -4.1145682 
H    -6.6445934    3.0422390   -3.7352694 
H    -5.3180514    1.0134857   -4.3076966 
