197
Energy =
C    -3.2566528   -1.4258838   -1.0803133 
C    -3.5096209   -0.1526503   -0.5230847 
C    -2.8941613    0.9993776   -1.1250059 
H    -4.0069247   -0.0627175    0.4511192 
Pd   -1.3426922   -0.3483584   -0.4632602 
P     0.4775233    0.9908877   -0.9724703 
P     0.2705518   -1.7797299    0.4354386 
H    -2.8711354   -1.4564358   -2.1125818 
H    -2.8082531    1.0022628   -2.2201573 
C    -4.4210332   -5.2752298    0.4242602 
C    -3.5493870   -5.1628285   -0.6702515 
C    -3.2044772   -3.8991016   -1.1603006 
C    -3.7075853   -2.7222325   -0.5567825 
C    -4.6093856   -2.8527733    0.5246324 
C    -4.9587480   -4.1172467    1.0109259 
H    -4.6936824   -6.2632705    0.8095151 
H    -3.1245339   -6.0586348   -1.1306107 
H    -2.5299764   -3.8091007   -2.0187305 
H    -5.0546217   -1.9598567    0.9743717 
H    -5.6616387   -4.2017821    1.8466161 
C    -2.4891801    4.8767165    0.7072129 
C    -2.6451367    3.7357553    1.5124321 
C    -2.8047635    2.4739902    0.9296490 
C    -2.8161694    2.3261678   -0.4787913 
C    -2.6631510    3.4818066   -1.2780803 
C    -2.5059066    4.7424409   -0.6884777 
H    -2.3401787    5.8592585    1.1648129 
H    -2.6184605    3.8284219    2.6029905 
H    -2.8641641    1.5874984    1.5700356 
H    -2.6839921    3.3839906   -2.3692652 
H    -2.3942301    5.6286922   -1.3215973 
C     1.2643243   -4.6735750   -6.6331313 
C     1.3493349   -4.3630544   -7.9989215 
C     0.2271046   -3.8636326   -8.6758643 
C    -0.9801383   -3.6848820   -7.9817630 
C    -1.0639960   -4.0003343   -6.6185975 
C     0.0608796   -4.4939402   -5.9277916 
C     0.0098712   -4.7351536   -4.4220948 
C    -1.1266293   -5.6618440   -3.9556654 
N    -0.0906945   -3.4209173   -3.7620417 
C     0.6351619   -2.9341241   -2.7428758 
O     0.3974267   -1.8008670   -2.2611260 
C     1.7031677   -3.7690726   -2.0976230 
C     2.8905387   -4.1303117   -2.7554931 
C     3.8772707   -4.8581491   -2.0760387 
C     3.6682115   -5.2372687   -0.7419217 
C     2.4918401   -4.8615713   -0.0784453 
C     1.5081842   -4.1115289   -0.7413602 
C     0.2496012   -3.6120844   -0.0552388 
C     0.3744106   -2.1905763    2.2836687 
N     0.4057477   -3.6798046    2.3572075 
N    -0.1039627   -4.3163089    1.1769941 
C     0.3119360   -4.2809780    3.6069106 
O     0.6982154   -3.6840322    4.6093489 
C    -0.3969265   -5.6216655    3.6421560 
C    -0.2088074   -6.4631460    2.3790446 
C    -0.3756773   -5.6780291    1.0928824 
O    -0.6503387   -6.1844079    0.0090622 
C    -0.7639926   -1.6186804    3.1094728 
C    -0.5129741   -0.9682234    4.3400342 
C    -1.5957000   -0.5034387    5.1136077 
C    -2.9169812   -0.6703001    4.6778593 
C    -3.1650145   -1.3476985    3.4757713 
C    -2.0949352   -1.8251583    2.7070684 
C     0.8912739   -0.7359898    4.8359579 
O     1.7824847   -0.2470106    4.1267676 
N     1.0999233   -1.0499852    6.1458044 
C     2.4392953   -0.9115599    6.7322691 
C     2.6033951   -1.9263568    7.8738596 
C     2.6923006    0.5228122    7.1923332 
C     1.7260189    1.2177531    7.9439820 
C     1.9866880    2.5072810    8.4271910 
C     3.2211758    3.1212401    8.1625981 
C     4.1839309    2.4433891    7.3994522 
C     3.9178396    1.1537231    6.9153671 
C     1.9461385   -1.0955135    0.1016976 
C     3.1106793   -1.7218140    0.5732166 
C     4.3738736   -1.2120019    0.2437804 
C     4.4783216   -0.0635109   -0.5496649 
C     3.3198611    0.5956707   -0.9820646 
C     2.0484558    0.0977881   -0.6545857 
C     0.7237588    2.7551303   -0.3036747 
C     1.9406805    2.8752080    0.6120157 
C     3.1321040    3.4726039    0.1683620 
C     4.2729613    3.5046440    0.9791258 
C     4.2495387    2.9145020    2.2494620 
C     3.0629547    2.3465474    2.7237410 
C     1.9051294    2.3500192    1.9272806 
C     0.6218183    1.7686762    2.4253717 
O     0.0242960    0.9201844    1.7277748 
N     0.0495171    2.2237221    3.5688837 
C     0.5966843    3.0404027    4.6713971 
C    -0.5539294    3.3222792    5.6546164 
C     1.2436496    4.3466420    4.2254261 
C     0.7883694    5.0777751    3.1157361 
C     1.3934135    6.2955300    2.7730030 
C     2.4480924    6.8023537    3.5457318 
C     2.9039118    6.0799628    4.6586423 
C     2.3078631    4.8567588    4.9909161 
C     0.2925719    1.5962763   -2.7656763 
N     0.5974482    3.0445094   -2.7735808 
N     0.8046488    3.6342800   -1.4795164 
C     0.0611274    3.7814745   -3.8159482 
O    -0.3916997    3.2140350   -4.8163128 
C     0.0428821    5.2863782   -3.6663515 
C     1.0137629    5.7918878   -2.5991879 
C     0.8399953    5.0100125   -1.3113698 
O     0.7745736    5.5038133   -0.1915300 
C     0.9593516    0.8060751   -3.8716115 
C     2.3372826    0.9411138   -4.1069640 
C     2.9978414    0.1421773   -5.0479740 
C     2.2776354   -0.8151753   -5.7755488 
C     0.8964569   -0.9349253   -5.5824679 
C     0.2215601   -0.1224663   -4.6516325 
C    -1.2816469   -0.2807419   -4.6196073 
O    -1.8356408   -1.3975361   -4.5273102 
N    -1.9941599    0.8588945   -4.7876805 
C    -3.4549255    0.8502272   -4.9874852 
C    -3.7968677    0.5684562   -6.4643796 
C    -4.0654128    2.1501846   -4.4801278 
C    -5.1114380    2.1198421   -3.5390344 
C    -5.6893695    3.3077541   -3.0677317 
C    -5.2280668    4.5467319   -3.5343661 
C    -4.1904641    4.5892389   -4.4787673 
C    -3.6163776    3.4005874   -4.9529017 
H     2.1458808   -5.0581944   -6.1063341 
H     2.2928823   -4.5125637   -8.5347369 
H     0.2910030   -3.6179146   -9.7410592 
H    -1.8608720   -3.2963303   -8.5043296 
H    -2.0058305   -3.8314276   -6.0858614 
H     0.9638802   -5.1878641   -4.1113540 
H    -1.0595563   -6.6346354   -4.4711833 
H    -2.1163652   -5.2243093   -4.1731188 
H    -1.0441008   -5.8302102   -2.8677329 
H    -0.8043888   -2.7412210   -4.1169968 
H     3.0411467   -3.8280669   -3.7975132 
H     4.8036311   -5.1359434   -2.5889638 
H     4.4270283   -5.8219702   -0.2118900 
H     2.3448180   -5.1428537    0.9694339 
H    -0.6092961   -3.7151127   -0.7352210 
H     1.3313411   -1.7970428    2.6510415 
H    -0.0779572   -6.1536985    4.5509766 
H    -1.4693981   -5.3701443    3.7695909 
H     0.8175841   -6.8791009    2.3428321 
H    -0.8971059   -7.3216045    2.3434929 
H    -1.3911888   -0.0020612    6.0657283 
H    -3.7468385   -0.2907565    5.2829598 
H    -4.1931716   -1.5145602    3.1407284 
H    -2.3002489   -2.3737265    1.7807946 
H     0.4431640   -1.6988089    6.5778462 
H     3.1630589   -1.1404729    5.9298051 
H     2.4461726   -2.9526015    7.4977214 
H     3.6176496   -1.8552022    8.2980496 
H     1.8831466   -1.7254949    8.6874477 
H     0.7599185    0.7422475    8.1492720 
H     1.2274589    3.0338447    9.0155345 
H     3.4277779    4.1269789    8.5431501 
H     5.1436294    2.9220151    7.1769027 
H     4.6700608    0.6278116    6.3158175 
H     3.0389046   -2.6165855    1.1968761 
H     5.2739935   -1.7159305    0.6096901 
H     5.4607729    0.3413106   -0.8118416 
H     3.4156593    1.5180635   -1.5548665 
H    -0.2040359    2.9849489    0.2519063 
H     3.1721238    3.9126642   -0.8322712 
H     5.1849884    3.9846935    0.6095830 
H     5.1450394    2.9144194    2.8787091 
H     3.0257277    1.8761122    3.7096365 
H    -0.8027141    1.7026139    3.7899359 
H     1.3559038    2.4384327    5.2065582 
H    -0.9981052    2.3816940    6.0269846 
H    -0.1668269    3.8835502    6.5188143 
H    -1.3393792    3.9272981    5.1688325 
H    -0.0152304    4.6826363    2.4864453 
H     1.0513013    6.8271459    1.8815022 
H     2.9212968    7.7522788    3.2744311 
H     3.7340385    6.4625323    5.2627429 
H     2.6768370    4.2804169    5.8459489 
H    -0.7978628    1.5110781   -2.8888034 
H    -1.0007333    5.5505302   -3.4071188 
H     0.2394626    5.7201125   -4.6595759 
H     0.8644130    6.8563092   -2.3690675 
H     2.0579981    5.6590015   -2.9422017 
H     2.8966965    1.6994336   -3.5524723 
H     4.0731275    0.2693112   -5.2107702 
H     2.7785013   -1.4532771   -6.5106839 
H     0.3217409   -1.6532876   -6.1747565 
H    -1.4599762    1.7301180   -4.9442244 
H    -3.8372646    0.0119409   -4.3812372 
H    -3.3961350    1.3638192   -7.1160858 
H    -4.8906541    0.5262110   -6.5991924 
H    -3.3618725   -0.3983697   -6.7692066 
H    -5.4697113    1.1544093   -3.1635636 
H    -6.4959943    3.2646917   -2.3286780 
H    -5.6740616    5.4751444   -3.1630387 
H    -3.8287154    5.5527513   -4.8544850 
H    -2.8023976    3.4561355   -5.6833412 
