197
Energy =
C     2.6197646    0.9758091    3.0281962 
C     1.4405497    0.7353245    3.7866468 
C     0.9101459   -0.5871989    3.7975285 
H     0.8658486    1.5633761    4.2188126 
Pd    0.9911786    0.2656189    1.7191713 
P    -0.5760236   -0.8817777    0.4299435 
P     1.3099758    1.5540535   -0.1830621 
H     3.2563644    0.0980036    2.8328653 
H     1.6423175   -1.3976183    3.6756352 
C     4.8025847    4.6558189    2.6307528 
C     3.4591125    4.6951625    3.0409812 
C     2.7249233    3.5105066    3.1625295 
C     3.3194415    2.2612362    2.8650588 
C     4.6588240    2.2416755    2.4122390 
C     5.3955324    3.4267411    2.3053091 
H     5.3821731    5.5831372    2.5688745 
H     2.9877200    5.6552904    3.2718777 
H     1.6831040    3.5525689    3.4948161 
H     5.1371396    1.2876993    2.1632704 
H     6.4329706    3.3824111    1.9616518 
C    -2.7779793   -1.7610176    5.6789720 
C    -2.6798306   -0.5062063    5.0558065 
C    -1.4878903   -0.1100840    4.4410654 
C    -0.3644505   -0.9714106    4.4355993 
C    -0.4750168   -2.2327788    5.0641348 
C    -1.6704198   -2.6211590    5.6847736 
H    -3.7195646   -2.0703977    6.1429179 
H    -3.5509081    0.1552467    5.0239976 
H    -1.4328836    0.8529651    3.9212844 
H     0.3913893   -2.9036965    5.0874053 
H    -1.7342804   -3.5976576    6.1769632 
C    -7.9997344   -2.8882156   -1.8455927 
C    -9.0329832   -2.4078753   -2.6627746 
C    -9.7160153   -1.2321736   -2.3158746 
C    -9.3596933   -0.5409140   -1.1482287 
C    -8.3243899   -1.0222431   -0.3345831 
C    -7.6345052   -2.1994974   -0.6747130 
C    -6.5275044   -2.7157341    0.2409690 
C    -7.0589750   -3.7711459    1.2258851 
N    -5.3834347   -3.2816502   -0.5008615 
C    -4.2577159   -2.6253275   -0.9027795 
O    -3.2884932   -3.2231995   -1.3983928 
C    -4.2789127   -1.1229937   -0.8066939 
C    -5.1456908   -0.4508189   -1.6937676 
C    -5.1484067    0.9441093   -1.7762322 
C    -4.2932853    1.6822831   -0.9473820 
C    -3.4395023    1.0252100   -0.0556577 
C    -3.4072703   -0.3810874    0.0175205 
C    -2.3989633   -0.9773974    0.9885696 
C    -0.4635522   -2.7543065    0.1535929 
N    -1.6182119   -3.3091528    0.8701002 
N    -2.5657002   -2.3759963    1.3749655 
C    -1.9538386   -4.6369091    0.6822995 
O    -1.2610963   -5.3766138   -0.0175704 
C    -3.1434087   -5.1067381    1.4993762 
C    -3.3649948   -4.2191275    2.7319859 
C    -3.4918966   -2.7594453    2.3308078 
O    -4.3303347   -1.9653052    2.7470953 
C     0.8149942   -3.4274864    0.6289438 
C     1.7524246   -4.0107191   -0.2525797 
C     2.9323572   -4.5756212    0.2704462 
C     3.1800388   -4.5907231    1.6486761 
C     2.2303639   -4.0414372    2.5262904 
C     1.0613325   -3.4709628    2.0116219 
C     1.6073208   -4.0349255   -1.7562888 
O     2.5335913   -3.6644998   -2.4902009 
N     0.4216312   -4.5069764   -2.2194434 
C     0.1394043   -4.6053334   -3.6557983 
C    -1.3596673   -4.8890972   -3.8484792 
C     1.0098716   -5.6589433   -4.3390763 
C     1.5764162   -5.4031139   -5.5990485 
C     2.3348104   -6.3835587   -6.2548573 
C     2.5389763   -7.6337011   -5.6524265 
C     1.9804603   -7.8958564   -4.3918153 
C     1.2199859   -6.9147883   -3.7410371 
C    -0.5951807   -0.1599064   -1.2631696 
C    -1.3609583   -0.7302151   -2.2950903 
C    -1.3615121   -0.1484701   -3.5703371 
C    -0.5990091    0.9993311   -3.8236881 
C     0.1805846    1.5612299   -2.8044129 
C     0.1938765    0.9883071   -1.5209784 
C     3.0529865    1.7643884   -0.9271951 
C     3.2784187    1.1124692   -2.2818348 
C     3.3876109    1.8675694   -3.4596071 
C     3.5804040    1.2363374   -4.6959788 
C     3.6651684   -0.1615549   -4.7664625 
C     3.5818234   -0.9288863   -3.5961748 
C     3.3998427   -0.2932623   -2.3556068 
C     3.2112479   -1.0813744   -1.0920940 
O     2.0933148   -1.0516307   -0.5285926 
N     4.2432468   -1.7500816   -0.5511522 
C     5.6554340   -1.7542085   -0.9690117 
C     6.1119345   -3.1854879   -1.2878722 
C     6.4795154   -1.0459777    0.1051141 
C     7.0622813    0.2032939   -0.1670137 
C     7.7809874    0.8870605    0.8252533 
C     7.9163782    0.3333955    2.1060607 
C     7.3267850   -0.9097164    2.3916792 
C     6.6165707   -1.5953853    1.3967108 
C     1.0984808    3.4366941    0.0656818 
N     2.2195157    4.0609507   -0.6454259 
N     3.3279631    3.2009686   -0.9090252 
C     2.3987807    5.4367222   -0.6230010 
O     1.6028330    6.1716995   -0.0435259 
C     3.6281764    5.9045216   -1.3781387 
C     4.8594328    5.1350942   -0.8867733 
C     4.6510261    3.6319037   -0.9284682 
O     5.5572503    2.8112260   -1.0228071 
C    -0.2468548    3.9968446   -0.3515280 
C    -0.4714088    4.4985602   -1.6467082 
C    -1.7171387    5.0153892   -2.0144242 
C    -2.7694497    5.0357887   -1.0883569 
C    -2.5593169    4.5465857    0.2045689 
C    -1.3039503    4.0347688    0.5803306 
C    -1.1373148    3.5179867    1.9885742 
O    -1.3161972    2.3168008    2.2544143 
N    -0.8210222    4.4319049    2.9457550 
C    -0.4204329    5.8470170    2.7350492 
C     0.1316008    6.3911208    4.0621879 
C    -1.5616933    6.7129226    2.2127267 
C    -1.3481653    7.5457525    1.1007374 
C    -2.3898253    8.3459702    0.6090963 
C    -3.6511193    8.3190885    1.2223110 
C    -3.8673054    7.4925895    2.3371379 
C    -2.8254517    6.6965972    2.8315450 
H    -7.4631885   -3.7997557   -2.1333188 
H    -9.3051190   -2.9527631   -3.5730895 
H   -10.5217236   -0.8555904   -2.9547689 
H    -9.8848805    0.3801670   -0.8734922 
H    -8.0369297   -0.4712034    0.5686105 
H    -6.1290703   -1.8710232    0.8271939 
H    -7.4135223   -4.6689059    0.6874739 
H    -7.9120149   -3.3584702    1.7874290 
H    -6.2756786   -4.0591250    1.9460775 
H    -5.3998423   -4.2773913   -0.7299010 
H    -5.8141224   -1.0384335   -2.3299406 
H    -5.8211129    1.4482942   -2.4772771 
H    -4.2848367    2.7741262   -0.9939237 
H    -2.7758161    1.6035727    0.5968961 
H    -2.4431587   -0.3844633    1.9184336 
H    -0.6071051   -2.8985158   -0.9281602 
H    -4.0312719   -5.0917930    0.8444642 
H    -2.9553526   -6.1573553    1.7696553 
H    -4.2671283   -4.4966306    3.2957432 
H    -2.4996341   -4.2998493    3.4175951 
H     3.6491879   -5.0116901   -0.4318123 
H     4.0948418   -5.0503028    2.0381067 
H     2.3972635   -4.0692065    3.6088300 
H     0.3045710   -3.0613239    2.6871951 
H    -0.2367637   -4.9113318   -1.5336515 
H     0.3904272   -3.6237900   -4.0986633 
H    -1.5988016   -4.9090069   -4.9241788 
H    -1.6204675   -5.8750067   -3.4246849 
H    -1.9797821   -4.1263434   -3.3479920 
H     1.4287122   -4.4221162   -6.0667650 
H     2.7734250   -6.1688008   -7.2355462 
H     3.1342431   -8.3995114   -6.1611224 
H     2.1383064   -8.8688382   -3.9136296 
H     0.7934717   -7.1206999   -2.7521292 
H    -1.9642059   -1.6267332   -2.1079353 
H    -1.9625135   -0.6002235   -4.3659828 
H    -0.5946411    1.4526903   -4.8199883 
H     0.8006419    2.4318638   -3.0210650 
H     3.7357191    1.2982335   -0.1926440 
H     3.3291162    2.9594658   -3.4039060 
H     3.6651839    1.8400785   -5.6055266 
H     3.8026397   -0.6574713   -5.7327688 
H     3.6166666   -2.0216377   -3.6281060 
H     3.9971866   -2.2963454    0.2795253 
H     5.7032553   -1.1498516   -1.8880828 
H     5.4491580   -3.6256346   -2.0510804 
H     7.1505286   -3.1784466   -1.6571535 
H     6.0759436   -3.8249793   -0.3883639 
H     6.9337411    0.6624572   -1.1513862 
H     8.2255294    1.8596639    0.5901027 
H     8.4759355    0.8662517    2.8822069 
H     7.4285073   -1.3486957    3.3900284 
H     6.1670303   -2.5681205    1.6325240 
H     1.2395954    3.5750317    1.1553754 
H     3.7248825    6.9887020   -1.2247308 
H     3.4683632    5.7203086   -2.4580719 
H     5.0902237    5.4061936    0.1582435 
H     5.7569356    5.3534908   -1.4858553 
H     0.3550360    4.5178192   -2.3625502 
H    -1.8618051    5.4150059   -3.0231746 
H    -3.7434013    5.4531490   -1.3618520 
H    -3.3640930    4.5859075    0.9439635 
H    -0.8032209    4.0624121    3.8985054 
H     0.3817480    5.8541067    1.9758567 
H    -0.6609664    6.4285986    4.8306245 
H     0.5031685    7.4168761    3.9126003 
H     0.9618740    5.7697849    4.4422078 
H    -0.3731052    7.5351820    0.6022218 
H    -2.2181247    8.9843528   -0.2641776 
H    -4.4652684    8.9407243    0.8346510 
H    -4.8494342    7.4697414    2.8216402 
H    -3.0027365    6.0387995    3.6909799 
