197
Energy =
C    -2.6602834   -2.5876868   -0.5646079 
C    -3.3536716   -1.3975141   -0.8790389 
C    -2.8366455   -0.5391125   -1.9033300 
H    -4.1832850   -1.0562274   -0.2470946 
Pd   -1.3555564   -0.7332235   -0.3165035 
P     0.0672017    0.9902668   -0.9490140 
P     0.2148036   -1.0738803    1.3925654 
H    -1.9475415   -2.9571304   -1.3180555 
H    -2.3183064   -1.0361919   -2.7349324 
C    -3.6752069   -5.4746013    2.4597070 
C    -2.4869963   -5.5928504    1.7223998 
C    -2.1829979   -4.6515966    0.7325546 
C    -3.0445551   -3.5624624    0.4688741 
C    -4.2514749   -3.4735086    1.2014694 
C    -4.5608011   -4.4183356    2.1857692 
H    -3.9226987   -6.2124058    3.2302005 
H    -1.7877827   -6.4118010    1.9151665 
H    -1.2624401   -4.7607372    0.1506473 
H    -4.9600505   -2.6663160    0.9916423 
H    -5.5029110   -4.3370400    2.7383531 
C    -4.5342794    3.3054618   -2.8464227 
C    -4.5660827    2.8357339   -1.5237675 
C    -3.9993898    1.5990892   -1.1977773 
C    -3.3991313    0.7951672   -2.1963782 
C    -3.3522218    1.2922676   -3.5182422 
C    -3.9198042    2.5315641   -3.8408841 
H    -4.9607984    4.2820155   -3.0924732 
H    -5.0219696    3.4472383   -0.7387319 
H    -3.9963514    1.2604194   -0.1556267 
H    -2.8822156    0.6810689   -4.2966946 
H    -3.8837929    2.8949704   -4.8738284 
C     1.0653579   -5.4801760   -4.4772141 
C     1.3765896   -5.5392007   -5.8422481 
C     2.7160037   -5.5778435   -6.2606941 
C     3.7421233   -5.5699707   -5.3049955 
C     3.4283598   -5.5035865   -3.9388377 
C     2.0902400   -5.4485110   -3.5103041 
C     1.7640960   -5.2406265   -2.0346617 
C     0.7744223   -6.2578846   -1.4422785 
N     1.2507064   -3.8664037   -1.8778658 
C     1.6871698   -2.8978694   -1.0557131 
O     1.1546402   -1.7642880   -1.0524369 
C     2.7460534   -3.1611079   -0.0253361 
C     4.1035776   -3.3452447   -0.3305078 
C     5.0408819   -3.4762552    0.7046745 
C     4.6175863   -3.4328944    2.0412699 
C     3.2622551   -3.2402389    2.3467010 
C     2.3190631   -3.0907862    1.3193991 
C     0.8413360   -2.8535631    1.5715787 
C    -0.0607558   -0.8976548    3.2740437 
N     0.3117440   -2.2248268    3.8489247 
N     0.3622739   -3.2821317    2.8831213 
C     0.0586300   -2.4859165    5.1810013 
O     0.0115814   -1.5659544    6.0032141 
C    -0.2719757   -3.9202980    5.5342087 
C     0.4752195   -4.9530943    4.6900481 
C     0.4832414   -4.6289106    3.2108152 
O     0.6589878   -5.4596012    2.3243594 
C    -1.4679371   -0.4778660    3.6666845 
C    -1.7398132    0.7129594    4.3834272 
C    -3.0782976    1.0575427    4.6608528 
C    -4.1362864    0.2298994    4.2712381 
C    -3.8634060   -0.9604985    3.5793576 
C    -2.5412569   -1.3006512    3.2738322 
C    -0.7048832    1.7163930    4.8492452 
O    -0.8804913    2.9300063    4.6626194 
N     0.3711348    1.1945335    5.4904021 
C     1.4163458    2.0215620    6.0984286 
C     2.7989786    1.4430717    5.7426977 
C     1.2327772    2.1566660    7.6097194 
C     0.8618069    1.0548457    8.4048179 
C     0.7464708    1.1899817    9.7957085 
C     1.0022385    2.4248508   10.4108838 
C     1.3714615    3.5269039    9.6260071 
C     1.4840407    3.3913629    8.2347458 
C     1.6524007    0.0518188    1.1379390 
C     2.7635335    0.0529366    1.9964356 
C     3.8203077    0.9520063    1.7905461 
C     3.7622304    1.8699524    0.7350273 
C     2.6482295    1.8870868   -0.1159887 
C     1.5921830    0.9798515    0.0710072 
C    -0.4899734    2.8084515   -1.0667607 
C     0.1157581    3.7754034   -0.0570668 
C     1.0743290    4.7237778   -0.4467674 
C     1.6263995    5.6141967    0.4833864 
C     1.2264717    5.5634475    1.8253252 
C     0.2487789    4.6447670    2.2263104 
C    -0.3175337    3.7651199    1.2896492 
C    -1.3434890    2.7460608    1.6743419 
O    -1.0780816    1.5385949    1.4721102 
N    -2.5736653    3.0993898    2.1188409 
C    -3.0559130    4.3512420    2.7422607 
C    -4.5821160    4.2231744    2.9034163 
C    -2.7018198    5.6148548    1.9721088 
C    -2.7267106    5.6681709    0.5678910 
C    -2.4203846    6.8598653   -0.1031585 
C    -2.1054482    8.0175960    0.6237857 
C    -2.0919029    7.9763752    2.0260636 
C    -2.3835652    6.7793480    2.6941310 
C     0.5179830    0.9576190   -2.8213507 
N     0.7057607    2.3875591   -3.1559008 
N    -0.2405666    3.1876601   -2.4591584 
C     1.2639069    2.8701752   -4.3376027 
O     1.8833046    2.1511751   -5.1147890 
C     0.9397582    4.3300539   -4.6139733 
C    -0.5806166    4.5114362   -4.4826090 
C    -1.0049307    4.1792230   -3.0632582 
O    -1.8770493    4.7622842   -2.4327247 
C     1.6263083    0.0286412   -3.2615577 
C     2.9759492    0.3222363   -3.0003875 
C     3.9951489   -0.5577307   -3.3735086 
C     3.6821555   -1.7553961   -4.0323148 
C     2.3463114   -2.0610773   -4.3091357 
C     1.3167889   -1.1834279   -3.9242337 
C    -0.0939546   -1.6316887   -4.2179231 
O    -0.6345414   -2.5622742   -3.5895281 
N    -0.7541146   -0.9842921   -5.2200057 
C    -0.0931073   -0.1501592   -6.2520331 
C    -1.1574803    0.6415076   -7.0225998 
C     0.8046666   -0.9869574   -7.1604982 
C     0.3386476   -2.1674481   -7.7684619 
C     1.1870417   -2.9297686   -8.5828084 
C     2.5124582   -2.5194513   -8.7956563 
C     2.9828328   -1.3435929   -8.1926380 
C     2.1337237   -0.5806163   -7.3779164 
H     0.0157464   -5.4214612   -4.1690286 
H     0.5715240   -5.5423915   -6.5841301 
H     2.9569574   -5.6093924   -7.3279473 
H     4.7894983   -5.6084238   -5.6229488 
H     4.2339331   -5.4813574   -3.1953014 
H     2.7007971   -5.3012605   -1.4589989 
H     1.1405439   -7.2845895   -1.6098466 
H    -0.2215462   -6.1668777   -1.9094699 
H     0.6755237   -6.0909032   -0.3559971 
H     0.5126403   -3.5313645   -2.5322288 
H     4.4210991   -3.3702185   -1.3782272 
H     6.1004344   -3.6172283    0.4684274 
H     5.3453590   -3.5483040    2.8509338 
H     2.9382402   -3.2042935    3.3925287 
H     0.2602897   -3.4195671    0.8290733 
H     0.6689980   -0.1541375    3.6203709 
H    -0.1004638   -4.0547385    6.6123491 
H    -1.3636055   -4.0091239    5.3599692 
H     1.5400645   -5.0024689    4.9919582 
H     0.0647031   -5.9666819    4.8144430 
H    -3.2668107    1.9888438    5.2043243 
H    -5.1677883    0.5047634    4.5157367 
H    -4.6776610   -1.6250360    3.2777438 
H    -2.3374996   -2.2215793    2.7154143 
H     0.3253442    0.1906590    5.7338435 
H     1.3076008    3.0199015    5.6445873 
H     2.9400453    1.4318648    4.6478598 
H     3.5968856    2.0519871    6.1991214 
H     2.8972041    0.4120304    6.1280694 
H     0.6499607    0.0844221    7.9412968 
H     0.4530165    0.3260200   10.4019406 
H     0.9097528    2.5287000   11.4972206 
H     1.5656245    4.4967833   10.0966016 
H     1.7653698    4.2576895    7.6240272 
H     2.8142504   -0.6480176    2.8342513 
H     4.6831365    0.9369778    2.4640367 
H     4.5762357    2.5844371    0.5772786 
H     2.5983927    2.6227170   -0.9216660 
H    -1.5874215    2.7773040   -0.9374950 
H     1.3850592    4.7708574   -1.4949737 
H     2.3685556    6.3494763    0.1557491 
H     1.6594717    6.2522759    2.5574724 
H    -0.0802563    4.5891876    3.2671604 
H    -3.1143394    2.2695072    2.3801964 
H    -2.5974634    4.4067374    3.7466827 
H    -4.8464629    3.3262901    3.4930913 
H    -4.9752035    5.1090211    3.4266050 
H    -5.0716267    4.1594241    1.9158750 
H    -2.9460404    4.7702681   -0.0175679 
H    -2.4171748    6.8643558   -1.1967655 
H    -1.8656674    8.9489237    0.0993292 
H    -1.8427086    8.8744562    2.6015633 
H    -2.3505556    6.7427561    3.7896450 
H    -0.4406909    0.6345791   -3.2704524 
H     1.3109659    4.5580867   -5.6231434 
H     1.4629789    4.9865370   -3.8934554 
H    -1.1132645    3.8404004   -5.1842451 
H    -0.9080413    5.5402531   -4.6937390 
H     3.2350428    1.2677136   -2.5220020 
H     5.0374554   -0.2984540   -3.1612915 
H     4.4699367   -2.4464479   -4.3478851 
H     2.0945676   -2.9801199   -4.8445413 
H    -1.6595217   -1.4004146   -5.4536226 
H     0.5582834    0.5619515   -5.7226705 
H    -1.8540365   -0.0315231   -7.5549560 
H    -0.6668758    1.2792159   -7.7747928 
H    -1.7401798    1.2859609   -6.3402826 
H    -0.6910756   -2.5044551   -7.5981512 
H     0.8141675   -3.8472203   -9.0511081 
H     3.1765881   -3.1167900   -9.4295254 
H     4.0182740   -1.0227342   -8.3489498 
H     2.5020043    0.3256967   -6.8845104 
