197
Energy =
C     2.8135873    0.2636692    1.8821794 
C     1.7112847   -0.1959942    2.6515577 
C     0.9950766   -1.3605292    2.2514258 
H     1.3043567    0.4283614    3.4567612 
Pd    0.9932339    0.1988742    0.6406115 
P    -0.8349574   -0.2601271   -0.7053188 
P     1.2805293    2.0686068   -0.6930558 
H     3.3458164   -0.4843358    1.2733860 
H     1.5535403   -2.1297229    1.6976031 
C     5.1919020    3.7523077    2.7090847 
C     3.8914441    3.6653560    3.2353617 
C     3.0945332    2.5472007    2.9668176 
C     3.5807177    1.4935729    2.1550976 
C     4.8726323    1.6169341    1.5985873 
C     5.6744740    2.7290289    1.8804384 
H     5.8211292    4.6166570    2.9474446 
H     3.5034376    4.4742801    3.8617870 
H     2.0864642    2.4904043    3.3892876 
H     5.2595698    0.8211881    0.9565372 
H     6.6742203    2.7900317    1.4403314 
C    -2.3932921   -2.7198527    4.5275437 
C    -2.2194045   -1.3468098    4.2908334 
C    -1.1404551   -0.8883427    3.5279678 
C    -0.2136749   -1.8050543    2.9763201 
C    -0.4169534   -3.1830736    3.1955897 
C    -1.4868798   -3.6373972    3.9770332 
H    -3.2433844   -3.0717236    5.1205274 
H    -2.9459130   -0.6293084    4.6850061 
H    -1.0328519    0.1819771    3.3206076 
H     0.2822990   -3.9036547    2.7663912 
H    -1.6114008   -4.7129207    4.1429128 
C    -6.7712156   -5.8173291   -1.3770110 
C    -6.9226563   -6.8707883   -0.4666309 
C    -7.0165383   -6.6045965    0.9089469 
C    -6.9522060   -5.2799292    1.3618364 
C    -6.7939585   -4.2251066    0.4485909 
C    -6.7040517   -4.4818222   -0.9316310 
C    -6.5573668   -3.3649361   -1.9665772 
C    -7.8835494   -3.1021825   -2.7096794 
N    -6.0617814   -2.1179672   -1.3822152 
C    -4.8832422   -1.5190906   -1.7202717 
O    -4.0485730   -2.0360952   -2.4785047 
C    -4.7419983   -0.1175215   -1.1848724 
C    -5.7367316    0.8008074   -1.5894225 
C    -5.6625626    2.1533753   -1.2448935 
C    -4.5924394    2.5979169   -0.4574268 
C    -3.6166071    1.6934998   -0.0293911 
C    -3.6631019    0.3322814   -0.3915540 
C    -2.5196228   -0.5221874    0.1356616 
C    -1.1577028   -1.8292682   -1.7218828 
N    -1.8010664   -2.7292269   -0.7458021 
N    -2.6922061   -1.9779823    0.1034146 
C    -2.1404148   -4.0341726   -1.0876292 
O    -1.4765789   -4.6719956   -1.9102040 
C    -3.3096791   -4.6171938   -0.3357481 
C    -3.3755630   -4.0971676    1.0981897 
C    -3.4575841   -2.5879156    1.0932441 
O    -4.1514485   -1.9010453    1.8359380 
C    -0.0709821   -2.3419772   -2.6382921 
C     1.1263554   -3.0116553   -2.2895750 
C     2.0588583   -3.3287407   -3.2948436 
C     1.8518227   -2.9700506   -4.6318815 
C     0.6814861   -2.2870293   -4.9797002 
C    -0.2628723   -1.9929043   -3.9912267 
C     1.5685832   -3.4672114   -0.9173791 
O     2.5472562   -2.9370129   -0.3422992 
N     0.9530998   -4.5724107   -0.4519427 
C     1.5040515   -5.3933957    0.6358930 
C     2.6383876   -6.2920370    0.0933222 
C     0.4300598   -6.2160971    1.3365900 
C    -0.6710112   -6.7622306    0.6507257 
C    -1.6176399   -7.5456998    1.3293528 
C    -1.4726147   -7.8063913    2.6990383 
C    -0.3651495   -7.2869682    3.3867863 
C     0.5769364   -6.5018601    2.7084801 
C    -0.9953640    1.0782867   -1.9646589 
C    -1.9999698    1.0627018   -2.9507780 
C    -2.0384614    2.0548377   -3.9401371 
C    -1.0675518    3.0643120   -3.9644813 
C    -0.0632431    3.0910276   -2.9881960 
C    -0.0227121    2.1119030   -1.9813217 
C     2.9739990    2.4313078   -1.4819133 
C     3.1238895    2.2381687   -2.9818290 
C     3.2522336    3.3086973   -3.8773819 
C     3.4473575    3.0689263   -5.2456124 
C     3.5292982    1.7547514   -5.7276083 
C     3.4138710    0.6762568   -4.8380531 
C     3.2105453    0.9163852   -3.4708323 
C     2.8944953   -0.1726603   -2.4884348 
O     1.7175698   -0.2061874   -2.0631714 
N     3.8330281   -1.0173317   -2.0345487 
C     5.2674357   -0.9897809   -2.3478458 
C     5.6729086   -2.2277733   -3.1693971 
C     6.0874090   -0.8647601   -1.0662682 
C     5.8896494   -1.7564126    0.0090068 
C     6.6778840   -1.6591926    1.1646707 
C     7.6783738   -0.6782736    1.2575828 
C     7.8748115    0.2153781    0.1948051 
C     7.0781225    0.1281445   -0.9575345 
C     1.2656483    3.7539642    0.2194532 
N     2.3799632    4.5244304   -0.3438572 
N     3.3744681    3.7583334   -1.0223695 
C     2.6908896    5.7891368    0.1309113 
O     2.0111026    6.3277376    1.0012357 
C     3.9116615    6.4035786   -0.5293307 
C     5.0920500    5.4281240   -0.4448804 
C     4.7368087    4.0541431   -0.9833207 
O     5.5470659    3.2435999   -1.4195789 
C    -0.0557490    4.4920518    0.1530837 
C    -0.3344228    5.4247808   -0.8630462 
C    -1.5725221    6.0703098   -0.9296165 
C    -2.5637565    5.7881497    0.0211542 
C    -2.2958051    4.8745665    1.0445999 
C    -1.0460593    4.2331365    1.1219210 
C    -0.8133425    3.2562148    2.2481733 
O    -1.0781302    2.0495870    2.1113451 
N    -0.3376724    3.7646089    3.4169670 
C     0.1524835    5.1454163    3.6614480 
C     0.8144406    5.1783225    5.0479171 
C    -0.9527845    6.1900986    3.5474889 
C    -2.1735512    6.0290471    4.2289686 
C    -3.1846978    6.9916903    4.1096846 
C    -2.9805548    8.1292410    3.3115308 
C    -1.7614625    8.2982891    2.6387627 
C    -0.7503322    7.3331638    2.7548440 
H    -6.6907016   -6.0345798   -2.4488121 
H    -6.9654765   -7.9027254   -0.8311560 
H    -7.1371602   -7.4266657    1.6222781 
H    -7.0168070   -5.0598689    2.4329090 
H    -6.6986390   -3.2040157    0.8319976 
H    -5.7853970   -3.6588030   -2.6992625 
H    -8.6592377   -2.7537880   -2.0045479 
H    -8.2503100   -4.0284737   -3.1814824 
H    -7.7407131   -2.3382531   -3.4930251 
H    -6.6737821   -1.6057070   -0.7479894 
H    -6.5655799    0.4408392   -2.2094216 
H    -6.4341574    2.8508585   -1.5864499 
H    -4.5136014    3.6510325   -0.1737915 
H    -2.7896570    2.0364224    0.6015772 
H    -2.3644168   -0.2384758    1.1908407 
H    -1.9853656   -1.5042964   -2.3789752 
H    -4.2208256   -4.3265067   -0.8872919 
H    -3.2345940   -5.7117419   -0.3836090 
H    -4.2489748   -4.4855256    1.6387884 
H    -2.4672376   -4.3938640    1.6527378 
H     2.9689483   -3.8680281   -3.0134461 
H     2.5948637   -3.2349607   -5.3915443 
H     0.4910141   -1.9973995   -6.0179641 
H    -1.1868546   -1.4775333   -4.2709126 
H     0.1887008   -4.9311946   -1.0411643 
H     1.9467436   -4.6877270    1.3596491 
H     3.0833228   -6.8816686    0.9122113 
H     2.2440247   -6.9909410   -0.6639184 
H     3.4259717   -5.6682271   -0.3630344 
H    -0.8126076   -6.5764054   -0.4198473 
H    -2.4718889   -7.9569173    0.7803634 
H    -2.2130617   -8.4167797    3.2263593 
H    -0.2351806   -7.4896768    4.4551399 
H     1.4365054   -6.0967801    3.2556829 
H    -2.7617320    0.2766533   -2.9535769 
H    -2.8284745    2.0298278   -4.6974216 
H    -1.0868005    3.8318983   -4.7447042 
H     0.7011477    3.8695036   -3.0222549 
H     3.6501067    1.7093573   -0.9853763 
H     3.2224441    4.3351209   -3.4968797 
H     3.5476167    3.9132194   -5.9353665 
H     3.6860299    1.5688945   -6.7949982 
H     3.4616665   -0.3551621   -5.2015389 
H     3.4611558   -1.7294125   -1.3684153 
H     5.4379363   -0.0846014   -2.9538965 
H     5.0913626   -2.2751182   -4.1060977 
H     6.7466894   -2.1859791   -3.4159306 
H     5.4896918   -3.1520206   -2.5941973 
H     5.1086106   -2.5243702   -0.0451151 
H     6.5113428   -2.3531076    1.9954742 
H     8.2952126   -0.6060290    2.1593224 
H     8.6444596    0.9915625    0.2635988 
H     7.2128332    0.8515342   -1.7684378 
H     1.5013546    3.4901678    1.2687101 
H     4.1220677    7.3570570   -0.0243844 
H     3.6689744    6.6176153   -1.5880966 
H     5.4085994    5.2975134    0.6048046 
H     5.9695569    5.7821393   -1.0080317 
H     0.4430880    5.6668975   -1.5928160 
H    -1.7599804    6.8028197   -1.7212472 
H    -3.5313506    6.2980279   -0.0161170 
H    -3.0462949    4.6763114    1.8151989 
H    -0.2648957    3.0857161    4.1773788 
H     0.9107138    5.3720914    2.8907896 
H     0.0698117    4.9963828    5.8431324 
H     1.2566248    6.1718429    5.2209221 
H     1.6130473    4.4200341    5.1327284 
H    -2.3432229    5.1326816    4.8375814 
H    -4.1335510    6.8558506    4.6399194 
H    -3.7710779    8.8813859    3.2166100 
H    -1.5997294    9.1804694    2.0100565 
H     0.1885171    7.4428748    2.2020528 
