197
Energy =
C     2.8976155    0.0331898    1.8665790 
C     1.8146339   -0.5090205    2.6098708 
C     1.1878166   -1.7120361    2.1720536 
H     1.3492045    0.0748441    3.4133770 
Pd    1.1023375   -0.1233159    0.5934409 
P    -0.7025630   -0.6799945   -0.7273827 
P     1.1979217    1.8184704   -0.6660844 
H     3.4755873   -0.6692872    1.2453782 
H     1.8146787   -2.4226688    1.6152887 
C     5.0308166    3.6701004    2.7208069 
C     3.7624602    3.4664632    3.2903558 
C     3.0456251    2.2965800    3.0164668 
C     3.5810018    1.3068620    2.1568753 
C     4.8385590    1.5461910    1.5593858 
C     5.5603216    2.7106106    1.8453715 
H     5.5993021    4.5745794    2.9628515 
H     3.3367691    4.2246085    3.9545218 
H     2.0624608    2.1490163    3.4738746 
H     5.2623507    0.8010287    0.8804652 
H     6.5353115    2.8621618    1.3728289 
C    -2.2006468   -3.4191768    4.2099122 
C    -1.2254889   -4.2406996    3.6258172 
C    -0.1516202   -3.6698719    2.9296483 
C    -0.0086313   -2.2700211    2.8356827 
C    -0.9991215   -1.4508125    3.4288260 
C    -2.0853110   -2.0239266    4.0990139 
H    -3.0526662   -3.8601140    4.7371266 
H    -1.2923224   -5.3313474    3.7095074 
H     0.5969350   -4.3193071    2.4715486 
H    -0.9356282   -0.3622643    3.3251038 
H    -2.8601645   -1.3776401    4.5230056 
C    -8.3822326   -2.1581035   -2.2926234 
C    -9.4961697   -1.5236181   -2.8620602 
C   -10.1686633   -0.5141859   -2.1571111 
C    -9.7207690   -0.1435110   -0.8799113 
C    -8.6060487   -0.7779195   -0.3145350 
C    -7.9249938   -1.7910139   -1.0142121 
C    -6.7303815   -2.4816579   -0.3580240 
C    -7.1731863   -3.7244052    0.4335471 
N    -5.6820994   -2.8581929   -1.3252285 
C    -4.6150156   -2.1095888   -1.7299877 
O    -3.7888700   -2.5457056   -2.5480203 
C    -4.5379181   -0.7002886   -1.1989704 
C    -5.5094537    0.1976508   -1.6911628 
C    -5.4885218    1.5509913   -1.3433664 
C    -4.4988637    2.0164701   -0.4681136 
C    -3.5333719    1.1351985    0.0266821 
C    -3.5188580   -0.2252177   -0.3425579 
C    -2.3326357   -1.0210850    0.1866441 
C    -0.9617591   -2.2831556   -1.7123497 
N    -1.5055794   -3.1851779   -0.6821055 
N    -2.4385056   -2.4881066    0.1565418 
C    -1.4831653   -4.5598857   -0.7407853 
O    -0.8326987   -5.1628821   -1.6033154 
C    -2.2132115   -5.2765547    0.3734276 
C    -3.5294968   -4.6084727    0.7582355 
C    -3.4158696   -3.1069109    0.9165346 
O    -4.1626451   -2.4290563    1.6197705 
C     0.1430070   -2.7311124   -2.6439690 
C     1.4352453   -3.2181380   -2.3230193 
C     2.3576002   -3.4564815   -3.3599836 
C     2.0486393   -3.1985552   -4.7006024 
C     0.7807150   -2.7044845   -5.0223364 
C    -0.1509201   -2.4868022   -4.0020401 
C     2.0226950   -3.5464171   -0.9655325 
O     2.9359420   -2.8493633   -0.4651253 
N     1.6431107   -4.7246287   -0.4322710 
C     2.4163900   -5.4113762    0.6157255 
C     3.6843860   -6.0476709    0.0039087 
C     1.5711788   -6.4461806    1.3469145 
C     0.6445415   -7.2658525    0.6743627 
C    -0.0919175   -8.2328747    1.3748649 
C     0.0929232   -8.4029500    2.7545065 
C     1.0253302   -7.6018664    3.4312528 
C     1.7591189   -6.6350940    2.7301497 
C    -0.9936908    0.6647541   -1.9516951 
C    -1.9855433    0.5724839   -2.9449338 
C    -2.1427141    1.6005340   -3.8847339 
C    -1.3030847    2.7209522   -3.8514508 
C    -0.3037022    2.8170770   -2.8741526 
C    -0.1425489    1.8005398   -1.9180689 
C     2.8261596    2.3563463   -1.5002715 
C     2.9096152    2.2734491   -3.0151998 
C     2.9094577    3.4051866   -3.8423530 
C     3.0326674    3.2659621   -5.2326169 
C     3.1674531    1.9932389   -5.8059425 
C     3.1814206    0.8550541   -4.9858650 
C     3.0546575    0.9949019   -3.5961622 
C     2.8887301   -0.1684839   -2.6618543 
O     1.7341413   -0.3690932   -2.2251628 
N     3.9409600   -0.8857422   -2.2383792 
C     5.3498218   -0.6810594   -2.5993139 
C     5.8435155   -1.8028347   -3.5331387 
C     6.2090492   -0.5701118   -1.3426064 
C     6.1513402   -1.5564969   -0.3356105 
C     6.9781992   -1.4681306    0.7934343 
C     7.8793516   -0.3996972    0.9273940 
C     7.9368975    0.5873268   -0.0671964 
C     7.1013431    0.5070469   -1.1920942 
C     1.0874234    3.4522973    0.3306088 
N     2.1293226    4.3290417   -0.2171389 
N     3.1500889    3.6767309   -0.9691554 
C     2.3638655    5.5855413    0.3187260 
O     1.6777152    6.0237216    1.2390575 
C     3.5095616    6.3263179   -0.3465170 
C     4.7616033    5.4409630   -0.3672309 
C     4.4858200    4.0741459   -0.9672243 
O     5.3348963    3.3532363   -1.4809023 
C    -0.2788811    4.1078109    0.3370298 
C    -0.6480433    5.0574502   -0.6334450 
C    -1.9184290    5.6408250   -0.6254230 
C    -2.8507035    5.2793333    0.3574579 
C    -2.4926667    4.3484984    1.3373943 
C    -1.2108272    3.7686636    1.3384038 
C    -0.8764546    2.7693697    2.4178721 
O    -1.0210744    1.5495818    2.2258484 
N    -0.4485804    3.2682517    3.6088761 
C    -0.0354907    4.6658459    3.8984596 
C     0.6616417    4.6831028    5.2679974 
C    -1.2014066    5.6475833    3.8572819 
C    -1.0857977    6.8313383    3.1082139 
C    -2.1513686    7.7420931    3.0604148 
C    -3.3390439    7.4772891    3.7580856 
C    -3.4566515    6.2985765    4.5127974 
C    -2.3907801    5.3904780    4.5642646 
H    -7.8563006   -2.9347697   -2.8594541 
H    -9.8387004   -1.8181288   -3.8598648 
H   -11.0367377   -0.0168468   -2.6023811 
H   -10.2369241    0.6473641   -0.3250402 
H    -8.2492343   -0.4750654    0.6770494 
H    -6.2571436   -1.7805323    0.3490138 
H    -7.5528187   -4.5104209   -0.2446309 
H    -7.9915893   -3.4516417    1.1188682 
H    -6.3367036   -4.1185125    1.0319097 
H    -5.7659224   -3.7576316   -1.8038992 
H    -6.2859304   -0.1794750   -2.3631762 
H    -6.2468448    2.2300119   -1.7460292 
H    -4.4668207    3.0693256   -0.1749811 
H    -2.7531393    1.4999162    0.7028666 
H    -2.1582889   -0.7146836    1.2310247 
H    -1.8307498   -2.0365896   -2.3487581 
H    -2.3562570   -6.3164087    0.0471258 
H    -1.5235947   -5.2949160    1.2354934 
H    -4.2901387   -4.7790766   -0.0253736 
H    -3.9334100   -5.0066754    1.7012828 
H     3.3453368   -3.8515447   -3.1008688 
H     2.7911662   -3.3952911   -5.4811201 
H     0.5064731   -2.5010016   -6.0623191 
H    -1.1483571   -2.1167335   -4.2588126 
H     0.8951638   -5.2217780   -0.9362550 
H     2.7362031   -4.6356959    1.3326327 
H     4.2854595   -6.5301150    0.7924815 
H     3.4068708   -6.8136542   -0.7402320 
H     4.2977948   -5.2716127   -0.4849803 
H     0.4678781   -7.1479470   -0.4005493 
H    -0.8130236   -8.8567099    0.8358441 
H    -0.4825634   -9.1587274    3.2991876 
H     1.1803236   -7.7266051    4.5080971 
H     2.4809644   -6.0084722    3.2670847 
H    -2.6485429   -0.2972863   -2.9893513 
H    -2.9233727    1.5170762   -4.6473985 
H    -1.4163326    3.5196774   -4.5913906 
H     0.3651235    3.6792626   -2.8721296 
H     3.5759317    1.6571747   -1.0841412 
H     2.8325080    4.4008194   -3.3927819 
H     3.0332140    4.1567505   -5.8691530 
H     3.2657610    1.8866000   -6.8910475 
H     3.2748794   -0.1454871   -5.4205739 
H     3.6772618   -1.6344330   -1.5610603 
H     5.3998470    0.2809397   -3.1363469 
H     5.2224499   -1.8447128   -4.4445114 
H     6.8925885   -1.6249012   -3.8220049 
H     5.7894147   -2.7815616   -3.0254506 
H     5.4459305   -2.3915773   -0.4180408 
H     6.9193257   -2.2371283    1.5710936 
H     8.5270024   -0.3335416    1.8077863 
H     8.6291522    1.4301127    0.0337161 
H     7.1263796    1.3001036   -1.9460086 
H     1.3696590    3.1541684    1.3590554 
H     3.6704956    7.2621386    0.2072949 
H     3.2071502    6.5830715   -1.3801680 
H     5.1362587    5.2806307    0.6586647 
H     5.5825833    5.8909535   -0.9468623 
H     0.0851018    5.3659067   -1.3838895 
H    -2.1769086    6.3875564   -1.3830133 
H    -3.8431364    5.7399496    0.3793812 
H    -3.1994592    4.0859303    2.1294636 
H    -0.3048216    2.5650488    4.3363971 
H     0.6859762    4.9666612    3.1182088 
H    -0.0485020    4.4246815    6.0734743 
H     1.0482171    5.6940006    5.4711056 
H     1.5063433    3.9721164    5.3012792 
H    -0.1710115    7.0157045    2.5352622 
H    -2.0570222    8.6570367    2.4657180 
H    -4.1723439    8.1868597    3.7161651 
H    -4.3807116    6.0881346    5.0621124 
H    -2.4926129    4.4619490    5.1388651 
