197
Energy =
C    -2.5421548   -2.3804450   -1.0073742 
C    -3.2830493   -1.1781210   -1.0221396 
C    -2.8431527   -0.0822873   -1.8420679 
H    -4.0795138   -1.0117819   -0.2855709 
Pd   -1.2838305   -0.5780929   -0.4121936 
P     0.1944901    1.1519398   -0.8643023 
P     0.2594186   -1.1765700    1.2233736 
H    -1.8601158   -2.5586387   -1.8543362 
H    -2.4081400   -0.3300316   -2.8216233 
C    -3.1425746   -5.8553272    1.4493358 
C    -4.0253386   -4.7676927    1.5684284 
C    -3.8595524   -3.6335686    0.7669175 
C    -2.7967421   -3.5579056   -0.1644718 
C    -1.9332292   -4.6714573   -0.2887699 
C    -2.1017755   -5.8079142    0.5094473 
H    -3.2774139   -6.7430445    2.0763456 
H    -4.8542493   -4.8095047    2.2829242 
H    -4.5698011   -2.8059081    0.8564970 
H    -1.1210395   -4.6368907   -1.0228735 
H    -1.4081515   -6.6471528    0.4108893 
C    -4.5237302    3.8693511   -1.5019574 
C    -4.4385648    3.0439147   -0.3695733 
C    -3.8861459    1.7626555   -0.4679135 
C    -3.4114881    1.2764584   -1.7104439 
C    -3.4750714    2.1278504   -2.8357242 
C    -4.0381230    3.4055860   -2.7323103 
H    -4.9412738    4.8772393   -1.4189919 
H    -4.7922254    3.4066527    0.6002343 
H    -3.7846261    1.1448525    0.4316898 
H    -3.0990526    1.7726671   -3.8001253 
H    -4.0898388    4.0459864   -3.6185151 
C     1.9970708   -5.1343876   -4.9131252 
C     2.5088176   -5.1087058   -6.2177695 
C     3.8954502   -5.0598229   -6.4327236 
C     4.7677065   -5.0418346   -5.3346031 
C     4.2530411   -5.0630173   -4.0293092 
C     2.8654587   -5.1052103   -3.8035661 
C     2.3168336   -5.0220167   -2.3825985 
C     1.3201571   -6.1341592   -2.0124521 
N     1.6942117   -3.6964091   -2.2092648 
C     1.9260612   -2.7862095   -1.2503223 
O     1.2844548   -1.7089086   -1.2064072 
C     2.8912217   -3.0784078   -0.1365223 
C     4.2818974   -3.1642030   -0.3113828 
C     5.1149528   -3.3767278    0.7967439 
C     4.5556599   -3.5225326    2.0755077 
C     3.1685228   -3.4238608    2.2525648 
C     2.3301451   -3.1820060    1.1541151 
C     0.8335811   -2.9781293    1.2800389 
C    -0.1136524   -1.1618965    3.0938200 
N     0.0397021   -2.5733776    3.5452999 
N     0.2315369   -3.5264647    2.4902382 
C    -0.4488209   -2.9714021    4.7759967 
O    -0.5980092   -2.1567600    5.6894214 
C    -0.8490784   -4.4274332    4.8858387 
C     0.0977877   -5.3579552    4.1267890 
C     0.3538935   -4.8956675    2.7078880 
O     0.6967749   -5.6323471    1.7880443 
C    -1.4770062   -0.5916845    3.4495315 
C    -1.6401418    0.5040998    4.3294518 
C    -2.9369777    0.9916317    4.5847496 
C    -4.0628991    0.4062271    3.9943942 
C    -3.8985109   -0.6859918    3.1270031 
C    -2.6150962   -1.1736579    2.8608739 
C    -0.5000089    1.2647139    4.9787443 
O    -0.4682127    2.5037125    4.9417303 
N     0.4320376    0.4833205    5.5850579 
C     1.6263508    0.9824160    6.2867193 
C     2.4945151    1.8745696    5.3758042 
C     2.4226877   -0.2144018    6.7939241 
C     2.7338322   -1.2872872    5.9342737 
C     3.5033408   -2.3685680    6.3816642 
C     3.9805391   -2.3936590    7.7013886 
C     3.6789853   -1.3311703    8.5651844 
C     2.9044508   -0.2515244    8.1137745 
C     1.7183221   -0.0522990    1.1294668 
C     2.8084924   -0.1673132    2.0062448 
C     3.8980813    0.7100983    1.9167591 
C     3.8918877    1.7303870    0.9596630 
C     2.7980274    1.8676560    0.0943699 
C     1.7085400    0.9835784    0.1622152 
C    -0.2926891    2.9909623   -0.8819793 
C     0.4190317    3.8641396    0.1403633 
C     1.4092358    4.7810139   -0.2440966 
C     2.0903516    5.5436117    0.7143511 
C     1.7942238    5.3900469    2.0759517 
C     0.7771317    4.5125272    2.4712364 
C     0.0743935    3.7700340    1.5093696 
C    -1.0344574    2.8363386    1.8783683 
O    -0.9495683    1.6369739    1.5251482 
N    -2.1620102    3.2894608    2.4756680 
C    -2.4251157    4.5263458    3.2426017 
C    -3.9290906    4.5592246    3.5736570 
C    -2.0188584    5.8066018    2.5261170 
C    -1.5260004    6.8824382    3.2865092 
C    -1.1831730    8.0935606    2.6701710 
C    -1.3200598    8.2362492    1.2810924 
C    -1.8097592    7.1666663    0.5166971 
C    -2.1677796    5.9620858    1.1374210 
C     0.5907011    1.1572039   -2.7409410 
N     0.5960041    2.5770539   -3.1419290 
N    -0.1320228    3.4412816   -2.2683065 
C     0.7645125    2.9305358   -4.4680672 
O     0.9990777    2.0867267   -5.3387889 
C     0.5688575    4.4061234   -4.7483686 
C    -0.8061742    4.8102266   -4.1999814 
C    -0.9105700    4.5049943   -2.7181065 
O    -1.5941026    5.1403557   -1.9252490 
C     1.8165819    0.4069388   -3.2211776 
C     3.1064520    0.8947598   -2.9552033 
C     4.2474572    0.1663853   -3.3117848 
C     4.1137967   -1.0716078   -3.9551052 
C     2.8366043   -1.5522852   -4.2670573 
C     1.6889833   -0.8192322   -3.9175509 
C     0.3663588   -1.3744867   -4.3807067 
O    -0.0284179   -2.5223998   -4.0874947 
N    -0.3294582   -0.5451053   -5.1968768 
C    -1.5489419   -0.9685408   -5.8989166 
C    -1.1963278   -1.5510196   -7.2840160 
C    -2.5570528    0.1684765   -6.0002986 
C    -3.9156177   -0.0762007   -5.7238474 
C    -4.8743460    0.9370356   -5.8727690 
C    -4.4858548    2.2145916   -6.3007266 
C    -3.1338314    2.4702990   -6.5787579 
C    -2.1756992    1.4554045   -6.4328403 
H     0.9123064   -5.1447006   -4.7629785 
H     1.8218692   -5.1250282   -7.0707890 
H     4.2938433   -5.0396974   -7.4524881 
H     5.8510038   -5.0119158   -5.4936267 
H     4.9381922   -5.0423354   -3.1734034 
H     3.1627781   -5.0783078   -1.6805949 
H     1.7789536   -7.1237493   -2.1755686 
H     0.4056806   -6.0737360   -2.6280033 
H     1.0425635   -6.0428290   -0.9481446 
H     1.0098574   -3.3725611   -2.9323793 
H     4.7062213   -3.0529988   -1.3148607 
H     6.1995500   -3.4381440    0.6615002 
H     5.2018409   -3.7063127    2.9400781 
H     2.7353963   -3.5244829    3.2536472 
H     0.3252803   -3.4612299    0.4321809 
H     0.6771261   -0.5562060    3.5567026 
H    -0.9179706   -4.6773775    5.9543798 
H    -1.8684891   -4.4957915    4.4551931 
H     1.0854196   -5.3956021    4.6277433 
H    -0.2776053   -6.3915305    4.0821287 
H    -3.0416529    1.8399365    5.2687021 
H    -5.0636682    0.7904282    4.2181413 
H    -4.7717657   -1.1594547    2.6661189 
H    -2.4882689   -2.0273355    2.1853345 
H     0.1520501   -0.5018172    5.7416687 
H     1.2992962    1.5883310    7.1537657 
H     1.9272714    2.7592825    5.0512459 
H     3.3930082    2.1970092    5.9277127 
H     2.8146396    1.3125981    4.4826075 
H     2.3609370   -1.2809006    4.9046994 
H     3.7337372   -3.1947545    5.6988260 
H     4.5819529   -3.2376394    8.0551213 
H     4.0427039   -1.3441103    9.5980350 
H     2.6677929    0.5718095    8.7975387 
H     2.8225774   -0.9500940    2.7672842 
H     4.7411131    0.5970139    2.6055160 
H     4.7280444    2.4331734    0.8906971 
H     2.7901704    2.6901251   -0.6215009 
H    -1.3792601    2.9897489   -0.6737275 
H     1.6455537    4.8977038   -1.3068881 
H     2.8558695    6.2581260    0.3946798 
H     2.3344114    5.9733554    2.8280963 
H     0.5150135    4.3938496    3.5261595 
H    -2.7982988    2.5158556    2.6889198 
H    -1.8617246    4.4467765    4.1905791 
H    -4.2438168    3.6463329    4.1103240 
H    -4.1448579    5.4280512    4.2150290 
H    -4.5267239    4.6581840    2.6512665 
H    -1.3976506    6.7647207    4.3693658 
H    -0.7981043    8.9222999    3.2741331 
H    -1.0399868    9.1774036    0.7956070 
H    -1.9042689    7.2492346   -0.5697462 
H    -2.5269017    5.1314128    0.5220944 
H    -0.3164660    0.6864669   -3.1547100 
H     0.6524944    4.5569604   -5.8338323 
H     1.3646126    4.9900613   -4.2484726 
H    -1.6077206    4.2452867   -4.7143777 
H    -1.0178247    5.8817151   -4.3334260 
H     3.2198799    1.8691791   -2.4766359 
H     5.2401590    0.5708689   -3.0888627 
H     4.9961873   -1.6539117   -4.2393936 
H     2.7224366   -2.4982854   -4.8040617 
H     0.1299011    0.3461541   -5.4415601 
H    -1.9761411   -1.7762443   -5.2821165 
H    -0.7198862   -0.7832452   -7.9180654 
H    -2.1088142   -1.9033748   -7.7934272 
H    -0.5015563   -2.4002882   -7.1673617 
H    -4.2252017   -1.0719835   -5.3858771 
H    -5.9252681    0.7294802   -5.6469268 
H    -5.2323054    3.0071116   -6.4165914 
H    -2.8243335    3.4623678   -6.9261625 
H    -1.1264989    1.6759450   -6.6600945 
