197
Energy =
C    -3.0935576   -1.0164380   -1.2731790 
C    -3.4934087    0.1421160   -0.5748909 
C    -3.0701268    1.4405646   -1.0042905 
H    -3.9891510    0.0378867    0.3983731 
Pd   -1.3047337    0.2349632   -0.5775387 
P     0.2562437    1.9540838   -0.5744977 
P     0.5139938   -1.1327829   -0.0830883 
H    -2.7070243   -0.8846267   -2.2936508 
H    -2.9679829    1.6099567   -2.0857144 
C    -4.1785648   -5.0556872   -0.2628020 
C    -3.2259306   -4.7981714   -1.2604155 
C    -2.8855881   -3.4805457   -1.5885340 
C    -3.4826601   -2.3904936   -0.9157949 
C    -4.4651756   -2.6657129    0.0656008 
C    -4.8049836   -3.9826067    0.3920558 
H    -4.4488022   -6.0867358   -0.0112704 
H    -2.7441060   -5.6182804   -1.7980325 
H    -2.1506972   -3.2989179   -2.3798249 
H    -4.9820405   -1.8412062    0.5661301 
H    -5.5703573   -4.1733166    1.1517335 
C    -3.6614575    4.9662514    1.4034966 
C    -3.6361344    5.0543721    0.0043448 
C    -3.4411877    3.9070538   -0.7763802 
C    -3.2808395    2.6421763   -0.1685092 
C    -3.3064890    2.5663617    1.2451041 
C    -3.4992345    3.7150080    2.0193728 
H    -3.7888436    5.8673384    2.0104835 
H    -3.7702096    6.0282967   -0.4782395 
H    -3.4269728    3.9740046   -1.8698188 
H    -3.1254587    1.6052329    1.7381529 
H    -3.5013459    3.6372159    3.1106055 
C    -2.8880590   -3.7206311   -5.4311451 
C    -4.1186759   -4.3472426   -5.1849723 
C    -4.1480238   -5.6525391   -4.6758128 
C    -2.9415049   -6.3205899   -4.4150000 
C    -1.7139286   -5.6871579   -4.6521750 
C    -1.6715072   -4.3748045   -5.1636499 
C    -0.3510088   -3.6907101   -5.4872356 
C     0.4718754   -4.4645198   -6.5378005 
N     0.4443867   -3.4652861   -4.2640494 
C     1.4821888   -2.5790290   -4.2652876 
O     1.6931939   -1.7924129   -5.1999241 
C     2.4789085   -2.7522129   -3.1346318 
C     3.8150492   -2.8715157   -3.5702485 
C     4.8320769   -3.2840034   -2.7035514 
C     4.5160313   -3.6063747   -1.3765400 
C     3.2060707   -3.4296560   -0.9189050 
C     2.1805044   -2.9575045   -1.7643654 
C     0.8051490   -2.6775257   -1.1886518 
C     0.6259692   -2.1485972    1.5230284 
N     0.6201484   -3.5541824    1.0758813 
N     0.3235318   -3.7475724   -0.2978554 
C     1.0344654   -4.5790590    1.8981255 
O     1.4299106   -4.3537781    3.0455007 
C     0.9108587   -5.9688001    1.2987419 
C    -0.2526326   -6.0275201    0.2968826 
C    -0.0206100   -4.9895192   -0.7820152 
O    -0.0692839   -5.2086347   -1.9946578 
C    -0.4525936   -1.8584396    2.5512021 
C    -0.1641549   -1.3041370    3.8213545 
C    -1.2279729   -1.0314036    4.7058949 
C    -2.5534353   -1.3098190    4.3564206 
C    -2.8346327   -1.8651040    3.0976723 
C    -1.7898495   -2.1294299    2.2066863 
C     1.2098059   -0.9139613    4.3267859 
O     1.3854268    0.1740102    4.8937646 
N     2.1935979   -1.8345141    4.1463798 
C     3.5291819   -1.6747177    4.7368494 
C     4.5699840   -2.3548753    3.8322559 
C     3.5623632   -2.2144421    6.1659488 
C     3.9966825   -1.3992063    7.2247791 
C     4.0416214   -1.8951400    8.5366115 
C     3.6457861   -3.2135320    8.8026943 
C     3.2028828   -4.0326059    7.7517878 
C     3.1610984   -3.5366999    6.4420406 
C     2.0401602   -0.1075527    0.0123112 
C     3.2838074   -0.6253117    0.4147794 
C     4.4218314    0.1885609    0.4633087 
C     4.3267136    1.5397912    0.1123073 
C     3.0854697    2.0769140   -0.2465909 
C     1.9334947    1.2721011   -0.2802270 
C     0.0836728    3.5532731    0.4473318 
C     1.1767116    3.7414454    1.4925876 
C     2.2092866    4.6786099    1.3250555 
C     3.2353653    4.7956765    2.2705905 
C     3.2559842    3.9591728    3.3951226 
C     2.2186773    3.0415959    3.5952113 
C     1.1698393    2.9498613    2.6654518 
C     0.0388771    1.9892995    2.8467587 
O    -0.1854176    1.1504475    1.9425043 
N    -0.8063140    2.0834151    3.9015793 
C    -0.6389699    2.7119224    5.2298673 
C    -1.9930867    2.6180871    5.9578743 
C    -0.1510037    4.1537121    5.1934187 
C     0.6875450    4.6032972    6.2297650 
C     1.1384553    5.9298496    6.2592699 
C     0.7647291    6.8194669    5.2408570 
C    -0.0694218    6.3784240    4.2027832 
C    -0.5351177    5.0564064    4.1868723 
C     0.3533583    2.9036172   -2.2282470 
N     0.0121369    4.2877510   -1.9134198 
N     0.0296106    4.6489776   -0.5298421 
C    -0.6216580    5.0476946   -2.8888040 
O    -0.7338169    4.6085030   -4.0307015 
C    -1.1164069    6.4131757   -2.4520565 
C    -0.3449623    6.9513740   -1.2428019 
C    -0.3180994    5.9275430   -0.1225994 
O    -0.5477048    6.1673406    1.0579995 
C     1.6460862    2.7055266   -2.9911444 
C     2.6853061    3.6476189   -2.9887219 
C     3.8947387    3.3691821   -3.6419491 
C     4.0762072    2.1447311   -4.3026504 
C     3.0305252    1.2103283   -4.3475129 
C     1.8191497    1.4945497   -3.6982807 
C     0.6398395    0.5622357   -3.8081474 
O     0.3031783   -0.2285816   -2.9072009 
N    -0.0672339    0.7389780   -4.9474468 
C    -1.2857565    0.0065560   -5.2928980 
C    -1.2795781   -0.2633187   -6.8082485 
C    -2.5467347    0.7523954   -4.8522607 
C    -3.7158526    0.0379385   -4.5265700 
C    -4.8932945    0.7130185   -4.1716159 
C    -4.9216160    2.1160588   -4.1461751 
C    -3.7617978    2.8350282   -4.4730427 
C    -2.5827713    2.1586184   -4.8211452 
H    -2.8697298   -2.7124299   -5.8577088 
H    -5.0528618   -3.8179470   -5.4012339 
H    -5.1051788   -6.1496277   -4.4870521 
H    -2.9559319   -7.3439412   -4.0242569 
H    -0.7842299   -6.2208975   -4.4312566 
H    -0.5654544   -2.6948869   -5.9012667 
H    -0.1204667   -4.5995029   -7.4584989 
H     0.7584305   -5.4606969   -6.1591309 
H     1.3850125   -3.8973890   -6.7828442 
H     0.3711215   -4.1567901   -3.5019159 
H     4.0266084   -2.6753187   -4.6260913 
H     5.8582230   -3.3866718   -3.0708959 
H     5.2871389   -3.9782816   -0.6940567 
H     2.9758011   -3.6576694    0.1271115 
H     0.0690712   -2.5500879   -1.9933956 
H     1.6146926   -1.9353751    1.9531960 
H     1.8669643   -6.2170022    0.7982262 
H     0.7857008   -6.6748378    2.1333965 
H    -0.3371152   -7.0086502   -0.1911967 
H    -1.2102131   -5.8042528    0.8042847 
H    -0.9843903   -0.6054127    5.6844650 
H    -3.3624622   -1.1079234    5.0665156 
H    -3.8640620   -2.1012388    2.8125976 
H    -2.0124036   -2.5578040    1.2235239 
H     1.9131273   -2.7779804    3.8317962 
H     3.7184024   -0.5897270    4.7720566 
H     4.5774037   -1.8861677    2.8329410 
H     5.5754632   -2.2616153    4.2740428 
H     4.3467596   -3.4304899    3.7168435 
H     4.2947118   -0.3643439    7.0201900 
H     4.3812404   -1.2481221    9.3526206 
H     3.6780455   -3.6018607    9.8262293 
H     2.8880121   -5.0620563    7.9544327 
H     2.8031943   -4.1826505    5.6308311 
H     3.3775321   -1.6724977    0.7004986 
H     5.3798090   -0.2395047    0.7752604 
H     5.2089332    2.1866522    0.1375965 
H     3.0178114    3.1363926   -0.4856793 
H    -0.9019998    3.4647992    0.9411832 
H     2.2121123    5.3233067    0.4410641 
H     4.0234819    5.5412906    2.1233815 
H     4.0654217    4.0365416    4.1277215 
H     2.2110731    2.3799064    4.4651690 
H    -1.4868219    1.3182626    3.8860480 
H     0.0986671    2.1020019    5.7837189 
H    -2.3453334    1.5718454    6.0151768 
H    -1.8880180    3.0030324    6.9843258 
H    -2.7556673    3.2253113    5.4402269 
H     1.0015617    3.9021502    7.0124867 
H     1.7931391    6.2647250    7.0711319 
H     1.1295052    7.8522475    5.2522665 
H    -0.3480136    7.0477160    3.3844454 
H    -1.1628405    4.7234791    3.3548277 
H    -0.4784729    2.5073947   -2.8370369 
H    -2.1904414    6.3094266   -2.2117086 
H    -1.0466239    7.0805289   -3.3248550 
H    -0.7891592    7.8729725   -0.8404734 
H     0.7007214    7.1746306   -1.5306528 
H     2.5400722    4.6040255   -2.4743414 
H     4.6984023    4.1128865   -3.6348302 
H     5.0247929    1.9264673   -4.8038406 
H     3.1262047    0.2588620   -4.8816694 
H     0.3106629    1.4003169   -5.6247581 
H    -1.2298082   -0.9472294   -4.7412689 
H    -1.3170881    0.6885990   -7.3677950 
H    -2.1633513   -0.8528970   -7.1005492 
H    -0.3636728   -0.8118807   -7.0856819 
H    -3.7067365   -1.0577947   -4.5409092 
H    -5.7887879    0.1397486   -3.9093331 
H    -5.8401662    2.6435105   -3.8688995 
H    -3.7617157    3.9302308   -4.4611694 
H    -1.6880023    2.7449220   -5.0466799 
