197
Energy =
C     2.4350106   -0.1748346    1.7565193 
C     1.3309317   -0.2538585    2.6644027 
C     0.4284574   -1.3447598    2.6325007 
H     1.0805394    0.6242067    3.2741243 
Pd    0.5455526   -0.2710036    0.6451599 
P    -1.5345749   -0.0552872   -0.3068500 
P     1.3377065    0.3460216   -1.4379929 
H     2.9294000   -1.1135012    1.4666009 
H     0.7853877   -2.2957405    2.2051158 
C     4.7498511    3.4529670    1.4975886 
C     5.3852660    2.2033632    1.4509505 
C     4.6337494    1.0199101    1.5166519 
C     3.2295087    1.0701654    1.6450998 
C     2.5986214    2.3371034    1.6825984 
C     3.3514405    3.5128651    1.6158197 
H     5.3388725    4.3735055    1.4360800 
H     6.4770654    2.1512221    1.3736997 
H     5.1339570    0.0455133    1.4854082 
H     1.5056750    2.4007214    1.7094381 
H     2.8366034    4.4767013    1.6438944 
C    -2.8277388   -1.5818239    5.4427839 
C    -1.9490190   -2.6620600    5.2706373 
C    -0.9218750   -2.5950638    4.3191330 
C    -0.7286404   -1.4263516    3.5537122 
C    -1.6140249   -0.3447156    3.7462515 
C    -2.6646272   -0.4221460    4.6669223 
H    -3.6375391   -1.6400829    6.1777108 
H    -2.0727580   -3.5704388    5.8702300 
H    -0.2556468   -3.4503082    4.1697243 
H    -1.4785139    0.5678563    3.1588932 
H    -3.3450960    0.4265931    4.7837258 
C    -2.2256203    2.4448312    6.5142124 
C    -3.2323094    2.1575940    7.4496943 
C    -4.5108107    2.7115826    7.3045939 
C    -4.7757262    3.5637741    6.2207731 
C    -3.7687782    3.8533382    5.2929554 
C    -2.4809608    3.2923577    5.4212146 
C    -1.4184692    3.6245977    4.3744601 
C    -0.0519851    2.9653248    4.5979584 
N    -1.9694505    3.3174430    3.0318843 
C    -1.5051328    3.9523302    1.9305419 
O    -0.4875079    4.6775108    1.9750987 
C    -2.3236805    3.8566506    0.6591472 
C    -2.5923284    5.0977069    0.0462589 
C    -3.3563683    5.1838344   -1.1222580 
C    -3.8691590    4.0140687   -1.6993305 
C    -3.5916496    2.7756876   -1.1100796 
C    -2.8079361    2.6688898    0.0536839 
C    -2.5352510    1.2999090    0.6411663 
C    -3.0013403   -1.2694114   -0.2797374 
N    -4.1343643   -0.4387749    0.0912822 
N    -3.7899734    0.5885311    0.9900330 
C    -5.3856092   -0.5012892   -0.5189336 
O    -5.5959014   -1.2579299   -1.4563690 
C    -6.4140420    0.3842851    0.1770866 
C    -6.1066867    0.4824841    1.6845435 
C    -4.7215684    1.0830978    1.8706989 
O    -4.4528006    1.9964517    2.6553052 
C    -2.7885962   -2.4793849    0.6148806 
C    -1.9077514   -3.5119625    0.2067090 
C    -1.7324800   -4.6471638    1.0208742 
C    -2.4646240   -4.7912419    2.2043574 
C    -3.3697204   -3.7923659    2.5857980 
C    -3.5107088   -2.6368280    1.8072970 
C    -1.2247103   -3.4078674   -1.1208659 
O    -0.7649194   -2.3372410   -1.5565881 
N    -1.1865426   -4.5481723   -1.8605556 
C    -0.6576329   -4.5648357   -3.2308077 
C    -1.7008449   -4.0204463   -4.2229103 
C    -0.1049011   -5.9513215   -3.5501256 
C    -0.0350723   -6.4301039   -4.8723883 
C     0.5495879   -7.6731320   -5.1577880 
C     1.0696356   -8.4670306   -4.1254311 
C     0.9978332   -8.0054151   -2.8028299 
C     0.4180139   -6.7607941   -2.5203839 
C    -1.3603938    0.2807554   -2.1143296 
C    -2.4590436    0.2579194   -2.9899202 
C    -2.2694505    0.2869084   -4.3787599 
C    -0.9732095    0.3032812   -4.9052536 
C     0.1297355    0.3013976   -4.0415277 
C    -0.0462454    0.3064789   -2.6488165 
C     2.7236454   -0.9169450   -1.7631321 
C     2.6652968   -2.0519177   -2.7585775 
C     2.7941676   -1.8250749   -4.1382413 
C     2.8808019   -2.8914883   -5.0434145 
C     2.8879398   -4.2101149   -4.5675797 
C     2.8166230   -4.4499350   -3.1891530 
C     2.6844911   -3.3858603   -2.2765923 
C     2.6038693   -3.6698546   -0.7976423 
O     1.7873766   -3.1211842   -0.0401400 
N     3.4955548   -4.5904073   -0.3310008 
C     3.5924208   -4.8577766    1.1098205 
C     4.9423217   -5.5266828    1.4111210 
C     2.4149583   -5.6973922    1.6000781 
C     1.9569047   -6.7965063    0.8519309 
C     0.9117475   -7.6015937    1.3273117 
C     0.3182402   -7.3230207    2.5686736 
C     0.7718897   -6.2303160    3.3230724 
C     1.8092678   -5.4204951    2.8379195 
C     2.4686289    1.8263712   -1.8932444 
N     3.7535081    1.2413737   -2.2898443 
N     3.9407874   -0.1129256   -1.9044298 
C     4.8564688    2.0642789   -2.5021844 
O     4.7380348    3.2831268   -2.5156527 
C     6.1481093    1.2908410   -2.7058438 
C     6.3397417    0.2844568   -1.5621009 
C     5.1242622   -0.6077660   -1.3761599 
O     5.1493425   -1.7217817   -0.8516908 
C     1.8567075    2.6818441   -2.9856850 
C     2.2538110    2.5937720   -4.3308156 
C     1.5685832    3.3026964   -5.3257193 
C     0.4622083    4.0981978   -4.9919887 
C     0.0841557    4.2273302   -3.6494567 
C     0.7927914    3.5434146   -2.6465808 
C     0.4300509    3.6547566   -1.1956539 
O     0.0689992    2.6209294   -0.5787244 
N     0.5557378    4.8448145   -0.5851716 
C     1.0916942    6.1019501   -1.1457106 
C     2.5238254    6.3570598   -0.6442917 
C     0.1126310    7.2303190   -0.8371487 
C    -0.6640103    7.7926417   -1.8661619 
C    -1.6178090    8.7834355   -1.5875381 
C    -1.8076410    9.2227750   -0.2692466 
C    -1.0330335    8.6722360    0.7643859 
C    -0.0777379    7.6860255    0.4825386 
H    -1.2398600    1.9899948    6.6430634 
H    -3.0123794    1.4934469    8.2924552 
H    -5.2962986    2.4861562    8.0337905 
H    -5.7699007    4.0068054    6.0994398 
H    -3.9883429    4.5150878    4.4475782 
H    -1.2512120    4.7198393    4.3815413 
H    -0.1368398    1.8669956    4.6393240 
H     0.3899842    3.3154522    5.5457499 
H     0.6252613    3.2499562    3.7792927 
H    -2.8875362    2.8395044    2.9667708 
H    -2.1949765    6.0071744    0.5053387 
H    -3.5494127    6.1636461   -1.5696958 
H    -4.4782375    4.0608582   -2.6080847 
H    -3.9888037    1.8664650   -1.5670432 
H    -1.9483073    1.4119446    1.5607423 
H    -3.1700526   -1.6010221   -1.3154707 
H    -6.3888800    1.3907400   -0.2829742 
H    -7.4068441   -0.0457962   -0.0226920 
H    -6.8193635    1.1268264    2.2196393 
H    -6.1436548   -0.5216967    2.1480731 
H    -1.0077218   -5.4158018    0.7323701 
H    -2.3206103   -5.6789551    2.8273516 
H    -3.9535249   -3.8968290    3.5042928 
H    -4.2005489   -1.8522689    2.1261760 
H    -1.7391074   -5.3462050   -1.5482065 
H     0.1861676   -3.8511915   -3.2159624 
H    -1.2599727   -3.8896409   -5.2250570 
H    -2.5702522   -4.6953850   -4.3051565 
H    -2.0371979   -3.0290438   -3.8781814 
H    -0.4328448   -5.8300321   -5.6958678 
H     0.5921405   -8.0246180   -6.1942253 
H     1.5206047   -9.4393007   -4.3493564 
H     1.3957710   -8.6171744   -1.9852820 
H     0.3906583   -6.4027174   -1.4864142 
H    -3.4800577    0.1733492   -2.6049115 
H    -3.1389491    0.2723561   -5.0436619 
H    -0.8132707    0.3077052   -5.9880272 
H     1.1323796    0.2995475   -4.4650367 
H     2.7947306   -1.3763404   -0.7708895 
H     2.8685702   -0.7957349   -4.5040713 
H     2.9619524   -2.6914116   -6.1169107 
H     2.9528736   -5.0533903   -5.2617891 
H     2.8279014   -5.4791898   -2.8191892 
H     4.2932881   -4.8197291   -0.9220690 
H     3.5482594   -3.8817892    1.6287212 
H     5.7749443   -4.8769167    1.0879327 
H     5.0379617   -5.7069150    2.4936392 
H     5.0216763   -6.5011747    0.8971796 
H     2.4231371   -7.0155829   -0.1149054 
H     0.5640138   -8.4527625    0.7313725 
H    -0.4916452   -7.9563030    2.9462579 
H     0.3136452   -6.0067246    4.2927263 
H     2.1542966   -4.5621658    3.4268416 
H     2.5920829    2.4012804   -0.9566406 
H     6.9704600    2.0181042   -2.7619938 
H     6.0896337    0.7558055   -3.6730592 
H     6.5139854    0.8149007   -0.6098608 
H     7.2054534   -0.3757757   -1.7286929 
H     3.1023666    1.9577375   -4.5998340 
H     1.8944591    3.2245240   -6.3680583 
H    -0.0915361    4.6301814   -5.7722604 
H    -0.7659453    4.8573075   -3.3664461 
H     0.2441028    4.8561341    0.4144473 
H     1.1398149    5.9788303   -2.2373422 
H     2.5530937    6.4676371    0.4532298 
H     2.9150440    7.2867512   -1.0905611 
H     3.1795661    5.5186012   -0.9358501 
H    -0.5208610    7.4502722   -2.8978704 
H    -2.2111326    9.2140171   -2.4014678 
H    -2.5519306    9.9949260   -0.0477386 
H    -1.1745689    9.0115023    1.7960528 
H     0.4988443    7.2485638    1.3040300 
