197
Energy =
C    -3.4097934   -1.2965057   -0.7197494 
C    -3.4849633    0.1069468   -0.5832551 
C    -2.7324733    0.9342143   -1.4857798 
H    -3.9590166    0.5515771    0.3010545 
Pd   -1.3600206   -0.3385479   -0.4022485 
P     0.6030244    0.5782930   -1.2186100 
P     0.0807809   -1.6081809    0.9343902 
H    -3.0385579   -1.6908823   -1.6798412 
H    -2.6528776    0.5912139   -2.5266089 
C    -5.1506618   -4.3029712    1.8038609 
C    -4.2613684   -4.6520860    0.7757712 
C    -3.7189160   -3.6588030   -0.0455417 
C    -4.0423522   -2.2956694    0.1514990 
C    -4.9616332   -1.9619346    1.1729607 
C    -5.5062623   -2.9569458    1.9921761 
H    -5.5744077   -5.0790507    2.4493510 
H    -3.9774871   -5.6969439    0.6269376 
H    -3.0266976   -3.9284676   -0.8503809 
H    -5.2681132   -0.9204784    1.3120708 
H    -6.2206139   -2.6834962    2.7761488 
C    -1.8729183    5.1156833   -0.9075673 
C    -1.8963401    4.5611190   -2.1951148 
C    -2.1972630    3.2055396   -2.3783655 
C    -2.4906766    2.3761691   -1.2721720 
C    -2.4689239    2.9477500    0.0232452 
C    -2.1664148    4.3020999    0.1998891 
H    -1.6131771    6.1689181   -0.7653536 
H    -1.6782758    5.1917239   -3.0631418 
H    -2.2248797    2.7807108   -3.3881338 
H    -2.6371300    2.3131527    0.8995603 
H    -2.1366277    4.7225345    1.2102509 
C    -1.6333560   -5.6279432   -5.1538566 
C    -1.5074402   -5.7408987   -6.5452851 
C    -0.3424043   -6.2861858   -7.1078269 
C     0.6945150   -6.7217104   -6.2698642 
C     0.5682116   -6.6033962   -4.8772765 
C    -0.5925932   -6.0537333   -4.3042083 
C    -0.6754055   -5.8333289   -2.7964438 
C    -1.9358363   -6.4153900   -2.1325721 
N    -0.5827096   -4.3834022   -2.5480714 
C     0.2302901   -3.7217259   -1.7082353 
O     0.1619954   -2.4753079   -1.5897749 
C     1.1998348   -4.4623889   -0.8341985 
C     2.2970254   -5.1712018   -1.3517178 
C     3.2070546   -5.7922242   -0.4848640 
C     3.0082439   -5.7190612    0.9015027 
C     1.9237438   -4.9976908    1.4200083 
C     1.0240778   -4.3455666    0.5629227 
C    -0.1277734   -3.5054265    1.0823323 
C     0.1736354   -1.3807335    2.8211645 
N     0.1660501   -2.7632876    3.3494857 
N    -0.4437270   -3.7026707    2.4887018 
C     0.4265586   -3.0490631    4.6772368 
O     0.8784272   -2.1908368    5.4319002 
C     0.0223062   -4.4590793    5.0900188 
C    -1.3309790   -4.8231093    4.4516380 
C    -1.2216034   -4.7615174    2.9352792 
O    -1.6938075   -5.5694857    2.1440428 
C    -0.9248652   -0.5398489    3.4415851 
C    -0.6215282    0.4053520    4.4523393 
C    -1.6676966    1.1310197    5.0583663 
C    -3.0009364    0.9295981    4.6775096 
C    -3.3015748   -0.0315363    3.7021423 
C    -2.2698827   -0.7611978    3.0960630 
C     0.7990436    0.6794768    4.8793526 
O     1.7197311    0.8710806    4.0725838 
N     0.9958618    0.7614963    6.2258253 
C     2.3556841    0.9301646    6.7548251 
C     2.4486406    0.2687581    8.1382573 
C     2.7579005    2.4030876    6.7858537 
C     4.0461353    2.7961687    6.3815902 
C     4.4483035    4.1367972    6.4771193 
C     3.5611527    5.1040447    6.9736676 
C     2.2664210    4.7244119    7.3614497 
C     1.8697097    3.3833387    7.2670153 
C     1.8221028   -1.2575187    0.4522294 
C     2.9061062   -1.8555992    1.1148042 
C     4.2191991   -1.6087901    0.6917157 
C     4.4559283   -0.7507076   -0.3890112 
C     3.3821083   -0.1130736   -1.0241395 
C     2.0618253   -0.3502168   -0.6079247 
C     1.0535568    2.4227282   -1.0993451 
C     2.2663233    2.6815170   -0.2067304 
C     3.5241581    2.9826744   -0.7551011 
C     4.6513182    3.1437844    0.0592295 
C     4.5441088    2.9848487    1.4468877 
C     3.2947643    2.7185349    2.0156905 
C     2.1547115    2.5938121    1.2030039 
C     0.8101802    2.3201053    1.7956968 
O     0.1371487    1.3600511    1.3605778 
N     0.2720512    3.1534703    2.7220361 
C     0.8942536    4.1970104    3.5619658 
C    -0.2269057    4.8596506    4.3826249 
C     1.6764478    5.2466509    2.7806432 
C     2.7705067    5.8662580    3.4118180 
C     3.4948072    6.8721156    2.7592247 
C     3.1392984    7.2613254    1.4589214 
C     2.0557145    6.6414502    0.8201757 
C     1.3224840    5.6452615    1.4809595 
C     0.4866981    0.6345486   -3.1143740 
N     0.9767006    1.9621011   -3.5463792 
N     1.2521095    2.8875427   -2.4809618 
C     0.5367017    2.4066547   -4.7821315 
O     0.0157911    1.6201867   -5.5806785 
C     0.7073725    3.8766659   -5.0938730 
C     1.7296595    4.5638705   -4.1884045 
C     1.4541306    4.2361182   -2.7334465 
O     1.4434071    5.0513179   -1.8184846 
C     1.0403770   -0.5338226   -3.9019999 
C     2.4230186   -0.6511685   -4.1189572 
C     2.9696352   -1.7784785   -4.7435755 
C     2.1280665   -2.8175071   -5.1641402 
C     0.7441072   -2.6987479   -4.9919557 
C     0.1849231   -1.5596590   -4.3821573 
C    -1.3257335   -1.5092562   -4.3600895 
O    -2.0228015   -2.4616236   -3.9477860 
N    -1.8814815   -0.3991677   -4.9017676 
C    -3.3309759   -0.2853780   -5.1461650 
C    -3.7072899   -0.9571007   -6.4819827 
C    -3.7659327    1.1726013   -5.0766550 
C    -3.1595863    2.1543653   -5.8873953 
C    -3.5712651    3.4931318   -5.8129108 
C    -4.6014508    3.8692262   -4.9367723 
C    -5.2188033    2.8978468   -4.1361597 
C    -4.8029604    1.5601999   -4.2077132 
H    -2.5376190   -5.1764313   -4.7322556 
H    -2.3219311   -5.4000723   -7.1935125 
H    -0.2455461   -6.3744312   -8.1949974 
H     1.6033849   -7.1557760   -6.7002592 
H     1.3836060   -6.9404371   -4.2261684 
H     0.2021397   -6.3048576   -2.3284053 
H    -2.0113948   -7.4957588   -2.3413338 
H    -2.8509147   -5.9266355   -2.5089845 
H    -1.8824290   -6.2686875   -1.0394611 
H    -1.1964512   -3.7451554   -3.1081213 
H     2.4398520   -5.2223194   -2.4364975 
H     4.0633430   -6.3402819   -0.8908103 
H     3.7023723   -6.2207822    1.5834703 
H     1.7764776   -4.9348193    2.5026263 
H    -1.0441960   -3.7385513    0.5160350 
H     1.1494273   -0.9282060    3.0448140 
H     0.8009851   -5.1763067    4.7656684 
H    -0.0114372   -4.4804228    6.1892732 
H    -1.6635492   -5.8363382    4.7204541 
H    -2.1120197   -4.1103087    4.7799758 
H    -1.4251779    1.8673955    5.8324223 
H    -3.8001917    1.5101801    5.1496795 
H    -4.3404946   -0.2198246    3.4159190 
H    -2.5186374   -1.5149997    2.3402482 
H     0.2926454    0.3358986    6.8279661 
H     3.0321855    0.4088237    6.0545297 
H     2.1917696   -0.8024377    8.0624090 
H     3.4734566    0.3615543    8.5318505 
H     1.7664173    0.7575409    8.8572911 
H     4.7398872    2.0432354    5.9893531 
H     5.4551750    4.4278597    6.1591811 
H     3.8735097    6.1507404    7.0504276 
H     1.5658689    5.4754574    7.7423654 
H     0.8567719    3.0906590    7.5665628 
H     2.7304388   -2.5202943    1.9646967 
H     5.0551076   -2.0883606    1.2107863 
H     5.4784945   -0.5523970   -0.7249813 
H     3.5836153    0.5920742   -1.8308893 
H     0.1548342    2.9132829   -0.6819052 
H     3.6265752    3.0858348   -1.8392309 
H     5.6168769    3.3861675   -0.3965597 
H     5.4253505    3.0872048    2.0878774 
H     3.1927345    2.5830895    3.0951913 
H    -0.6278795    2.8011687    3.0574608 
H     1.5842097    3.7046549    4.2741300 
H    -0.7686923    4.1114782    4.9892730 
H     0.2106265    5.6031237    5.0664451 
H    -0.9423056    5.3747004    3.7180099 
H     3.0614029    5.5452791    4.4177583 
H     4.3464138    7.3428740    3.2627467 
H     3.7127936    8.0370978    0.9401047 
H     1.7896787    6.9052323   -0.2065343 
H     0.4973962    5.1517496    0.9583401 
H    -0.6060780    0.6531294   -3.2446648 
H    -0.2958896    4.3286997   -4.9705144 
H     0.9609811    3.9614513   -6.1624236 
H     1.7134932    5.6577706   -4.2952017 
H     2.7503406    4.2108601   -4.4317478 
H     3.0787034    0.1658177   -3.8063290 
H     4.0514091   -1.8427477   -4.9001020 
H     2.5384967   -3.7092617   -5.6485982 
H     0.0781267   -3.4878170   -5.3538451 
H    -1.2375750    0.3071623   -5.2957424 
H    -3.8185833   -0.8460610   -4.3312214 
H    -3.2065312   -0.4535675   -7.3267104 
H    -4.7973040   -0.9020558   -6.6406938 
H    -3.4022442   -2.0171202   -6.4644809 
H    -2.3483525    1.8836351   -6.5714587 
H    -3.0883434    4.2442461   -6.4477423 
H    -4.9204438    4.9149379   -4.8775114 
H    -6.0208310    3.1822953   -3.4473133 
H    -5.2823438    0.8068230   -3.5720559 
