197
Energy =
C    -3.2673580   -1.3308393   -1.1634944 
C    -3.5039069   -0.0712942   -0.5691780 
C    -2.8610072    1.0875130   -1.1275725 
H    -4.0111790   -0.0030101    0.4016557 
Pd   -1.3417390   -0.3091311   -0.4902221 
P     0.5081334    1.0126075   -0.9336005 
P     0.2343974   -1.7977912    0.3809522 
H    -2.8697910   -1.3361092   -2.1915742 
H    -2.7612434    1.1224741   -2.2209960 
C    -4.5231458   -5.2021872    0.2052885 
C    -5.0490801   -4.0528136    0.8189242 
C    -4.6696620   -2.7808401    0.3767000 
C    -3.7490209   -2.6341892   -0.6866318 
C    -3.2580369   -3.8013039   -1.3184438 
C    -3.6329948   -5.0727318   -0.8723340 
H    -4.8193817   -6.1962712    0.5560615 
H    -5.7662666   -4.1496521    1.6410199 
H    -5.1059816   -1.8938941    0.8466225 
H    -2.5693519   -3.6978698   -2.1639876 
H    -3.2172971   -5.9618519   -1.3535466 
C    -2.4101744    4.8983097    0.8294472 
C    -2.5968549    3.7360164    1.5967349 
C    -2.7713403    2.4959941    0.9729643 
C    -2.7668964    2.3919456   -0.4394508 
C    -2.5826568    3.5687332   -1.2003904 
C    -2.4109100    4.8074869   -0.5698425 
H    -2.2499640    5.8634244    1.3192221 
H    -2.5828514    3.7944037    2.6898799 
H    -2.8551301    1.5913798    1.5847031 
H    -2.5912000    3.5051778   -2.2942400 
H    -2.2754189    5.7107445   -1.1736081 
C    -1.0429824   -3.7628648   -6.7610023 
C    -0.9302034   -3.4069153   -8.1120603 
C     0.2841034   -3.5902992   -8.7925145 
C     1.3842116   -4.1350855   -8.1142535 
C     1.2703746   -4.4861061   -6.7604043 
C     0.0597179   -4.3022464   -6.0686384 
C    -0.0209746   -4.5895115   -4.5723524 
C    -1.1837197   -5.5064357   -4.1537876 
N    -0.1055584   -3.2951886   -3.8721285 
C     0.6161407   -2.8549706   -2.8291415 
O     0.3929644   -1.7337223   -2.3135225 
C     1.6614996   -3.7294970   -2.1995921 
C     2.8498216   -4.0905130   -2.8558331 
C     3.8156169   -4.8576375   -2.1896455 
C     3.5844203   -5.2759966   -0.8710053 
C     2.4072410   -4.9009164   -0.2086082 
C     1.4447651   -4.1120824   -0.8574609 
C     0.1872403   -3.6126340   -0.1692371 
C     0.3084889   -2.2699157    2.2159064 
N     0.3156728   -3.7611961    2.2410135 
N    -0.1924030   -4.3499279    1.0355038 
C     0.1964312   -4.4008534    3.4694841 
O     0.5809567   -3.8436531    4.4951922 
C    -0.5357041   -5.7292921    3.4530837 
C    -0.3479886   -6.5323901    2.1651597 
C    -0.4877743   -5.7028939    0.9039396 
O    -0.7602720   -6.1683698   -0.1986574 
C    -0.8312686   -1.7071913    3.0460231 
C    -0.5859918   -1.1007449    4.3000589 
C    -1.6712173   -0.6433643    5.0745629 
C    -2.9892499   -0.7752435    4.6174781 
C    -3.2323567   -1.4101802    3.3914454 
C    -2.1600248   -1.8796503    2.6209365 
C     0.8150732   -0.9080260    4.8212550 
O     1.7239287   -0.4122068    4.1397353 
N     1.0007464   -1.2667950    6.1230562 
C     2.3343648   -1.1705653    6.7306193 
C     2.4654677   -2.2233956    7.8416562 
C     2.6062292    0.2438490    7.2391889 
C     1.6405620    0.9340512    7.9959484 
C     1.9172875    2.2028458    8.5232061 
C     3.1675843    2.8004621    8.2984513 
C     4.1304053    2.1276347    7.5309098 
C     3.8483097    0.8588153    7.0027717 
C     1.9258783   -1.1339744    0.0891316 
C     3.0730143   -1.7964121    0.5539306 
C     4.3491214   -1.2991559    0.2566787 
C     4.4839704   -0.1276030   -0.4974953 
C     3.3430126    0.5662510   -0.9221053 
C     2.0588970    0.0812111   -0.6264239 
C     0.7773905    2.7494206   -0.2042587 
C     1.9838781    2.8172712    0.7305181 
C     3.1918465    3.4064349    0.3218399 
C     4.3221029    3.3911844    1.1477729 
C     4.2708961    2.7611907    2.3979581 
C     3.0679348    2.2003265    2.8382283 
C     1.9211970    2.2507532    2.0274565 
C     0.6213770    1.6763221    2.4895220 
O     0.0198876    0.8603141    1.7574489 
N     0.0402216    2.1053461    3.6386847 
C     0.5858837    2.8767087    4.7742575 
C    -0.5737253    3.1486693    5.7495808 
C     1.2625557    4.1839916    4.3784320 
C     2.3292439    4.6475725    5.1695964 
C     2.9517212    5.8692770    4.8832290 
C     2.5199901    6.6369071    3.7911563 
C     1.4628511    6.1766706    2.9930305 
C     0.8315179    4.9602495    3.2898975 
C     0.3564508    1.6794261   -2.7081309 
N     0.6864165    3.1214922   -2.6645383 
N     0.8910031    3.6644237   -1.3497874 
C     0.1766628    3.9020064   -3.6881272 
O    -0.2746623    3.3760931   -4.7116428 
C     0.1845507    5.4013607   -3.4898260 
C     1.1511524    5.8535677   -2.3951995 
C     0.9471431    5.0332339   -1.1360946 
O     0.8753194    5.4911768   -0.0015435 
C     1.0231774    0.9139427   -3.8313662 
C     2.4061870    1.0315191   -4.0453663 
C     3.0643477    0.2518394   -5.0040548 
C     2.3365949   -0.6682565   -5.7711328 
C     0.9511592   -0.7692139   -5.5988325 
C     0.2789769    0.0248666   -4.6503506 
C    -1.2271308   -0.1068300   -4.6422183 
O    -1.8021068   -1.2157810   -4.5939455 
N    -1.9170239    1.0503842   -4.7816985 
C    -3.3750763    1.0743294   -4.9994600 
C    -3.7028377    0.8456348   -6.4886816 
C    -3.9690051    2.3683745   -4.4585680 
C    -5.0279425    2.3273078   -3.5324595 
C    -5.5906342    3.5100511   -3.0306961 
C    -5.1008381    4.7545743   -3.4513091 
C    -4.0501306    4.8080250   -4.3805634 
C    -3.4913746    3.6247066   -4.8853189 
H    -1.9896338   -3.5902710   -6.2380237 
H    -1.7937778   -2.9830434   -8.6358074 
H     0.3705613   -3.3129963   -9.8483190 
H     2.3329145   -4.2885177   -8.6397573 
H     2.1347257   -4.9063376   -6.2323218 
H     0.9182867   -5.0716581   -4.2611122 
H    -1.1294283   -6.4627638   -4.7006746 
H    -2.1605764   -5.0405330   -4.3705610 
H    -1.1210790   -5.7127034   -3.0710773 
H    -0.8021003   -2.5911975   -4.2135244 
H     3.0177061   -3.7573034   -3.8856923 
H     4.7428243   -5.1353002   -2.7011195 
H     4.3266485   -5.8910564   -0.3519595 
H     2.2431292   -5.2134109    0.8278127 
H    -0.6653961   -3.6785831   -0.8614836 
H     1.2667907   -1.9039624    2.6074930 
H    -0.2362680   -6.2961203    4.3473901 
H    -1.6050067   -5.4630631    3.5771174 
H     0.6716145   -6.9644070    2.1259421 
H    -1.0502032   -7.3772713    2.0944908 
H    -1.4712505   -0.1757670    6.0446847 
H    -3.8207880   -0.4018461    5.2240937 
H    -4.2585408   -1.5502476    3.0386312 
H    -2.3620349   -2.3948140    1.6749891 
H     0.3274180   -1.9174331    6.5258034 
H     3.0647685   -1.3870431    5.9307081 
H     2.2961560   -3.2344365    7.4311850 
H     3.4747856   -2.1831804    8.2814135 
H     1.7374778   -2.0356130    8.6514776 
H     0.6621512    0.4714691    8.1701388 
H     1.1580999    2.7258443    9.1147700 
H     3.3865605    3.7898839    8.7133112 
H     5.1027849    2.5939655    7.3394848 
H     4.6008007    0.3369667    6.3999806 
H     2.9772608   -2.7095078    1.1470145 
H     5.2354640   -1.8308413    0.6169098 
H     5.4767269    0.2675358   -0.7344288 
H     3.4624339    1.5049086   -1.4631478 
H    -0.1535416    2.9785610    0.3463704 
H     3.2534083    3.8774403   -0.6634926 
H     5.2475836    3.8658055    0.8056683 
H     5.1576405    2.7243405    3.0384159 
H     3.0090358    1.6992788    3.8078532 
H    -0.8231875    1.5915566    3.8317646 
H     1.3263679    2.2444988    5.3007046 
H    -1.0404971    2.2051176    6.0850361 
H    -0.1892276    3.6746701    6.6368179 
H    -1.3407358    3.7835387    5.2724913 
H     2.6792619    4.0359486    6.0079206 
H     3.7834886    6.2154491    5.5067206 
H     3.0139508    7.5857892    3.5555427 
H     1.1392848    6.7442179    2.1169158 
H     0.0265412    4.6013781    2.6409554 
H    -0.7336453    1.6178618   -2.8473014 
H    -0.8571776    5.6767422   -3.2347830 
H     0.4017690    5.8631255   -4.4659646 
H     1.0183327    6.9124764   -2.1319142 
H     2.1969572    5.7125429   -2.7300668 
H     2.9719343    1.7610333   -3.4595113 
H     4.1436714    0.3648000   -5.1496904 
H     2.8353420   -1.2910803   -6.5206494 
H     0.3714516   -1.4575875   -6.2210949 
H    -1.3657078    1.9167123   -4.9016543 
H    -3.7798380    0.2243035   -4.4249785 
H    -3.2797933    1.6539090   -7.1096755 
H    -4.7953567    0.8272642   -6.6383364 
H    -3.2809353   -0.1187070   -6.8186695 
H    -5.4085176    1.3571665   -3.1927546 
H    -6.4078181    3.4583414   -2.3038926 
H    -5.5349305    5.6787436   -3.0560457 
H    -3.6660294    5.7761814   -4.7204513 
H    -2.6667574    3.6884445   -5.6030401 
