197
Energy =
C     2.1818088    1.1787508    3.6947016 
C     0.8788791    1.0364305    4.2451078 
C     0.2303014   -0.2268264    4.1441978 
H     0.3239420    1.9092337    4.6104850 
Pd    0.7299071    0.6152833    2.1214514 
P    -0.6925742   -0.3885458    0.5524009 
P     1.5528543    1.8063987    0.3196931 
H     2.7628762    0.2502202    3.5795547 
H     0.8912432   -1.1046411    4.1193715 
C     4.7002038    4.6541456    3.9521047 
C     5.2480038    3.3825607    3.7248703 
C     4.4083743    2.2700241    3.5985239 
C     3.0066378    2.3998527    3.7244527 
C     2.4670874    3.6926443    3.9231140 
C     3.3057432    4.8074393    4.0293138 
H     5.3536962    5.5258450    4.0640117 
H     6.3309377    3.2532592    3.6337163 
H     4.8446550    1.2816899    3.4182204 
H     1.3829717    3.8222294    3.9950202 
H     2.8748547    5.8019589    4.1789494 
C    -3.7374939   -0.9450141    5.6306090 
C    -3.4451780    0.2635865    4.9776823 
C    -2.1653833    0.5015448    4.4684596 
C    -1.1489091   -0.4732002    4.6062387 
C    -1.4590882   -1.6954037    5.2443546 
C    -2.7420455   -1.9243561    5.7604109 
H    -4.7447017   -1.1288083    6.0173632 
H    -4.2318187    1.0106163    4.8371926 
H    -1.9555723    1.4272484    3.9199740 
H    -0.6797158   -2.4572621    5.3627384 
H    -2.9633156   -2.8700349    6.2668329 
C    -6.7679277   -4.9794482   -0.6610271 
C    -7.0495094   -5.9924894    0.2659640 
C    -6.1488062   -7.0563096    0.4400372 
C    -4.9662785   -7.0968796   -0.3126522 
C    -4.6800713   -6.0764831   -1.2307157 
C    -5.5775703   -5.0104591   -1.4143414 
C    -5.2431123   -3.9123960   -2.4166934 
C    -6.1873598   -3.9155694   -3.6296058 
N    -5.2223589   -2.5684879   -1.8044607 
C    -4.0617310   -1.8994060   -1.5604922 
O    -2.9552613   -2.4583295   -1.6560811 
C    -4.1644568   -0.4123810   -1.3427963 
C    -4.9299806    0.2989533   -2.2940616 
C    -4.9329290    1.6965590   -2.3380019 
C    -4.1648449    2.4087554   -1.4092605 
C    -3.4254255    1.7196621   -0.4426574 
C    -3.4056201    0.3129665   -0.3887139 
C    -2.5885562   -0.2720636    0.7596383 
C    -0.7761267   -2.2684979    0.2993835 
N    -2.0454090   -2.6598553    0.9285823 
N    -2.9494577   -1.6008651    1.2266616 
C    -2.5252355   -3.9502454    0.7916531 
O    -1.8640659   -4.8248741    0.2276010 
C    -3.8634106   -4.1821674    1.4610301 
C    -4.1008396   -3.2120770    2.6239156 
C    -3.9852313   -1.7797142    2.1388372 
O    -4.7215277   -0.8468576    2.4332938 
C     0.3647714   -3.0839745    0.8763331 
C     1.2547831   -3.8216826    0.0665851 
C     2.2981717   -4.5465436    0.6761938 
C     2.4571770   -4.5595591    2.0669984 
C     1.5521308   -3.8478020    2.8720898 
C     0.5163559   -3.1253923    2.2733037 
C     1.1785409   -3.8986003   -1.4421880 
O     2.1693852   -3.6482387   -2.1481523 
N    -0.0155973   -4.3141160   -1.9353082 
C    -0.2340272   -4.5195799   -3.3753939 
C    -0.5594925   -3.1929950   -4.0767802 
C    -1.2620906   -5.6331071   -3.5744293 
C    -1.1055882   -6.8486784   -2.8754218 
C    -1.9977056   -7.9112739   -3.0670477 
C    -3.0700903   -7.7802324   -3.9639665 
C    -3.2418321   -6.5753984   -4.6579063 
C    -2.3474079   -5.5100482   -4.4622929 
C    -0.3191381    0.3221402   -1.1003072 
C    -0.9614172   -0.1384887   -2.2619628 
C    -0.7113576    0.4727739   -3.4971253 
C     0.1745943    1.5536221   -3.5816486 
C     0.8318350    2.0059741   -2.4315185 
C     0.6029325    1.3920273   -1.1877331 
C     3.3957619    1.7597667   -0.1607584 
C     3.6519787    1.1779457   -1.5418441 
C     3.9949059    1.9998431   -2.6257124 
C     4.1241608    1.4661516   -3.9154107 
C     3.8918107    0.1020564   -4.1380466 
C     3.6024502   -0.7412660   -3.0574597 
C     3.5125699   -0.2138529   -1.7598930 
C     3.2521048   -1.0817082   -0.5685212 
O     2.2748475   -0.8221450    0.1725789 
N     4.1196376   -2.0620495   -0.2304864 
C     5.2134378   -2.6887805   -1.0027267 
C     5.9459201   -3.6653201   -0.0632942 
C     6.2013241   -1.6889743   -1.5914400 
C     6.5849222   -0.5294971   -0.8960593 
C     7.5274187    0.3505479   -1.4449587 
C     8.1118696    0.0701721   -2.6889923 
C     7.7435284   -1.0916028   -3.3841168 
C     6.7899166   -1.9622041   -2.8391093 
C     1.5600276    3.7100090    0.5182764 
N     2.8774617    4.1468667    0.0358312 
N     3.8776848    3.1267190    0.0161456 
C     3.2600996    5.4776374    0.1367127 
O     2.4788232    6.3329754    0.5442306 
C     4.6929165    5.7296813   -0.2919732 
C     5.6243566    4.7975767    0.4931935 
C     5.2031843    3.3423811    0.3835159 
O     5.9600690    2.3901968    0.5428924 
C     0.3988135    4.4042920   -0.1652516 
C     0.5197202    4.9772115   -1.4450161 
C    -0.5826902    5.5448754   -2.0904166 
C    -1.8397986    5.5399915   -1.4694843 
C    -1.9704126    4.9957247   -0.1891252 
C    -0.8578349    4.4454956    0.4741761 
C    -1.0704815    3.9272895    1.8764485 
O    -1.4983959    2.7797444    2.0887819 
N    -0.8173678    4.8006806    2.8905371 
C    -0.2417331    6.1666718    2.7847341 
C    -0.0186881    6.7023232    4.2079733 
C    -1.1170298    7.1113656    1.9672590 
C    -0.5435139    7.8731797    0.9347536 
C    -1.3403663    8.7421201    0.1748672 
C    -2.7128998    8.8565768    0.4396659 
C    -3.2884708    8.1022496    1.4751711 
C    -2.4926793    7.2367170    2.2370385 
H    -7.4793781   -4.1540292   -0.7873902 
H    -7.9751103   -5.9552416    0.8503936 
H    -6.3708664   -7.8495652    1.1618960 
H    -4.2519103   -7.9159437   -0.1783939 
H    -3.7410075   -6.0963965   -1.7907254 
H    -4.2095435   -4.0802812   -2.7576048 
H    -7.2315843   -3.7160742   -3.3275066 
H    -6.1620923   -4.9053063   -4.1143837 
H    -5.8796561   -3.1525087   -4.3659198 
H    -6.1041219   -2.0781477   -1.6594745 
H    -5.4968309   -0.2648556   -3.0429952 
H    -5.5224494    2.2203023   -3.0972994 
H    -4.1444191    3.5022859   -1.4297563 
H    -2.8451531    2.2743494    0.3022493 
H    -2.7286389    0.4093065    1.6157329 
H    -0.8600601   -2.4074997   -0.7889531 
H    -4.6452724   -4.0537963    0.6907315 
H    -3.9022444   -5.2372080    1.7695179 
H    -5.0967078   -3.3366583    3.0727737 
H    -3.3460916   -3.3621203    3.4187006 
H     2.9741944   -5.1183806    0.0322480 
H     3.2658114   -5.1412368    2.5220668 
H     1.6470418   -3.8709150    3.9633027 
H    -0.2183858   -2.5979539    2.8883953 
H    -0.7663423   -4.5469968   -1.2615175 
H     0.7383675   -4.8720387   -3.7708983 
H    -0.5877836   -3.3236070   -5.1722487 
H    -1.5283792   -2.7972837   -3.7309889 
H     0.2305026   -2.4620739   -3.8405979 
H    -0.2736336   -6.9588921   -2.1712036 
H    -1.8550574   -8.8462574   -2.5146393 
H    -3.7694626   -8.6090988   -4.1139320 
H    -4.0765884   -6.4591059   -5.3576846 
H    -2.5013602   -4.5803167   -5.0173797 
H    -1.6568195   -0.9808707   -2.1975978 
H    -1.2150431    0.0972500   -4.3934707 
H     0.3719860    2.0386028   -4.5427672 
H     1.5459207    2.8241349   -2.5121173 
H     3.8880802    1.1442765    0.6107420 
H     4.1528371    3.0698188   -2.4554930 
H     4.3958712    2.1218267   -4.7490789 
H     3.9644232   -0.3123226   -5.1484656 
H     3.4337883   -1.8120802   -3.2055056 
H     3.7816491   -2.6059492    0.5691369 
H     4.7512558   -3.2720818   -1.8202412 
H     5.2550357   -4.4244232    0.3443495 
H     6.7406452   -4.1850671   -0.6210404 
H     6.4130790   -3.1178468    0.7736469 
H     6.1258261   -0.2862060    0.0674978 
H     7.7861272    1.2594658   -0.8937398 
H     8.8494159    0.7566734   -3.1187001 
H     8.1917811   -1.3160105   -4.3580536 
H     6.4889439   -2.8593438   -3.3933703 
H     1.5042859    3.8692540    1.6127721 
H     4.9176090    6.7907809   -0.1136576 
H     4.7810762    5.5318010   -1.3774553 
H     5.6214803    5.0643313    1.5641683 
H     6.6676124    4.8584020    0.1460298 
H     1.4989346    4.9925802   -1.9321598 
H    -0.4575041    5.9974232   -3.0792267 
H    -2.7070145    5.9867967   -1.9650700 
H    -2.9334922    5.0318947    0.3282079 
H    -1.0574278    4.4504434    3.8202145 
H     0.7336525    6.0836501    2.2715202 
H    -0.9817271    6.8375091    4.7313155 
H     0.4777648    7.6839017    4.1571055 
H     0.6137138    6.0211608    4.8046840 
H     0.5209263    7.7543278    0.7076457 
H    -0.8877065    9.3236449   -0.6354093 
H    -3.3346177    9.5323890   -0.1573032 
H    -4.3592696    8.1897478    1.6887927 
H    -2.9492561    6.6352882    3.0324176 
