197
Energy =
C     2.2586534    0.9913314    3.5963406 
C     0.9803462    0.8132150    4.1909161 
C     0.3541709   -0.4627386    4.0847082 
H     0.4174871    1.6689443    4.5829033 
Pd    0.7575927    0.4233835    2.0681221 
P    -0.7325898   -0.5824286    0.5923778 
P     1.4188078    1.6800709    0.2367278 
H     2.8493295    0.0752236    3.4375948 
H     1.0289172   -1.3286747    4.0260112 
C     4.7407909    4.4982082    3.7535618 
C     5.2867528    3.2407846    3.4548075 
C     4.4543706    2.1193967    3.3671819 
C     3.0642896    2.2248376    3.6014435 
C     2.5237471    3.5044182    3.8711848 
C     3.3543305    4.6284179    3.9397419 
H     5.3890850    5.3769191    3.8375050 
H     6.3608442    3.1300829    3.2769591 
H     4.8882757    1.1419018    3.1306212 
H     1.4471797    3.6175040    4.0312030 
H     2.9241715    5.6128400    4.1463338 
C    -3.6054286   -1.3312338    5.5236082 
C    -2.5887169   -2.2929869    5.6139246 
C    -1.3059537   -2.0088463    5.1255285 
C    -1.0150911   -0.7489650    4.5555347 
C    -2.0493395    0.2143307    4.4708107 
C    -3.3302235   -0.0798888    4.9482599 
H    -4.6138100   -1.5590996    5.8824977 
H    -2.7930168   -3.2684808    6.0683048 
H    -0.5124942   -2.7602856    5.2111560 
H    -1.8511179    1.1798524    3.9912416 
H    -4.1297192    0.6600980    4.8468276 
C    -7.2231198   -3.7018780    0.8797710 
C    -7.8589021   -4.3719915    1.9374432 
C    -8.1190997   -5.7459347    1.8508165 
C    -7.7357712   -6.4505140    0.6983673 
C    -7.1058129   -5.7811179   -0.3579367 
C    -6.8430444   -4.3979159   -0.2828671 
C    -6.1538005   -3.7115191   -1.4649986 
C    -7.0510327   -3.6768695   -2.7197294 
N    -5.7153489   -2.3551770   -1.1364256 
C    -4.4286616   -1.9131354   -1.2013102 
O    -3.4602198   -2.6509070   -1.4468439 
C    -4.2857659   -0.4220916   -1.0624778 
C    -4.9924915    0.3623555   -2.0001882 
C    -4.8397748    1.7506160   -2.0455471 
C    -3.9896269    2.3728171   -1.1224529 
C    -3.3080254    1.6087959   -0.1702277 
C    -3.4316244    0.2059833   -0.1302816 
C    -2.6080549   -0.4947037    0.9424114 
C    -0.8058491   -2.4433008    0.2761421 
N    -2.0337700   -2.8915398    0.9409783 
N    -2.9557188   -1.8651683    1.3036753 
C    -2.4798347   -4.1826375    0.7005555 
O    -1.8034200   -4.9766088    0.0447336 
C    -3.7827999   -4.5374795    1.3790286 
C    -4.1112738   -3.6000849    2.5462260 
C    -4.0407688   -2.1450601    2.1206383 
O    -4.8427713   -1.2633517    2.4137444 
C     0.3894782   -3.2444351    0.7575282 
C     1.2815590   -3.8763585   -0.1351098 
C     2.3812051   -4.5899813    0.3793475 
C     2.5977480   -4.6891378    1.7591388 
C     1.6988681   -4.0734655    2.6460210 
C     0.6049248   -3.3637977    2.1409672 
C     1.1532895   -3.8140499   -1.6392605 
O     2.0957197   -3.4314829   -2.3479155 
N    -0.0380344   -4.2278231   -2.1394034 
C    -0.2970521   -4.2445048   -3.5840552 
C    -1.7884579   -4.5327124   -3.8207053 
C     0.6003450   -5.2465261   -4.3087004 
C     0.7961338   -6.5395136   -3.7903206 
C     1.5852068   -7.4712694   -4.4784440 
C     2.1871906   -7.1216152   -5.6971988 
C     1.9976872   -5.8338073   -6.2199052 
C     1.2105404   -4.9030347   -5.5266021 
C    -0.4960164    0.1454416   -1.0762542 
C    -1.1931801   -0.3453191   -2.1955869 
C    -1.0395734    0.2722279   -3.4431839 
C    -0.1996411    1.3856617   -3.5781656 
C     0.5085486    1.8677865   -2.4708358 
C     0.3815634    1.2475450   -1.2151335 
C     3.2309405    1.7045525   -0.3524326 
C     3.4267042    1.1793742   -1.7642098 
C     3.6755902    2.0493607   -2.8364125 
C     3.7636921    1.5598275   -4.1466894 
C     3.5844387    0.1926532   -4.3978834 
C     3.3838545   -0.6946082   -3.3324409 
C     3.3328684   -0.2100217   -2.0162272 
C     3.1702271   -1.1085590   -0.8281880 
O     2.2177200   -0.9055810   -0.0384931 
N     4.1127372   -2.0318947   -0.5300906 
C     5.1669346   -2.6243298   -1.3799710 
C     5.9896613   -3.5842200   -0.5005184 
C     6.0809401   -1.5927129   -2.0297403 
C     6.5968379   -1.8464722   -3.3132165 
C     7.4786800   -0.9410430   -3.9190342 
C     7.8468338    0.2357127   -3.2492509 
C     7.3347987    0.4958149   -1.9693958 
C     6.4649370   -0.4184928   -1.3600495 
C     1.3921897    3.5785458    0.4937432 
N     2.6627323    4.0655597   -0.0641643 
N     3.6867693    3.0763593   -0.1535209 
C     3.0157964    5.4050080    0.0405897 
O     2.2420368    6.2321719    0.5147183 
C     4.4136058    5.7021208   -0.4679429 
C     5.4119411    4.7862017    0.2514963 
C     5.0259643    3.3216201    0.1356120 
O     5.8176739    2.3889629    0.2265201 
C     0.1834487    4.2953169   -0.0709604 
C     0.1884586    4.8558250   -1.3618367 
C    -0.9413275    5.5000274   -1.8744088 
C    -2.1073820    5.5928938   -1.1016392 
C    -2.1217528    5.0556827    0.1891671 
C    -0.9823356    4.4175248    0.7129953 
C    -1.0562350    3.8791800    2.1217750 
O    -1.3647608    2.6959447    2.3471077 
N    -0.8121328    4.7648041    3.1265169 
C    -0.2354457    6.1295015    3.0046987 
C     0.1252961    6.6211525    4.4156906 
C    -1.1676473    7.1098111    2.3012697 
C    -0.6786971    7.8963871    1.2440747 
C    -1.5260992    8.8027013    0.5900587 
C    -2.8658816    8.9290254    0.9854693 
C    -3.3568298    8.1493378    2.0455619 
C    -2.5094642    7.2474751    2.7025661 
H    -6.9903138   -2.6383692    0.9944353 
H    -8.1441843   -3.8116064    2.8342923 
H    -8.6135145   -6.2679947    2.6766353 
H    -7.9250400   -7.5265828    0.6236741 
H    -6.8019111   -6.3440058   -1.2483671 
H    -5.2250710   -4.2599371   -1.7037991 
H    -7.9625227   -3.0839815   -2.5263460 
H    -7.3650724   -4.6949896   -3.0019779 
H    -6.5046466   -3.2295317   -3.5675301 
H    -6.4300626   -1.6608082   -0.9201750 
H    -5.6458129   -0.1392053   -2.7229997 
H    -5.3796174    2.3394490   -2.7940417 
H    -3.8529458    3.4568616   -1.1400530 
H    -2.6592987    2.1016825    0.5629476 
H    -2.6984655    0.1091530    1.8619078 
H    -0.9338681   -2.5459002   -0.8128155 
H    -4.5789165   -4.4946457    0.6172607 
H    -3.7124211   -5.5893445    1.6975026 
H    -5.1161864   -3.7862439    2.9500000 
H    -3.3784776   -3.7354317    3.3642606 
H     3.0537847   -5.0842475   -0.3292815 
H     3.4497698   -5.2608411    2.1419595 
H     1.8440504   -4.1608805    3.7283648 
H    -0.1221103   -2.9088657    2.8201589 
H    -0.7352466   -4.6032041   -1.4756859 
H    -0.0511521   -3.2364569   -3.9677919 
H    -2.0057405   -4.4982978   -4.9007204 
H    -2.0460952   -5.5425431   -3.4549684 
H    -2.4217187   -3.7997698   -3.2929848 
H     0.3361573   -6.8129589   -2.8332953 
H     1.7312338   -8.4742313   -4.0625093 
H     2.8043478   -7.8490811   -6.2352311 
H     2.4700143   -5.5510234   -7.1671278 
H     1.0751451   -3.8922882   -5.9303239 
H    -1.8695209   -1.2018561   -2.0930108 
H    -1.5863582   -0.1172277   -4.3078662 
H    -0.0780292    1.8741597   -4.5499908 
H     1.1846059    2.7120484   -2.5977182 
H     3.7825122    1.0778513    0.3679633 
H     3.7954433    3.1198132   -2.6400172 
H     3.9636730    2.2506124   -4.9723162 
H     3.6287886   -0.1899471   -5.4224653 
H     3.2509556   -1.7654033   -3.5066714 
H     3.8404900   -2.5943547    0.2814938 
H     4.6638610   -3.2142688   -2.1683232 
H     6.4997247   -3.0275919    0.3047177 
H     5.3496107   -4.3634116   -0.0495952 
H     6.7566714   -4.0805995   -1.1153955 
H     6.2941324   -2.7553135   -3.8471049 
H     7.8703411   -1.1500150   -4.9204357 
H     8.5278505    0.9489502   -3.7261592 
H     7.5948251    1.4146127   -1.4350414 
H     6.0606332   -0.1900789   -0.3689387 
H     1.4153882    3.6943827    1.5952165 
H     4.6193754    6.7667846   -0.2880593 
H     4.4452996    5.5192978   -1.5591010 
H     5.4570051    5.0352935    1.3258715 
H     6.4333104    4.8832993   -0.1483288 
H     1.1056541    4.8155642   -1.9565412 
H    -0.9059442    5.9415612   -2.8754503 
H    -2.9927287    6.1064954   -1.4886991 
H    -3.0127640    5.1565082    0.8151147 
H    -0.9569203    4.3886666    4.0657891 
H     0.6851055    6.0480835    2.3991531 
H    -0.7837969    6.7506202    5.0292005 
H     0.6271970    7.5989350    4.3475394 
H     0.8005360    5.9158885    4.9318929 
H     0.3574749    7.7676295    0.9141313 
H    -1.1402828    9.4042614   -0.2399456 
H    -3.5277075    9.6341950    0.4713514 
H    -4.4015423    8.2458587    2.3603060 
H    -2.9005878    6.6267732    3.5177394 
