197
Energy =
C     2.6873127   -0.6492870    2.0703881 
C     1.5266435   -0.6827803    2.8880201 
C     0.4716074   -1.5854012    2.5826022 
H     1.3726188    0.0814484    3.6602460 
Pd    0.9053074   -0.2195343    0.8500019 
P    -1.0130092   -0.2797843   -0.4543505 
P     1.5188828    1.6034927   -0.4400410 
H     2.8970196   -1.5525400    1.4772530 
H     0.7272241   -2.5301225    2.0873609 
C     6.2216981    1.6490750    2.9014877 
C     5.0091004    1.9994602    3.5190785 
C     3.8386942    1.2966550    3.2184733 
C     3.8550452    0.2198361    2.3013950 
C     5.0712573   -0.0834918    1.6441397 
C     6.2434798    0.6195690    1.9479222 
H     7.1434705    2.1820785    3.1584124 
H     4.9714169    2.8306691    4.2293916 
H     2.9053485    1.5854451    3.7117827 
H     5.1017391   -0.8999311    0.9140869 
H     7.1764892    0.3486212    1.4463340 
C    -3.1730458   -1.4866863    4.8684638 
C    -2.5778776   -0.2874529    4.4493440 
C    -1.4059812   -0.3085193    3.6846600 
C    -0.8054491   -1.5383233    3.3211681 
C    -1.4271837   -2.7379498    3.7313888 
C    -2.5941591   -2.7110528    4.5055210 
H    -4.0979262   -1.4680806    5.4527839 
H    -3.0462256    0.6701855    4.7032291 
H    -0.9633404    0.6257340    3.3181607 
H    -0.9694690   -3.6953479    3.4587763 
H    -3.0604478   -3.6508267    4.8197947 
C    -7.2625257   -3.5896102    0.5460814 
C    -7.4920192   -4.7022412    1.3713302 
C    -7.6763848   -5.9735613    0.8113609 
C    -7.6312851   -6.1278430   -0.5834899 
C    -7.4093797   -5.0164257   -1.4060858 
C    -7.2214338   -3.7333910   -0.8528970 
C    -7.0065499   -2.5498971   -1.7964422 
C    -8.3196082   -2.1310748   -2.4901241 
N    -6.4082657   -1.3972063   -1.1242053 
C    -5.2037926   -0.8549708   -1.4621525 
O    -4.4599014   -1.3337782   -2.3304094 
C    -4.9043158    0.4482663   -0.7672164 
C    -5.8057645    1.5093935   -1.0028321 
C    -5.5774775    2.7889397   -0.4856507 
C    -4.4454354    3.0102959    0.3106610 
C    -3.5643105    1.9567294    0.5714230 
C    -3.7593230    0.6718058    0.0290393 
C    -2.7161079   -0.3669756    0.4053695 
C    -1.6045033   -1.6802020   -1.5894829 
N    -2.3221657   -2.5644673   -0.6653667 
N    -3.0964883   -1.7788357    0.2581874 
C    -2.6767951   -3.8745803   -0.9571189 
O    -2.0979154   -4.5243016   -1.8246380 
C    -3.8049935   -4.4436898   -0.1218783 
C    -3.8515443   -3.8638253    1.2892395 
C    -3.8674160   -2.3527213    1.2622619 
O    -4.4854983   -1.6322519    2.0413777 
C    -0.6468817   -2.2388017   -2.6152057 
C     0.3460349   -3.2260754   -2.4026622 
C     1.1404986   -3.6549543   -3.4785186 
C     0.9968157   -3.1003813   -4.7580051 
C     0.0383711   -2.1039932   -4.9666329 
C    -0.7800345   -1.6944555   -3.9045328 
C     0.5676287   -3.7905630   -1.0370329 
O     0.4368207   -3.1044432   -0.0157531 
N     0.9921379   -5.0926189   -0.9803400 
C     1.2483950   -5.7518869    0.3122581 
C    -0.0545324   -5.9652837    1.1023108 
C     2.3606143   -5.0062769    1.0608418 
C     2.3058073   -4.7496441    2.4415243 
C     3.3584620   -4.0866345    3.0934632 
C     4.4868383   -3.6699090    2.3757015 
C     4.5583158   -3.9264618    0.9964567 
C     3.5074844   -4.5913427    0.3518332 
C    -0.9891640    1.1459028   -1.6132400 
C    -2.0458222    1.4004152   -2.5101698 
C    -1.9721302    2.4711339   -3.4100535 
C    -0.8349283    3.2880582   -3.4334691 
C     0.2264327    3.0333528   -2.5564968 
C     0.1652039    1.9710218   -1.6368960 
C     3.2097514    1.7046020   -1.3597536 
C     3.1374935    1.5726210   -2.8712437 
C     3.1967645    2.6849676   -3.7284941 
C     3.1138640    2.5326957   -5.1172042 
C     2.9753618    1.2561320   -5.6802916 
C     2.9333033    0.1356738   -4.8426305 
C     3.0162772    0.2859819   -3.4465896 
C     2.8463569   -0.8788709   -2.5199316 
O     1.9095766   -0.8523878   -1.7003359 
N     3.7036880   -1.9289888   -2.5658435 
C     4.9606157   -2.0740064   -3.3269700 
C     4.9728937   -3.4288207   -4.0448732 
C     6.1546765   -1.8081667   -2.4094366 
C     6.5060607   -0.4689535   -2.1503650 
C     7.5777966   -0.1635522   -1.3028597 
C     8.3065662   -1.1952994   -0.6891608 
C     7.9572349   -2.5316724   -0.9325631 
C     6.8905482   -2.8370526   -1.7938135 
C     1.8685079    3.2286382    0.5119805 
N     3.2817646    3.4938391    0.2853294 
N     3.8271384    2.9662749   -0.9194116 
C     4.0090246    4.1825794    1.2496426 
O     3.4545263    4.5635551    2.2759978 
C     5.4596696    4.4445808    0.8923041 
C     5.6354090    4.5765997   -0.6251445 
C     5.1130666    3.3248707   -1.3086826 
O     5.7388487    2.6673630   -2.1341333 
C     0.9803199    4.4169835    0.1978380 
C     1.3920071    5.3890415   -0.7302794 
C     0.5585009    6.4598589   -1.0767079 
C    -0.7105840    6.5771465   -0.4922515 
C    -1.1131385    5.6489454    0.4750102 
C    -0.2715187    4.5798086    0.8387838 
C    -0.6846203    3.5760800    1.8703497 
O    -0.5668397    2.3546803    1.6452997 
N    -1.1824736    4.0097446    3.0609630 
C    -1.2437281    5.3714920    3.6130616 
C    -0.8078637    5.3299247    5.0899164 
C    -2.6240036    6.0087406    3.4456607 
C    -3.7900208    5.2290367    3.3427093 
C    -5.0469004    5.8379321    3.2056289 
C    -5.1525647    7.2357893    3.1729258 
C    -3.9942418    8.0216999    3.2775070 
C    -2.7397783    7.4114628    3.4122445 
H    -7.0751278   -2.6170895    1.0125472 
H    -7.5186514   -4.5699716    2.4584693 
H    -7.8517657   -6.8409569    1.4563216 
H    -7.7659722   -7.1179544   -1.0317455 
H    -7.3676098   -5.1473228   -2.4940044 
H    -6.2682589   -2.8388434   -2.5645129 
H    -9.0576992   -1.7853513   -1.7445016 
H    -8.7610587   -2.9855112   -3.0290759 
H    -8.1296019   -1.3177055   -3.2111481 
H    -6.9433240   -0.9237196   -0.3973760 
H    -6.6878885    1.3221776   -1.6255857 
H    -6.2802655    3.6012670   -0.6974476 
H    -4.2541739    3.9991147    0.7400022 
H    -2.6894858    2.1166768    1.2050189 
H    -2.4951392   -0.2144886    1.4768932 
H    -2.4021688   -1.1742144   -2.1649265 
H    -4.7487706   -4.2179899   -0.6516524 
H    -3.6907961   -5.5377346   -0.1214750 
H    -4.7331538   -4.2045623    1.8494185 
H    -2.9498091   -4.1614209    1.8568971 
H     1.9060955   -4.4181795   -3.3058453 
H     1.6280917   -3.4494836   -5.5820921 
H    -0.0932898   -1.6560079   -5.9567244 
H    -1.5587711   -0.9472474   -4.0856730 
H     0.7626848   -5.6869112   -1.7753911 
H     1.6542469   -6.7459844    0.0465153 
H     0.1177594   -6.5930491    1.9924964 
H    -0.4742464   -4.9955257    1.4133633 
H    -0.7922636   -6.4729418    0.4589387 
H     1.4339118   -5.0574303    3.0253613 
H     3.2872877   -3.8881656    4.1679848 
H     5.3016309   -3.1418285    2.8812777 
H     5.4360090   -3.6073605    0.4239056 
H     3.5686299   -4.7997371   -0.7232716 
H    -2.9347761    0.7618164   -2.5118966 
H    -2.8059214    2.6608865   -4.0936333 
H    -0.7663474    4.1248229   -4.1360265 
H     1.1059086    3.6743621   -2.5907714 
H     3.7805354    0.8563381   -0.9352081 
H     3.3276633    3.6841592   -3.3028888 
H     3.1663030    3.4157882   -5.7620732 
H     2.9051914    1.1337184   -6.7657774 
H     2.8110614   -0.8667623   -5.2638366 
H     3.5122119   -2.6362067   -1.8508203 
H     4.9510660   -1.2741635   -4.0832279 
H     4.1385872   -3.4811192   -4.7632623 
H     5.9212577   -3.5701785   -4.5885452 
H     4.8585454   -4.2660367   -3.3330049 
H     5.9480047    0.3518876   -2.6144003 
H     7.8374117    0.8865221   -1.1340303 
H     9.1501434   -0.9611588   -0.0306298 
H     8.5243430   -3.3422625   -0.4625333 
H     6.6458078   -3.8868235   -1.9874379 
H     1.7697029    2.9577863    1.5735582 
H     6.0582755    3.5988381    1.2764978 
H     5.7748755    5.3481180    1.4356244 
H     6.6883210    4.6963582   -0.9176111 
H     5.0716064    5.4527722   -1.0003232 
H     2.3810031    5.2969124   -1.1909823 
H     0.8988603    7.1991568   -1.8092066 
H    -1.3782109    7.3979827   -0.7722533 
H    -2.0911027    5.7527218    0.9544983 
H    -1.4440047    3.2451147    3.6871981 
H    -0.5100304    5.9746817    3.0513647 
H    -1.5022743    4.7067858    5.6820366 
H    -0.8242594    6.3455698    5.5167179 
H     0.2134435    4.9219164    5.1794006 
H    -3.7193663    4.1359868    3.3516313 
H    -5.9439059    5.2150304    3.1215193 
H    -6.1324469    7.7120671    3.0640323 
H    -4.0673933    9.1140278    3.2480344 
H    -1.8378910    8.0315691    3.4821252 
