197
Energy =
C     2.1880570    1.1612614    3.6949651 
C     0.8859212    1.0201740    4.2477073 
C     0.2335547   -0.2408036    4.1430709 
H     0.3343443    1.8930905    4.6179190 
Pd    0.7314714    0.6079295    2.1224156 
P    -0.6957005   -0.3874561    0.5520488 
P     1.5548458    1.8029202    0.3237482 
H     2.7664271    0.2316516    3.5748998 
H     0.8919989   -1.1203270    4.1133090 
C     4.7157093    4.6288933    3.9661205 
C     3.3215271    4.7858806    4.0412960 
C     2.4799456    3.6737530    3.9303613 
C     3.0162678    2.3800135    3.7291856 
C     4.4178435    2.2465976    3.6053522 
C     5.2603672    3.3564395    3.7362295 
H     5.3714630    5.4984296    4.0815803 
H     2.8931400    5.7811762    4.1930436 
H     1.3960387    3.8061457    4.0004540 
H     4.8516478    1.2575612    3.4229321 
H     6.3430942    3.2244484    3.6465499 
C    -3.7338372   -0.9544380    5.6328881 
C    -2.7408894   -1.9370358    5.7569123 
C    -1.4580548   -1.7093064    5.2399856 
C    -1.1455115   -0.4852522    4.6065816 
C    -2.1595534    0.4928455    4.4745847 
C    -3.4392095    0.2561524    4.9847079 
H    -4.7409451   -1.1371325    6.0204177 
H    -2.9640039   -2.8843354    6.2594865 
H    -0.6805505   -2.4737344    5.3540510 
H    -1.9481312    1.4203384    3.9297614 
H    -4.2240861    1.0058317    4.8484587 
C    -4.6706350   -6.0562765   -1.2552556 
C    -4.9467406   -7.0846020   -0.3429771 
C    -6.1302825   -7.0605874    0.4087564 
C    -7.0418394   -6.0051324    0.2399237 
C    -6.7701672   -4.9841214   -0.6812405 
C    -5.5791326   -4.9988692   -1.4340807 
C    -5.2554652   -3.8921388   -2.4304778 
C    -6.2086308   -3.8876162   -3.6362514 
N    -5.2327214   -2.5527108   -1.8081277 
C    -4.0713138   -1.8861041   -1.5609081 
O    -2.9654137   -2.4454063   -1.6611169 
C    -4.1727609   -0.4001175   -1.3351876 
C    -4.9409207    0.3159769   -2.2807618 
C    -4.9435444    1.7137676   -2.3182204 
C    -4.1722503    2.4214039   -1.3886543 
C    -3.4300411    1.7275673   -0.4275894 
C    -3.4106990    0.3206343   -0.3801027 
C    -2.5911030   -0.2695104    0.7638716 
C    -0.7817985   -2.2665639    0.2921364 
N    -2.0513611   -2.6586337    0.9203235 
N    -2.9521507   -1.5996104    1.2269413 
C    -2.5329606   -3.9477346    0.7796019 
O    -1.8733915   -4.8212006    0.2117775 
C    -3.8708415   -4.1801379    1.4495398 
C    -4.1037828   -3.2158510    2.6181986 
C    -3.9862483   -1.7811717    2.1405022 
O    -4.7199194   -0.8483788    2.4415711 
C     0.3581981   -3.0858786    0.8655473 
C     1.2464065   -3.8225480    0.0528817 
C     2.2886025   -4.5516081    0.6595047 
C     2.4480261   -4.5699504    2.0502072 
C     1.5447403   -3.8591828    2.8581451 
C     0.5102224   -3.1325476    2.2622928 
C     1.1695297   -3.8935382   -1.4561195 
O     2.1603713   -3.6414119   -2.1614673 
N    -0.0252365   -4.3057847   -1.9504329 
C    -0.2447767   -4.5036752   -3.3914372 
C    -0.5706234   -3.1733111   -4.0853830 
C    -1.2732141   -5.6159034   -3.5955212 
C    -1.1152152   -6.8358244   -2.9044584 
C    -2.0079549   -7.8970753   -3.1005823 
C    -3.0825821   -7.7601999   -3.9939142 
C    -3.2556721   -6.5511453   -4.6801035 
C    -2.3606027   -5.4871636   -4.4800409 
C    -0.3240538    0.3292437   -1.0985121 
C    -0.9704810   -0.1244136   -2.2606149 
C    -0.7207273    0.4907482   -3.4939202 
C     0.1694179    1.5683169   -3.5761927 
C     0.8308365    2.0136542   -2.4257183 
C     0.6019022    1.3959885   -1.1837876 
C     3.3972800    1.7541894   -0.1583004 
C     3.6514911    1.1770490   -1.5416906 
C     3.9952265    2.0022386   -2.6227972 
C     4.1229253    1.4728636   -3.9144350 
C     3.8883985    0.1098970   -4.1417002 
C     3.5981449   -0.7367725   -3.0639645 
C     3.5095127   -0.2137163   -1.7645602 
C     3.2476598   -1.0849094   -0.5759145 
O     2.2704281   -0.8264358    0.1655964 
N     4.1142180   -2.0669564   -0.2403292 
C     5.2066422   -2.6934100   -1.0147653 
C     5.9378057   -3.6738233   -0.0783553 
C     6.1959661   -1.6935848   -1.6009941 
C     6.5821158   -0.5370162   -0.9021771 
C     7.5257959    0.3430920   -1.4489376 
C     8.1087627    0.0657259   -2.6943509 
C     7.7378468   -1.0931569   -3.3929236 
C     6.7830717   -1.9637991   -2.8500129 
C     1.5662099    3.7059238    0.5286341 
N     2.8839470    4.1415252    0.0458480 
N     3.8820808    3.1194285    0.0237433 
C     3.2694780    5.4712415    0.1502486 
O     2.4901409    6.3272130    0.5600927 
C     4.7031074    5.7211362   -0.2769624 
C     5.6315258    4.7853281    0.5073956 
C     5.2078414    3.3312839    0.3925009 
O     5.9628398    2.3771469    0.5489613 
C     0.4054094    4.4043392   -0.1511790 
C     0.5255969    4.9811359   -1.4292645 
C    -0.5769666    5.5516603   -2.0718768 
C    -1.8335128    5.5457837   -1.4498100 
C    -1.9633233    4.9977821   -0.1709703 
C    -0.8505752    4.4446423    0.4896240 
C    -1.0625183    3.9223281    1.8904503 
O    -1.4955625    2.7761422    2.0995481 
N    -0.8019595    4.7902427    2.9074092 
C    -0.2253555    6.1561022    2.8054357 
C     0.0011069    6.6863170    4.2301722 
C    -1.1011872    7.1045194    1.9928703 
C    -0.5288289    7.8690427    0.9617286 
C    -1.3261242    8.7415320    0.2063916 
C    -2.6979995    8.8567053    0.4742714 
C    -3.2723892    8.0997272    1.5084996 
C    -2.4761490    7.2306153    2.2658146 
H    -3.7310367   -6.0633313   -1.8145991 
H    -4.2236284   -7.8965718   -0.2126322 
H    -6.3447978   -7.8601921    1.1258902 
H    -7.9682253   -5.9807920    0.8237988 
H    -7.4900954   -4.1655006   -0.8037824 
H    -4.2241310   -4.0550818   -2.7804419 
H    -7.2515970   -3.6959030   -3.3249609 
H    -6.1824210   -4.8724171   -4.1309698 
H    -5.9098117   -3.1159567   -4.3672394 
H    -6.1141133   -2.0634453   -1.6572730 
H    -5.5104300   -0.2441113   -3.0304583 
H    -5.5352664    2.2411798   -3.0732559 
H    -4.1515347    3.5150199   -1.4041800 
H    -2.8472912    2.2785700    0.3181378 
H    -2.7283509    0.4087612    1.6228762 
H    -0.8664842   -2.4014506   -0.7966770 
H    -4.6535613   -4.0455971    0.6810811 
H    -3.9117490   -5.2367001    1.7524222 
H    -5.0989486   -3.3407129    3.0685398 
H    -3.3476701   -3.3718621    3.4105444 
H     2.9634520   -5.1223036    0.0133118 
H     3.2555323   -5.1550263    2.5029207 
H     1.6399858   -3.8863563    3.9492379 
H    -0.2231939   -2.6057792    2.8795511 
H    -0.7761050   -4.5399498   -1.2772296 
H     0.7272548   -4.8542410   -3.7894512 
H    -0.6017997   -3.2983760   -5.1814217 
H    -1.5382839   -2.7784899   -3.7351692 
H     0.2205956   -2.4442742   -3.8474685 
H    -0.2816645   -6.9503973   -2.2028096 
H    -1.8641341   -8.8355394   -2.5544106 
H    -3.7826209   -8.5879065   -4.1471134 
H    -4.0920936   -6.4303960   -5.3771397 
H    -2.5158965   -4.5538385   -5.0286829 
H    -1.6685259   -0.9647516   -2.1980968 
H    -1.2278128    0.1207171   -4.3906363 
H     0.3667034    2.0562190   -4.5358599 
H     1.5481345    2.8291804   -2.5046884 
H     3.8888571    1.1347955    0.6105461 
H     4.1551760    3.0713159   -2.4488360 
H     4.3951684    2.1310251   -4.7459714 
H     3.9599556   -0.3010529   -5.1535985 
H     3.4279243   -1.8068198   -3.2156193 
H     3.7754563   -2.6127363    0.5576910 
H     4.7430795   -3.2735205   -1.8337718 
H     5.2456878   -4.4326310    0.3277588 
H     6.7311724   -4.1936691   -0.6379472 
H     6.4065422   -3.1294454    0.7597243 
H     6.1240014   -0.2958534    0.0623869 
H     7.7866686    1.2496731   -0.8948847 
H     8.8471537    0.7523308   -3.1224461 
H     8.1850581   -1.3152857   -4.3678636 
H     6.4799443   -2.8585142   -3.4070146 
H     1.5122330    3.8616517    1.6236914 
H     4.9299260    6.7813765   -0.0962417 
H     4.7919709    5.5251807   -1.3627346 
H     5.6268971    5.0489686    1.5791642 
H     6.6755686    4.8453134    0.1624833 
H     1.5043980    4.9973438   -1.9172045 
H    -0.4523529    6.0071553   -3.0594079 
H    -2.7009426    5.9943924   -1.9433925 
H    -2.9257463    5.0335884    0.3476157 
H    -1.0431410    4.4380078    3.8360477 
H     0.7489506    6.0739486    2.2900315 
H    -0.9607443    6.8206562    4.7559226 
H     0.4985589    7.6675224    4.1819203 
H     0.6339189    6.0022437    4.8231090 
H     0.5349712    7.7495266    0.7319848 
H    -0.8743292    9.3253884   -0.6026933 
H    -3.3201553    9.5349903   -0.1194320 
H    -4.3425752    8.1881067    1.7248204 
H    -2.9319494    6.6269347    3.0599432 
