197
Energy =
C     2.3198425    1.1265249    3.6065840 
C     1.0360583    0.8957684    4.1712238 
C     0.4719779   -0.4076763    4.0569004 
H     0.4269441    1.7266822    4.5471239 
Pd    0.8837137    0.4916570    2.0449779 
P    -0.5223340   -0.5766835    0.5196064 
P     1.5389057    1.7817990    0.2358102 
H     2.9520482    0.2353998    3.4671398 
H     1.1891165   -1.2398488    4.0190367 
C     4.6504407    4.7336613    3.8088019 
C     5.2542582    3.4995452    3.5238994 
C     4.4714349    2.3442305    3.4213595 
C     3.0736473    2.3921637    3.6272410 
C     2.4753922    3.6482077    3.8844099 
C     3.2564934    4.8061637    3.9678099 
H     5.2596141    5.6388941    3.9032524 
H     6.3355962    3.4331257    3.3690160 
H     4.9504292    1.3855475    3.1948815 
H     1.3920732    3.7157721    4.0217888 
H     2.7814122    5.7717767    4.1644401 
C    -3.4666377   -1.4582079    5.4276929 
C    -3.2455402   -0.2047069    4.8339013 
C    -1.9718086    0.1480963    4.3772349 
C    -0.8911515   -0.7579444    4.5007855 
C    -1.1277654   -2.0223939    5.0857056 
C    -2.4034988   -2.3643450    5.5548963 
H    -4.4685461   -1.7315706    5.7730063 
H    -4.0804072    0.4899105    4.7018009 
H    -1.8133182    1.1143605    3.8845931 
H    -0.2987050   -2.7307753    5.1972333 
H    -2.5664542   -3.3416602    6.0218870 
C    -6.8469983   -4.0079812    0.5984164 
C    -7.5272646   -4.6787405    1.6276670 
C    -7.7481074   -6.0598011    1.5479139 
C    -7.2802082   -6.7705366    0.4311242 
C    -6.6062831   -6.1004378   -0.5970807 
C    -6.3823952   -4.7098392   -0.5298704 
C    -5.6257599   -4.0269154   -1.6719207 
C    -6.3796989   -4.1037295   -3.0153430 
N    -5.3045801   -2.6345644   -1.3595398 
C    -4.0523711   -2.1018599   -1.3840284 
O    -3.0255979   -2.7712791   -1.5888769 
C    -4.0153591   -0.6039537   -1.2510768 
C    -4.7359085    0.1286409   -2.2192732 
C    -4.6704207    1.5239827   -2.2688864 
C    -3.8950016    2.2041681   -1.3210768 
C    -3.2008202    1.4897782   -0.3398031 
C    -3.2369793    0.0825114   -0.2932514 
C    -2.4099781   -0.5620359    0.8110656 
C    -0.5143831   -2.4439857    0.2066801 
N    -1.7324594   -2.9311664    0.8683391 
N    -2.7133699   -1.9412370    1.1780392 
C    -2.1073644   -4.2529699    0.6836611 
O    -1.3765459   -5.0444222    0.0866245 
C    -3.4147914   -4.6438068    1.3328651 
C    -3.8286423   -3.6844916    2.4524108 
C    -3.8032842   -2.2427627    1.9820712 
O    -4.6431681   -1.3842382    2.2349159 
C     0.7045893   -3.1878524    0.7214440 
C     1.6310316   -3.8175423   -0.1372864 
C     2.7505141   -4.4669539    0.4194690 
C     2.9530589   -4.5081292    1.8040878 
C     2.0166000   -3.9008736    2.6569365 
C     0.9041530   -3.2540189    2.1112651 
C     1.5178031   -3.8511629   -1.6457987 
O     2.4583621   -3.4806717   -2.3683494 
N     0.3556261   -4.3614737   -2.1205472 
C     0.1244976   -4.5664092   -3.5617392 
C    -0.3431945   -3.2615716   -4.2361417 
C    -0.8570909   -5.7108386   -3.7713114 
C    -0.4877311   -6.8358531   -4.5293941 
C    -1.3955753   -7.8830379   -4.7479901 
C    -2.6852965   -7.8189967   -4.2020943 
C    -3.0601443   -6.7013442   -3.4404953 
C    -2.1572178   -5.6509262   -3.2285385 
C    -0.2774044    0.1817849   -1.1327343 
C    -0.9351068   -0.3154178   -2.2709508 
C    -0.8013274    0.3380626   -3.5022303 
C    -0.0156582    1.4931589   -3.6029956 
C     0.6600992    1.9801662   -2.4775992 
C     0.5469312    1.3276447   -1.2374365 
C     3.3572234    1.8657551   -0.3286319 
C     3.5825213    1.3423798   -1.7371339 
C     3.8083540    2.2148723   -2.8121192 
C     3.9142503    1.7231568   -4.1205193 
C     3.7760730    0.3506005   -4.3684933 
C     3.6024706   -0.5384219   -3.2995779 
C     3.5346420   -0.0501132   -1.9857088 
C     3.3968176   -0.9554363   -0.8010879 
O     2.4335570   -0.7874678   -0.0163144 
N     4.3612127   -1.8566114   -0.5089178 
C     5.4537249   -2.3970166   -1.3454424 
C     6.3066740   -3.3211396   -0.4562852 
C     6.3304543   -1.3239575   -1.9790951 
C     6.6673581   -0.1439935   -1.2941396 
C     7.5088031    0.8070620   -1.8869567 
C     8.0386566    0.5795582   -3.1657946 
C     7.7169174   -0.6017152   -3.8512461 
C     6.8637426   -1.5444898   -3.2615658 
C     1.4430780    3.6776284    0.4927163 
N     2.7084619    4.2077989   -0.0355968 
N     3.7654644    3.2526832   -0.1283817 
C     3.0161160    5.5562828    0.0889829 
O     2.2081934    6.3514799    0.5610208 
C     4.4091489    5.9052128   -0.3989039 
C     5.4298776    5.0131162    0.3189136 
C     5.0906578    3.5380518    0.1897864 
O     5.9091428    2.6300935    0.2920424 
C     0.2208586    4.3462393   -0.1037371 
C     0.2441948    4.9370966   -1.3809434 
C    -0.9025401    5.5176314   -1.9304134 
C    -2.1059100    5.5122282   -1.2110878 
C    -2.1397559    4.9470289    0.0669646 
C    -0.9827747    4.3776024    0.6303631 
C    -1.0835585    3.8192294    2.0295829 
O    -1.3725330    2.6272904    2.2332962 
N    -0.8891394    4.6989046    3.0504156 
C    -0.3681565    6.0882255    2.9577020 
C    -0.0902873    6.5887846    4.3842881 
C    -1.3129529    7.0285003    2.2172604 
C    -2.6749753    7.1053016    2.5630379 
C    -3.5339293    7.9700624    1.8721537 
C    -3.0351858    8.7728701    0.8331894 
C    -1.6759609    8.7073427    0.4934050 
C    -0.8163953    7.8384591    1.1815216 
H    -6.6489053   -2.9371379    0.7104431 
H    -7.8786369   -4.1127236    2.4970929 
H    -8.2772148   -6.5824294    2.3515359 
H    -7.4375809   -7.8520504    0.3622410 
H    -6.2373155   -6.6701768   -1.4578515 
H    -4.6465403   -4.5222146   -1.7905806 
H    -7.3412928   -3.5645015   -2.9524542 
H    -6.5952861   -5.1510383   -3.2826446 
H    -5.7673484   -3.6593807   -3.8180679 
H    -6.0768119   -1.9913410   -1.1874422 
H    -5.3275309   -0.4168949   -2.9631045 
H    -5.2191071    2.0730438   -3.0407901 
H    -3.8270495    3.2949422   -1.3423490 
H    -2.6084632    2.0244980    0.4110016 
H    -2.5531373    0.0501699    1.7180311 
H    -0.6250243   -2.5649625   -0.8831372 
H    -4.1845662   -4.6661954    0.5432151 
H    -3.3060343   -5.6798653    1.6895183 
H    -4.8396814   -3.9009082    2.8250510 
H    -3.1242614   -3.7595411    3.3024863 
H     3.4519643   -4.9603554   -0.2610448 
H     3.8219267   -5.0315397    2.2168772 
H     2.1475691   -3.9465625    3.7436869 
H     0.1477938   -2.8081345    2.7637059 
H    -0.3231678   -4.7244927   -1.4306132 
H     1.1033070   -4.8400878   -3.9932175 
H    -0.4391157   -3.4131292   -5.3248578 
H    -1.3241457   -2.9531223   -3.8370192 
H     0.3920286   -2.4605740   -4.0507211 
H     0.5220051   -6.8931510   -4.9524598 
H    -1.0923470   -8.7519844   -5.3417639 
H    -3.3941461   -8.6374602   -4.3674468 
H    -4.0657018   -6.6505469   -3.0072651 
H    -2.4606222   -4.7819331   -2.6339019 
H    -1.5619618   -1.2098618   -2.1949403 
H    -1.3164533   -0.0610638   -4.3814577 
H     0.0904774    2.0104778   -4.5616239 
H     1.2989080    2.8563485   -2.5774925 
H     3.9209122    1.2588612    0.3993526 
H     3.8946757    3.2892979   -2.6195959 
H     4.0945296    2.4169260   -4.9481552 
H     3.8321068   -0.0330790   -5.3920280 
H     3.5076348   -1.6148808   -3.4680092 
H     4.1031545   -2.4334501    0.2973609 
H     4.9893563   -3.0075384   -2.1416161 
H     5.6965831   -4.1299097   -0.0163759 
H     7.1042899   -3.7799840   -1.0613346 
H     6.7793963   -2.7442419    0.3574130 
H     6.2483708    0.0590949   -0.3035487 
H     7.7329436    1.7281616   -1.3405666 
H     8.6974496    1.3216104   -3.6297627 
H     8.1226795   -0.7855451   -4.8519500 
H     6.5978026   -2.4577415   -3.8073049 
H     1.4346289    3.7962443    1.5941398 
H     4.5785544    6.9735174   -0.2034006 
H     4.4579748    5.7377370   -1.4919230 
H     5.4618685    5.2547038    1.3953195 
H     6.4501864    5.1446543   -0.0739695 
H     1.1853308    4.9658015   -1.9377704 
H    -0.8527541    5.9845654   -2.9192294 
H    -3.0062519    5.9734439   -1.6282820 
H    -3.0614502    4.9745191    0.6550291 
H    -1.0516188    4.3093872    3.9812932 
H     0.5807318    6.0519000    2.3924558 
H    -1.0295777    6.6771532    4.9582742 
H     0.3720404    7.5872024    4.3396414 
H     0.5918688    5.9112215    4.9279548 
H    -3.0711820    6.4660459    3.3612685 
H    -4.5938942    8.0194568    2.1439398 
H    -3.7062169    9.4485269    0.2920617 
H    -1.2834609    9.3273800   -0.3196902 
H     0.2372049    7.7571280    0.8944438 
