197
Energy =
C    -3.2293666   -0.8388630   -1.3127862 
C    -3.4978947    0.3079459   -0.5368459 
C    -2.9802593    1.5899901   -0.9138730 
H    -3.9518883    0.1868838    0.4551494 
Pd   -1.3150847    0.2147553   -0.6501781 
P     0.4088041    1.7656380   -0.6982285 
P     0.3851516   -1.3118951   -0.2038028 
H    -2.8737185   -0.6864108   -2.3416390 
H    -2.9334925    1.8262648   -1.9860803 
C    -4.5743729   -4.8218167   -0.3976430 
C    -3.5823151   -4.6075781   -1.3668836 
C    -3.1641199   -3.3075691   -1.6725846 
C    -3.7158130   -2.1936369   -1.0002226 
C    -4.7387185   -2.4230952   -0.0491179 
C    -5.1603130   -3.7230196    0.2511436 
H    -4.9060436   -5.8391470   -0.1644375 
H    -3.1316170   -5.4476735   -1.9005323 
H    -2.4006068   -3.1577749   -2.4428334 
H    -5.2215964   -1.5747963    0.4463322 
H    -5.9565338   -3.8791610    0.9867273 
C    -3.0503252    4.9610692    1.7737555 
C    -3.1226445    5.1543043    0.3867682 
C    -3.1021344    4.0576818   -0.4861208 
C    -3.0186980    2.7402271    0.0161729 
C    -2.9463208    2.5576435    1.4190263 
C    -2.9672474    3.6558232    2.2850685 
H    -3.0438267    5.8205675    2.4506502 
H    -3.1979073    6.1710098   -0.0135096 
H    -3.1647792    4.2082427   -1.5697477 
H    -2.8178970    1.5499392    1.8281906 
H    -2.8999842    3.4938340    3.3658319 
C    -3.4228308   -3.5622159   -5.3880151 
C    -4.6704027   -4.1336552   -5.0976394 
C    -4.7432502   -5.4572629   -4.6430400 
C    -3.5627171   -6.1983798   -4.4784425 
C    -2.3172039   -5.6206669   -4.7606039 
C    -2.2313210   -4.2916856   -5.2211965 
C    -0.8958495   -3.6669608   -5.5993127 
C    -0.1774881   -4.4480845   -6.7190751 
N    -0.0217432   -3.5205570   -4.4188304 
C     1.0633806   -2.6926999   -4.4626902 
O     1.2662040   -1.9031794   -5.3970793 
C     2.1054938   -2.9345146   -3.3880812 
C     3.4145532   -3.0910220   -3.8885643 
C     4.4538918   -3.5614810   -3.0796731 
C     4.1871107   -3.9067256   -1.7475904 
C     2.9069924   -3.6958542   -1.2251007 
C     1.8638063   -3.1654961   -2.0106644 
C     0.5328214   -2.8432620   -1.3597453 
C     0.4242854   -2.3627580    1.3656277 
N     0.3558280   -3.7525688    0.8943904 
N     0.0449917   -3.9168691   -0.4768544 
C     0.7428626   -4.7960935    1.7201414 
O     1.1305526   -4.5709024    2.8634513 
C     0.5741088   -6.1724506    1.0923062 
C    -0.6052381   -6.1773311    0.1042505 
C    -0.3685115   -5.1308633   -0.9681619 
O    -0.4736350   -5.3273504   -2.1830926 
C    -0.6433872   -2.0611788    2.3980370 
C    -0.2863377   -1.7859866    3.7369992 
C    -1.2996654   -1.5994369    4.6989953 
C    -2.6525997   -1.6559033    4.3385802 
C    -3.0020193   -1.9440126    3.0109519 
C    -2.0007057   -2.1584913    2.0555940 
C     1.1559053   -1.6426374    4.1445935 
O     1.9594318   -0.9378751    3.5155409 
N     1.5127810   -2.3010438    5.2823880 
C     2.8997958   -2.2374003    5.7644823 
C     3.2022498   -3.4717221    6.6253608 
C     3.1544492   -0.9245913    6.5032520 
C     4.2223514   -0.0906616    6.1284884 
C     4.4915345    1.0897204    6.8378947 
C     3.6913181    1.4494810    7.9325934 
C     2.6074360    0.6353981    8.2997976 
C     2.3403913   -0.5408451    7.5861563 
C     1.9998783   -0.4394251   -0.1332668 
C     3.1874748   -1.0508697    0.3046855 
C     4.4028069   -0.3581009    0.2695012 
C     4.4430316    0.9574407   -0.2065952 
C     3.2565576    1.5966985   -0.5820861 
C     2.0261928    0.9192822   -0.5218561 
C     0.4793169    3.3000228    0.4328836 
C     1.6842576    3.2894816    1.3677923 
C     2.7909492    4.1245434    1.1405151 
C     3.9452606    4.0298299    1.9276854 
C     4.0247987    3.0708643    2.9461540 
C     2.9172797    2.2612272    3.2163765 
C     1.7390517    2.3888049    2.4611225 
C     0.5355687    1.5612528    2.7763089 
O    -0.0534795    0.9414228    1.8643156 
N     0.0315291    1.5475584    4.0369225 
C     0.5459376    2.1220124    5.2965554 
C    -0.5172854    1.8853587    6.3844314 
C     0.8953951    3.6057097    5.2106912 
C     1.8860280    4.1071664    6.0748968 
C     2.2031860    5.4713697    6.0848290 
C     1.5381175    6.3521993    5.2186257 
C     0.5579634    5.8590735    4.3461385 
C     0.2339506    4.4945754    4.3474225 
C     0.4787936    2.8048493   -2.2925447 
N     0.2833951    4.1881615   -1.8679154 
N     0.4628982    4.4574083   -0.4741341 
C    -0.3766165    5.0563319   -2.7296903 
O    -0.6442872    4.7001047   -3.8745290 
C    -0.6920634    6.4320503   -2.1743151 
C     0.2451129    6.8228459   -1.0272114 
C     0.2790922    5.7349356    0.0308639 
O     0.1837743    5.9209087    1.2389130 
C     1.6887911    2.5517930   -3.1682866 
C     2.7865117    3.4236337   -3.2196100 
C     3.9132893    3.0999394   -3.9896229 
C     3.9531062    1.8994212   -4.7146114 
C     2.8460204    1.0376997   -4.7046851 
C     1.7165372    1.3677291   -3.9394648 
C     0.4708562    0.5210902   -3.9843113 
O     0.1181368   -0.2267214   -3.0537930 
N    -0.2737493    0.7313768   -5.0942949 
C    -1.5708999    0.1076363   -5.3505105 
C    -1.6970791   -0.1637347   -6.8601042 
C    -2.7272682    0.9620157   -4.8251031 
C    -2.6107448    2.3601498   -4.7227123 
C    -3.6946625    3.1383805   -4.2877503 
C    -4.9112571    2.5293334   -3.9456715 
C    -5.0357467    1.1343217   -4.0426312 
C    -3.9532793    0.3587217   -4.4829626 
H    -3.3720635   -2.5366157   -5.7685650 
H    -5.5846608   -3.5464883   -5.2355074 
H    -5.7144809   -5.9110325   -4.4200821 
H    -3.6113353   -7.2347974   -4.1269339 
H    -1.4070633   -6.2106946   -4.6137145 
H    -1.0802631   -2.6484324   -5.9709957 
H    -0.8284241   -4.5222970   -7.6065910 
H     0.0764332   -5.4694988   -6.3873272 
H     0.7492622   -3.9215935   -7.0006863 
H    -0.0858137   -4.2324356   -3.6734911 
H     3.5844895   -2.8759073   -4.9482013 
H     5.4578716   -3.6910048   -3.4965986 
H     4.9747407   -4.3236508   -1.1115838 
H     2.7103309   -3.9450821   -0.1774179 
H    -0.2326245   -2.6559237   -2.1245253 
H     1.4100314   -2.2042196    1.8241593 
H     1.5140533   -6.4380002    0.5706849 
H     0.4380960   -6.8949642    1.9110215 
H    -0.7296028   -7.1482035   -0.3962612 
H    -1.5477332   -5.9330067    0.6308832 
H    -1.0160786   -1.3955400    5.7371437 
H    -3.4284177   -1.4910136    5.0934755 
H    -4.0538102   -2.0178936    2.7188737 
H    -2.2773392   -2.4165994    1.0287909 
H     0.9025867   -3.0436436    5.6208743 
H     3.5456962   -2.2472373    4.8684245 
H     3.0399003   -4.3946389    6.0413400 
H     4.2507537   -3.4465563    6.9625139 
H     2.5601039   -3.4983175    7.5241643 
H     4.8443816   -0.3693825    5.2702651 
H     5.3275358    1.7296873    6.5358097 
H     3.9089418    2.3619667    8.4975599 
H     1.9726062    0.9167285    9.1468765 
H     1.4900391   -1.1703006    7.8738289 
H     3.1745539   -2.0680710    0.6959517 
H     5.3166473   -0.8522000    0.6140671 
H     5.3893671    1.5048229   -0.2531546 
H     3.2934407    2.6361813   -0.9023083 
H    -0.4634338    3.2756239    1.0087248 
H     2.7551458    4.8488676    0.3220000 
H     4.7894766    4.6987782    1.7310226 
H     4.9359219    2.9676863    3.5440624 
H     2.9630053    1.5080657    4.0071040 
H    -0.7648041    0.9113405    4.1221178 
H     1.4541782    1.5657119    5.5954213 
H    -0.7312862    0.8081696    6.5016489 
H    -0.1462972    2.2676236    7.3478265 
H    -1.4522182    2.4177118    6.1362483 
H     2.4189738    3.4153157    6.7354274 
H     2.9792193    5.8448632    6.7620262 
H     1.7922091    7.4176059    5.2145871 
H     0.0606480    6.5247015    3.6363975 
H    -0.5153004    4.1224430    3.6423136 
H    -0.4275583    2.5214498   -2.8559770 
H    -1.7414822    6.4132481   -1.8282161 
H    -0.6446476    7.1412246   -3.0150715 
H    -0.0628565    7.7563458   -0.5349014 
H     1.2740554    6.9633348   -1.4115344 
H     2.7520874    4.3611085   -2.6536480 
H     4.7636736    3.7890447   -4.0222940 
H     4.8386233    1.6437163   -5.3055083 
H     2.8336030    0.1046502   -5.2781730 
H     0.1178736    1.3493990   -5.8036368 
H    -1.5607287   -0.8478178   -4.7984758 
H    -1.6945690    0.7868075   -7.4232149 
H    -2.6461845   -0.6773974   -7.0826338 
H    -0.8538783   -0.7888254   -7.1991970 
H    -1.6683708    2.8607716   -4.9600982 
H    -3.5722265    4.2244599   -4.2189962 
H    -5.7557701    3.1347220   -3.6004136 
H    -5.9769350    0.6457561   -3.7691498 
H    -4.0627852   -0.7298366   -4.5500823 
