197
Energy =
C    -3.3322360   -1.8656655   -0.5772816 
C    -3.7105655   -0.5102686   -0.4315336 
C    -3.1759221    0.4524895   -1.3461454 
H    -4.2728146   -0.1809123    0.4516326 
Pd   -1.5379197   -0.5021706   -0.2580536 
P     0.1357052    1.0283604   -0.7314534 
P     0.1690328   -1.6130141    0.9113098 
H    -2.9043209   -2.1541938   -1.5500785 
H    -2.9807468    0.0869619   -2.3632767 
C    -4.5610904   -5.1931391    1.8590676 
C    -5.1859958   -3.9457452    2.0237718 
C    -4.8031073   -2.8532576    1.2374317 
C    -3.7838077   -2.9854298    0.2654820 
C    -3.1911048   -4.2567807    0.0885280 
C    -3.5652792   -5.3467412    0.8819168 
H    -4.8640592   -6.0447027    2.4773434 
H    -5.9830725   -3.8267784    2.7655466 
H    -5.3104795   -1.8924393    1.3701812 
H    -2.4237413   -4.3915045   -0.6803319 
H    -3.0697992   -6.3106652    0.7325371 
C    -3.6681085    4.7207998   -1.0420574 
C    -3.5697861    4.0983556   -2.2941360 
C    -3.4067679    2.7088751   -2.3791880 
C    -3.3530643    1.9128457   -1.2134019 
C    -3.4496330    2.5552616    0.0448712 
C    -3.6041081    3.9425917    0.1262077 
H    -3.7746381    5.8073232   -0.9697129 
H    -3.6287005    4.6956162   -3.2112516 
H    -3.3305642    2.2229437   -3.3579350 
H    -3.3606910    1.9614406    0.9620181 
H    -3.6523825    4.4281883    1.1059691 
C    -1.0914070   -3.9994582   -5.9157080 
C    -1.0187142   -3.6602659   -7.2736152 
C     0.1800016   -3.8387857   -7.9821592 
C     1.3023272   -4.3657304   -7.3269096 
C     1.2302929   -4.6936830   -5.9641447 
C     0.0378048   -4.5081502   -5.2422774 
C     0.0100767   -4.7279445   -3.7319713 
C    -1.1181002   -5.6428875   -3.2270047 
N    -0.0813599   -3.4002944   -3.0997043 
C     0.7363063   -2.8344464   -2.1970762 
O     0.5422411   -1.6644064   -1.7991937 
C     1.8374779   -3.6141470   -1.5389743 
C     3.0345358   -3.9606578   -2.1842398 
C     4.0607171   -4.5894364   -1.4638839 
C     3.8837970   -4.8764395   -0.1025315 
C     2.6907552   -4.5229469    0.5447956 
C     1.6629946   -3.8817407   -0.1623497 
C     0.3546245   -3.4540535    0.4784670 
C     0.2918668   -1.9571222    2.7716543 
N     0.4635452   -3.4356884    2.8867598 
N     0.0235622   -4.1451376    1.7228444 
C     0.4229770   -4.0110717    4.1522494 
O     0.7730853   -3.3631137    5.1354700 
C    -0.1953301   -5.3944918    4.2271885 
C     0.0391794   -6.2573829    2.9860359 
C    -0.1720872   -5.5197352    1.6789281 
O    -0.4188388   -6.0723259    0.6097384 
C    -0.8754277   -1.4719914    3.6088547 
C    -0.6480909   -0.7775602    4.8204748 
C    -1.7417113   -0.4338633    5.6398475 
C    -3.0518603   -0.7551696    5.2617625 
C    -3.2727831   -1.4595970    4.0699463 
C    -2.1893387   -1.8240257    3.2596350 
C     0.7394246   -0.3688146    5.2383975 
O     1.5306411    0.1982513    4.4701047 
N     1.0540588   -0.6131400    6.5420105 
C     2.3984357   -0.2866034    7.0375874 
C     2.7039930   -1.1327937    8.2818524 
C     2.5253488    1.2115094    7.3067550 
C     1.5799021    1.8775718    8.1095432 
C     1.7305073    3.2376148    8.4124659 
C     2.8297284    3.9523442    7.9100118 
C     3.7639002    3.3028905    7.0889154 
C     3.6096623    1.9410143    6.7889454 
C     1.7743266   -0.7715665    0.6023437 
C     2.9765934   -1.2407265    1.1550251 
C     4.1847912   -0.5853658    0.8811828 
C     4.1929387    0.5508895    0.0635375 
C     2.9919283    1.0401786   -0.4673792 
C     1.7758488    0.3904686   -0.2033017 
C     0.0616683    2.8137137   -0.1034605 
C     1.2154701    3.1791999    0.8276489 
C     2.2937915    3.9540749    0.3695906 
C     3.4060690    4.2028287    1.1837563 
C     3.4690725    3.6529814    2.4708453 
C     2.3859353    2.9159852    2.9608051 
C     1.2483666    2.7052073    2.1627269 
C     0.0555790    1.9685321    2.6838580 
O    -0.4462295    1.0433948    2.0075616 
N    -0.5460445    2.3699264    3.8323200 
C    -0.1096162    3.3337774    4.8626094 
C    -1.2254242    3.4300272    5.9183655 
C     0.2195265    4.7181447    4.3122761 
C     1.1944754    5.4881602    4.9721825 
C     1.4877210    6.7891232    4.5440373 
C     0.8140336    7.3322077    3.4395340 
C    -0.1513905    6.5670204    2.7699027 
C    -0.4516231    5.2690675    3.2082522 
C     0.1451287    1.5972555   -2.5576811 
N     0.5024196    3.0475176   -2.5164849 
N    -0.0174532    3.6465704   -1.3099272 
C     0.4317328    3.7665018   -3.7185735 
O     0.6781433    3.2259039   -4.7907476 
C    -0.0436012    5.2054348   -3.6465266 
C     0.1687025    5.8873191   -2.3002377 
C    -0.2397135    5.0059789   -1.1410939 
O    -0.6634962    5.4286824   -0.0704410 
C     0.9221251    0.7453335   -3.5379686 
C     2.3214519    0.8337655   -3.6344928 
C     3.0505838   -0.0204550   -4.4672118 
C     2.3848320   -0.9844655   -5.2371647 
C     0.9887380   -1.0613712   -5.1872187 
C     0.2515807   -0.2038010   -4.3501638 
C    -1.2507151   -0.3709465   -4.3866322 
O    -1.8373453   -1.3050377   -3.8046977 
N    -1.9577742    0.5357487   -5.1167121 
C    -1.3996488    1.4111751   -6.1739275 
C    -2.2725981    2.6638208   -6.3192350 
C    -1.2268450    0.6421819   -7.4819830 
C     0.0513313    0.5220538   -8.0567513 
C     0.2316688   -0.1839149   -9.2554526 
C    -0.8659308   -0.7788203   -9.8938201 
C    -2.1455808   -0.6668381   -9.3269209 
C    -2.3228026    0.0385723   -8.1289179 
H    -2.0258004   -3.8283074   -5.3697795 
H    -1.8925075   -3.2379477   -7.7796049 
H     0.2360252   -3.5617447   -9.0393640 
H     2.2388156   -4.5157260   -7.8748709 
H     2.1152954   -5.0886700   -5.4511416 
H     0.9723622   -5.1668800   -3.4242117 
H    -1.0778920   -6.6171648   -3.7422394 
H    -2.1099184   -5.1951016   -3.4128775 
H    -1.0023633   -5.8110721   -2.1423627 
H    -0.8122276   -2.7367267   -3.4312810 
H     3.1624899   -3.7236271   -3.2459388 
H     4.9958861   -4.8582256   -1.9655377 
H     4.6785715   -5.3766836    0.4602446 
H     2.5613773   -4.7435675    1.6095886 
H    -0.4670662   -3.6577890   -0.2235387 
H     1.2130438   -1.4684394    3.1135440 
H     0.1609664   -5.8807381    5.1476705 
H    -1.2810971   -5.2075812    4.3537184 
H     1.0879018   -6.6140748    2.9571876 
H    -0.5981763   -7.1549576    2.9771434 
H    -1.5550345    0.0969182    6.5793890 
H    -3.8933281   -0.4677807    5.9007175 
H    -4.2878571   -1.7357072    3.7714331 
H    -2.3691324   -2.3938846    2.3420811 
H     0.5140469   -1.3301932    7.0253819 
H     3.1120476   -0.5444737    6.2339018 
H     2.6362473   -2.2084026    8.0406938 
H     3.7220721   -0.9161571    8.6427365 
H     1.9989982   -0.9031051    9.1008311 
H     0.7179679    1.3235944    8.4993618 
H     0.9919896    3.7413831    9.0454066 
H     2.9531262    5.0128941    8.1533291 
H     4.6146197    3.8587493    6.6800696 
H     4.3370482    1.4353392    6.1435465 
H     2.9787499   -2.1231721    1.8009988 
H     5.1169253   -0.9639508    1.3123812 
H     5.1305972    1.0739226   -0.1490304 
H     3.0054504    1.9498495   -1.0681355 
H    -0.9028515    2.9052875    0.4188761 
H     2.2768845    4.3507189   -0.6501411 
H     4.2311136    4.8130600    0.8018953 
H     4.3484437    3.8152703    3.1021010 
H     2.4199521    2.4793135    3.9620291 
H    -1.3215168    1.7549680    4.0907741 
H     0.7894972    2.9303444    5.3653912 
H    -1.4320525    2.4423409    6.3667466 
H    -0.9085864    4.1125977    6.7219066 
H    -2.1524251    3.8265379    5.4689760 
H     1.7339591    5.0538398    5.8202660 
H     2.2518592    7.3750112    5.0667645 
H     1.0488159    8.3451937    3.0950198 
H    -0.6584656    6.9605585    1.8853106 
H    -1.1893441    4.6742445    2.6597718 
H    -0.9320447    1.5422885   -2.8064412 
H    -1.1272603    5.1495383   -3.8687368 
H     0.4251300    5.7494328   -4.4807515 
H    -0.3849158    6.8345564   -2.2198008 
H     1.2404688    6.1238205   -2.1490983 
H     2.8430364    1.6092051   -3.0714510 
H     4.1400713    0.0748106   -4.5193621 
H     2.9398840   -1.6599399   -5.8959901 
H     0.4591240   -1.7809240   -5.8171763 
H    -2.9512452    0.2984752   -5.1919560 
H    -0.4081092    1.7281134   -5.8201490 
H    -3.3037941    2.4100167   -6.6253094 
H    -1.8431185    3.3261766   -7.0873121 
H    -2.3128235    3.2157648   -5.3647933 
H     0.9098658    0.9817911   -7.5547621 
H     1.2330834   -0.2694880   -9.6905991 
H    -0.7274361   -1.3269833  -10.8318443 
H    -3.0077330   -1.1262311   -9.8223761 
H    -3.3293815    0.1193365   -7.6999305 
