197
Energy =
C     2.6522187   -0.2274093    2.0123754 
C     1.4452700   -0.2923866    2.7663849 
C     0.5783587   -1.4020807    2.5806574 
H     1.1144497    0.5643889    3.3675731 
Pd    0.9182628   -0.2693686    0.6564567 
P    -1.0309383   -0.3130443   -0.5902802 
P     1.8045941    0.8229623   -1.1894698 
H     3.0814195   -1.1841346    1.6829078 
H     1.0330081   -2.3323147    2.2056086 
C     5.4783587    3.0154041    2.1574476 
C     5.8987643    1.7052003    1.8879427 
C     4.9624840    0.6659759    1.8072164 
C     3.5897723    0.9108042    2.0373892 
C     3.1770760    2.2392014    2.3043378 
C     4.1127160    3.2774679    2.3574601 
H     6.2052204    3.8323534    2.2054474 
H     6.9629446    1.4848026    1.7499909 
H     5.2965533   -0.3540030    1.5869134 
H     2.1124036    2.4567534    2.4510920 
H     3.7791124    4.3012941    2.5471924 
C    -3.1507767   -1.9549053    4.6565057 
C    -2.7363183   -0.6595281    4.3049095 
C    -1.5227160   -0.4622429    3.6365526 
C    -0.7092385   -1.5638639    3.2831014 
C    -1.1325951   -2.8591888    3.6498528 
C    -2.3372186   -3.0523222    4.3384808 
H    -4.1019022   -2.0977747    5.1797493 
H    -3.3733981    0.1955522    4.5451270 
H    -1.2089171    0.5531465    3.3723034 
H    -0.5050693   -3.7181237    3.3913436 
H    -2.6437162   -4.0650932    4.6227894 
C    -4.9368750    2.2479318    5.9603358 
C    -5.2885430    1.4112684    7.0281246 
C    -6.0922363    0.2839018    6.8000393 
C    -6.5395369    0.0047060    5.5006744 
C    -6.1765070    0.8359887    4.4301194 
C    -5.3649109    1.9639363    4.6466419 
C    -4.9438901    2.8671353    3.4864505 
C    -5.5274065    4.2837027    3.6426825 
N    -3.4626736    2.8836236    3.4262073 
C    -2.6081295    2.7466638    2.3848386 
O    -1.3816849    2.6139275    2.6045000 
C    -3.1279134    2.8907742    0.9749042 
C    -3.6122651    4.1664037    0.6243020 
C    -4.0263264    4.4545308   -0.6812199 
C    -3.9933377    3.4428812   -1.6494847 
C    -3.5164904    2.1723218   -1.3071605 
C    -3.0398732    1.8790964   -0.0175409 
C    -2.5626470    0.4686117    0.2914096 
C    -2.0057012   -1.8712184   -1.0773298 
N    -3.3969248   -1.4649964   -0.9612734 
N    -3.6374820   -0.5266655    0.0628472 
C    -4.3904073   -1.8845043   -1.8344162 
O    -4.1319059   -2.6230475   -2.7785147 
C    -5.7766243   -1.4014048   -1.4312111 
C    -5.9042130   -1.3930518    0.1028963 
C    -4.8576695   -0.4584222    0.6959187 
O    -5.0590818    0.3601479    1.5899936 
C    -1.6300514   -3.1213089   -0.3066326 
C    -0.4212067   -3.7938764   -0.6196460 
C    -0.0566521   -4.9458108    0.1013824 
C    -0.9147539   -5.4762542    1.0726123 
C    -2.1371435   -4.8458803    1.3382048 
C    -2.4769931   -3.6613982    0.6710549 
C     0.4436378   -3.2752320   -1.7274798 
O     0.6630609   -2.0573041   -1.8660804 
N     0.9928786   -4.1739008   -2.5954586 
C     0.4140780   -5.4663461   -3.0401397 
C     1.5322919   -6.4981437   -3.2114788 
C    -0.4461947   -5.1987736   -4.2777107 
C    -1.6925550   -4.5645133   -4.0979606 
C    -2.4893771   -4.2167495   -5.1945709 
C    -2.0492834   -4.5052671   -6.4968385 
C    -0.8150345   -5.1414987   -6.6885069 
C    -0.0160776   -5.4850841   -5.5853874 
C    -0.7067647    0.3562718   -2.2897922 
C    -1.6476181    0.2679998   -3.3287995 
C    -1.3219536    0.6739872   -4.6313297 
C    -0.0410105    1.1614106   -4.9094547 
C     0.9183587    1.2145503   -3.8889840 
C     0.6046054    0.8071460   -2.5836795 
C     3.5011187    0.0876761   -1.6416889 
C     3.6172317   -0.9512294   -2.7364566 
C     3.6545467   -0.5686317   -4.0871537 
C     3.7919771   -1.5126201   -5.1121339 
C     3.9399216   -2.8700782   -4.7961776 
C     3.9764261   -3.2593515   -3.4506887 
C     3.8043676   -2.3180893   -2.4170993 
C     3.8682320   -2.7844053   -0.9896750 
O     3.0457050   -2.4527949   -0.1227130 
N     4.9027745   -3.6243588   -0.6968217 
C     5.0994280   -4.1043612    0.6785151 
C     6.5312701   -4.6375749    0.8336578 
C     4.0508613   -5.1483747    1.0572703 
C     3.8432273   -6.2816736    0.2491553 
C     2.9384912   -7.2802414    0.6373759 
C     2.2255768   -7.1539588    1.8406107 
C     2.4078100   -6.0150320    2.6393211 
C     3.3131740   -5.0181166    2.2463539 
C     2.5141848    2.5890898   -1.1065250 
N     3.9430867    2.4783196   -1.3783499 
N     4.4368129    1.2133044   -1.8512889 
C     4.7482366    3.5984473   -1.2790487 
O     4.3126017    4.6409464   -0.7972407 
C     6.1274089    3.4207826   -1.8860836 
C     6.7443526    2.0676141   -1.5244844 
C     5.7887047    0.8960059   -1.6519768 
O     6.1445797   -0.2765802   -1.6011663 
C     1.8082016    3.5923513   -2.0102244 
C     2.3436384    4.0197516   -3.2353778 
C     1.6365007    4.9118462   -4.0523645 
C     0.3786787    5.3889761   -3.6554084 
C    -0.1579282    4.9883170   -2.4243857 
C     0.5578305    4.1035350   -1.6010375 
C     0.0012937    3.5541394   -0.3240390 
O    -0.2343345    2.3262102   -0.2698507 
N    -0.1691750    4.3344800    0.7539064 
C     0.1031980    5.7738272    0.8990554 
C     1.4582740    6.0040493    1.5914133 
C    -1.0847574    6.4073577    1.6152259 
C    -1.9164476    7.3224611    0.9461584 
C    -3.0553109    7.8494753    1.5747444 
C    -3.3772244    7.4623242    2.8839481 
C    -2.5481547    6.5549873    3.5631496 
C    -1.4090473    6.0345213    2.9352029 
H    -4.3207938    3.1337348    6.1630093 
H    -4.9403805    1.6433945    8.0401255 
H    -6.3710178   -0.3700334    7.6330915 
H    -7.1706319   -0.8714494    5.3152943 
H    -6.4933968    0.5949946    3.4123671 
H    -5.2871149    2.4202715    2.5425121 
H    -5.1605284    4.7669106    4.5646897 
H    -6.6268190    4.2222250    3.7043735 
H    -5.2567802    4.9231284    2.7879700 
H    -2.9758924    2.8711772    4.3259933 
H    -3.6347141    4.9518481    1.3850161 
H    -4.3807903    5.4600229   -0.9296732 
H    -4.3349289    3.6381484   -2.6713095 
H    -3.5096259    1.3853934   -2.0635588 
H    -2.2730564    0.4000782    1.3522169 
H    -1.8074438   -2.0322131   -2.1476033 
H    -5.9298868   -0.3796087   -1.8294855 
H    -6.5109398   -2.0627492   -1.9142036 
H    -6.8903933   -1.0405598    0.4390670 
H    -5.7566047   -2.4143500    0.5036937 
H     0.9059885   -5.4252265   -0.1015652 
H    -0.6243840   -6.3791221    1.6176953 
H    -2.8191978   -5.2574262    2.0884557 
H    -3.4139542   -3.1521583    0.9121623 
H     1.5433612   -3.6972584   -3.3168469 
H    -0.2564391   -5.8039300   -2.2345964 
H     1.1237328   -7.4597551   -3.5637763 
H     2.2874643   -6.1579918   -3.9418353 
H     2.0410363   -6.6566236   -2.2465035 
H    -2.0536313   -4.3351504   -3.0886305 
H    -3.4493005   -3.7229269   -5.0164233 
H    -2.6695230   -4.2394313   -7.3596612 
H    -0.4693634   -5.3756506   -7.7012753 
H     0.9440388   -5.9828569   -5.7565962 
H    -2.6434489   -0.1457074   -3.1435118 
H    -2.0718695    0.5978020   -5.4250715 
H     0.2222233    1.4881777   -5.9203433 
H     1.9162643    1.5874306   -4.1182299 
H     3.7691874   -0.3893264   -0.6848452 
H     3.6134079    0.4945832   -4.3364843 
H     3.7979364   -1.1851627   -6.1567632 
H     4.0488033   -3.6170921   -5.5891097 
H     4.1179893   -4.3132976   -3.1883584 
H     5.6716468   -3.6960076   -1.3619592 
H     4.9612331   -3.2364977    1.3500583 
H     7.2681751   -3.8497072    0.5965355 
H     6.6959420   -4.9703731    1.8707245 
H     6.7058283   -5.5025257    0.1692771 
H     4.3980847   -6.3840475   -0.6908010 
H     2.7960339   -8.1635323    0.0052988 
H     1.5290770   -7.9402505    2.1510662 
H     1.8432457   -5.9007068    3.5710562 
H     3.4494624   -4.1263391    2.8692318 
H     2.3946926    2.8985453   -0.0531181 
H     6.7537546    4.2628514   -1.5580736 
H     6.0064258    3.5027172   -2.9843877 
H     7.0817806    2.0678802   -0.4738719 
H     7.6297392    1.8366265   -2.1391364 
H     3.3230402    3.6495576   -3.5552045 
H     2.0704902    5.2349796   -5.0041512 
H    -0.1789558    6.0763606   -4.2996203 
H    -1.1420618    5.3449137   -2.1014466 
H    -0.5288458    3.7941877    1.5682384 
H     0.1630712    6.1983171   -0.1148539 
H     1.4780345    5.5293617    2.5881657 
H     1.6410885    7.0841844    1.7197818 
H     2.2687566    5.5777534    0.9750187 
H    -1.6751685    7.6182200   -0.0814885 
H    -3.6930045    8.5614754    1.0400534 
H    -4.2682062    7.8670846    3.3751114 
H    -2.7919603    6.2505151    4.5864002 
H    -0.7824939    5.3130795    3.4716017 
