197
Energy =
C    -3.0037369   -2.2662574   -0.8901930 
C    -3.5427898   -0.9635268   -0.7798772 
C    -3.0515056    0.0646285   -1.6443993 
H    -4.2123117   -0.7105698    0.0521163 
Pd   -1.4057278   -0.7078249   -0.4252414 
P     0.0790512    1.0449809   -0.7267201 
P     0.3309618   -1.5991864    0.8864678 
H    -2.4610188   -2.5001741   -1.8192563 
H    -2.7242577   -0.2635036   -2.6401170 
C    -4.1538555   -5.7243902    1.4001549 
C    -3.0199666   -5.7564648    0.5734438 
C    -2.6667233   -4.6261875   -0.1723658 
C    -3.4206635   -3.4331111   -0.0934676 
C    -4.5706644   -3.4227840    0.7303646 
C    -4.9331076   -4.5577914    1.4649289 
H    -4.4399520   -6.6090474    1.9785694 
H    -2.3981799   -6.6540174    0.5093602 
H    -1.7889250   -4.6666860   -0.8249077 
H    -5.1978525   -2.5273059    0.7832544 
H    -5.8342517   -4.5351929    2.0872803 
C    -4.1269743    4.2279551   -1.3912810 
C    -3.8251201    3.6397236   -2.6272778 
C    -3.4702630    2.2855737   -2.6949305 
C    -3.4235505    1.4893240   -1.5288966 
C    -3.7253803    2.0980601   -0.2864076 
C    -4.0722420    3.4511152   -0.2217080 
H    -4.3854409    5.2893782   -1.3306720 
H    -3.8747721    4.2348706   -3.5463016 
H    -3.2370205    1.8260387   -3.6615181 
H    -3.6472396    1.5103069    0.6354956 
H    -4.2801313    3.9138140    0.7481522 
C     2.3390344   -4.4244218   -5.8434568 
C     2.5046606   -4.0668071   -7.1905541 
C     1.3986767   -3.6557830   -7.9485257 
C     0.1250430   -3.6229678   -7.3589385 
C    -0.0394008   -3.9909288   -6.0166212 
C     1.0695315   -4.3837493   -5.2399412 
C     0.9222340   -4.6324243   -3.7409456 
C    -0.1402454   -5.6757814   -3.3566323 
N     0.6211920   -3.3370509   -3.1077113 
C     1.3037869   -2.6827680   -2.1537852 
O     0.9391143   -1.5513006   -1.7649271 
C     2.4566044   -3.3196475   -1.4344190 
C     3.7227669   -3.4963568   -2.0134306 
C     4.7833992   -3.9908918   -1.2400850 
C     4.5722235   -4.3170463    0.1073732 
C     3.3084709   -4.1349874    0.6878279 
C     2.2450661   -3.6241627   -0.0704331 
C     0.8579969   -3.4026716    0.5043025 
C     0.3214523   -1.9051414    2.7636332 
N     0.7934885   -3.3018700    2.9015757 
N     0.5939317   -4.0979426    1.7531424 
C     1.1330770   -3.8518108    4.1238025 
O     1.2560306   -3.1463356    5.1223694 
C     1.2443599   -5.3719419    4.0993379 
C     0.1283936   -5.9696389    3.2221955 
C     0.2430463   -5.4372548    1.8023075 
O     0.1087532   -6.0900035    0.7718538 
C    -0.9807417   -1.6829186    3.5053088 
C    -0.9785708   -1.0092510    4.7518910 
C    -2.1782624   -0.9026626    5.4842359 
C    -3.3729971   -1.4419937    4.9903333 
C    -3.3687895   -2.1216916    3.7643069 
C    -2.1783278   -2.2472197    3.0358219 
C     0.2708363   -0.3680514    5.2979418 
O     1.0135052    0.3468867    4.6091235 
N     0.5073661   -0.5746476    6.6245098 
C     1.7437700   -0.0547697    7.2246918 
C     2.0926394   -0.8824332    8.4701456 
C     1.6134689    1.4352147    7.5326562 
C     2.6282972    2.3325149    7.1564880 
C     2.5454326    3.6906171    7.4985319 
C     1.4406357    4.1680349    8.2198754 
C     0.4110630    3.2837960    8.5799121 
C     0.4978753    1.9278897    8.2357974 
C     1.8239607   -0.5362516    0.7341843 
C     3.0238112   -0.8484241    1.3934219 
C     4.1471012   -0.0234341    1.2451018 
C     4.0706381    1.1242154    0.4466943 
C     2.8675400    1.4547971   -0.1912166 
C     1.7370290    0.6337788   -0.0534739 
C    -0.3008894    2.7890760   -0.0942887 
C     0.6840763    3.2863306    0.9620678 
C     1.6866023    4.2132332    0.6321122 
C     2.6537929    4.6010484    1.5677639 
C     2.6480586    4.0432992    2.8528790 
C     1.6335055    3.1508824    3.2138578 
C     0.6352599    2.7945635    2.2903897 
C    -0.4830308    1.8760525    2.6695974 
O    -0.7576770    0.9006858    1.9355181 
N    -1.2652276    2.1523352    3.7437177 
C    -1.0897954    3.1316896    4.8346566 
C    -2.3152418    3.0268295    5.7599337 
C    -0.9084006    4.5666481    4.3501236 
C    -0.1417050    5.4471459    5.1348075 
C     0.0077411    6.7892451    4.7630590 
C    -0.6009118    7.2643584    3.5914544 
C    -1.3581900    6.3902868    2.7985882 
C    -1.5168440    5.0500765    3.1800351 
C     0.1808933    1.6460745   -2.5377623 
N     0.3421169    3.1285666   -2.4510587 
N    -0.3629193    3.6320906   -1.2953350 
C     0.2929779    3.8557877   -3.6492237 
O     0.7040611    3.3700844   -4.6969548 
C    -0.3640658    5.2227527   -3.6120300 
C    -0.3707801    5.8974835   -2.2455256 
C    -0.7747005    4.9480738   -1.1396204 
O    -1.3528003    5.2912485   -0.1136734 
C     1.1488804    0.9167261   -3.4441748 
C     2.5287295    1.1808014   -3.4052117 
C     3.4352971    0.4372735   -4.1666672 
C     2.9724797   -0.5908668   -4.9997140 
C     1.5988473   -0.8428822   -5.0843320 
C     0.6835568   -0.0966317   -4.3196115 
C    -0.7752832   -0.4499654   -4.4998710 
O    -1.2934814   -1.4562493   -3.9755369 
N    -1.5174256    0.3688891   -5.2953768 
C    -0.9769333    1.3251153   -6.2900252 
C    -1.9809386    2.4638127   -6.5081557 
C    -0.5914627    0.6056164   -7.5806310 
C     0.7408226    0.6443659   -8.0301903 
C     1.1155714   -0.0149255   -9.2103616 
C     0.1607316   -0.7217387   -9.9552948 
C    -1.1713370   -0.7685226   -9.5138521 
C    -1.5428594   -0.1093913   -8.3341271 
H     3.2089646   -4.7293088   -5.2496464 
H     3.5002935   -4.1033046   -7.6456955 
H     1.5246052   -3.3561744   -8.9934965 
H    -0.7376855   -3.2911522   -7.9450869 
H    -1.0349127   -3.9320673   -5.5629964 
H     1.8938503   -4.9672371   -3.3445100 
H     0.0571233   -6.6296702   -3.8736419 
H    -1.1535871   -5.3364737   -3.6334189 
H    -0.1134053   -5.8524809   -2.2673154 
H    -0.1563962   -2.7606217   -3.4929620 
H     3.8750160   -3.2317857   -3.0652594 
H     5.7720753   -4.1260571   -1.6903389 
H     5.3939980   -4.7160534    0.7107132 
H     3.1456778   -4.3951890    1.7385195 
H     0.1120040   -3.7635819   -0.2208215 
H     1.0875628   -1.2387877    3.1824732 
H     2.2365179   -5.6614673    3.7021598 
H     1.1911794   -5.7192727    5.1417533 
H     0.1763137   -7.0672640    3.1723996 
H    -0.8654425   -5.6898902    3.6226304 
H    -2.1687938   -0.3798345    6.4466471 
H    -4.2998528   -1.3384156    5.5640213 
H    -4.2892713   -2.5616467    3.3717337 
H    -2.1839237   -2.7914392    2.0853542 
H     0.0593378   -1.3803953    7.0588572 
H     2.5425124   -0.1746066    6.4704236 
H     2.2170082   -1.9455404    8.1980832 
H     3.0342766   -0.5187324    8.9114369 
H     1.3035802   -0.7952062    9.2385498 
H     3.4895985    1.9614208    6.5889668 
H     3.3443475    4.3781402    7.2004285 
H     1.3776893    5.2261650    8.4949192 
H    -0.4592029    3.6522323    9.1337783 
H    -0.3098489    1.2407104    8.5132715 
H     3.0891576   -1.7375634    2.0269776 
H     5.0792650   -0.2786935    1.7590183 
H     4.9407481    1.7782488    0.3322405 
H     2.8077331    2.3722713   -0.7775507 
H    -1.3192318    2.7389604    0.3210416 
H     1.7273568    4.6238134   -0.3813604 
H     3.4213416    5.3283807    1.2835525 
H     3.4177732    4.3170827    3.5813668 
H     1.6182341    2.7039722    4.2109190 
H    -1.9539719    1.4145686    3.9104696 
H    -0.2007325    2.8434278    5.4266738 
H    -2.4236328    2.0018459    6.1570212 
H    -2.1892562    3.7137391    6.6110179 
H    -3.2361398    3.3060969    5.2190283 
H     0.3511876    5.0685957    6.0364433 
H     0.6108342    7.4617767    5.3830779 
H    -0.4758651    8.3104298    3.2913603 
H    -1.8072230    6.7344309    1.8634469 
H    -2.0895392    4.3729748    2.5378165 
H    -0.8521202    1.4584117   -2.8880522 
H    -1.4053413    5.0376532   -3.9410257 
H     0.1111622    5.8381998   -4.3911560 
H    -1.0449509    6.7662245   -2.2118411 
H     0.6428738    6.2629616   -1.9878871 
H     2.8930116    2.0054509   -2.7907751 
H     4.5041363    0.6684788   -4.1132875 
H     3.6684326   -1.1813355   -5.6042768 
H     1.2263223   -1.6137756   -5.7639612 
H    -2.4616980    0.0108623   -5.4658302 
H    -0.0691167    1.7548101   -5.8428299 
H    -2.9406877    2.0915727   -6.9104942 
H    -1.5678109    3.1875435   -7.2283089 
H    -2.1759966    2.9892220   -5.5578973 
H     1.4882674    1.1916158   -7.4450801 
H     2.1568936    0.0237415   -9.5475022 
H     0.4509381   -1.2337325  -10.8789920 
H    -1.9228712   -1.3157288  -10.0931100 
H    -2.5881511   -0.1529797   -8.0037865 
