197
Energy =
C    -3.3270296   -1.1199484   -0.6502589 
C    -3.4846427    0.2121540   -0.2111026 
C    -2.8590791    1.2755329   -0.9415684 
H    -3.9329291    0.4165473    0.7696893 
Pd   -1.3207658   -0.0996455   -0.2586575 
P     0.5164143    1.1752692   -0.8759269 
P     0.2907659   -1.5197655    0.6312955 
H    -2.9781344   -1.2656476   -1.6839362 
H    -2.7973869    1.1558129   -2.0320040 
C    -4.8784080   -4.6657620    1.2199988 
C    -3.9676468   -4.7545765    0.1557658 
C    -3.4860809   -3.5884432   -0.4488834 
C    -3.8876990   -2.3111951    0.0046056 
C    -4.8261837   -2.2391334    1.0606695 
C    -5.3128836   -3.4049186    1.6621871 
H    -5.2604926   -5.5757762    1.6941565 
H    -3.6149046   -5.7296114   -0.1906051 
H    -2.7816050   -3.6567462   -1.2841689 
H    -5.1940209   -1.2651496    1.3982309 
H    -6.0441583   -3.3315164    2.4743432 
C    -2.4343046    5.2947010    0.5541565 
C    -2.5237901    4.2168412    1.4505506 
C    -2.6734997    2.9109251    0.9732915 
C    -2.7493312    2.6523104   -0.4172506 
C    -2.6631752    3.7454195   -1.3091080 
C    -2.5104544    5.0520158   -0.8246665 
H    -2.2915169    6.3130601    0.9276331 
H    -2.4545774    4.3939447    2.5287244 
H    -2.6766082    2.0746154    1.6801504 
H    -2.7267678    3.5606715   -2.3878201 
H    -2.4505401    5.8918295   -1.5246709 
C     0.8122856   -4.4615953   -6.2199024 
C     1.0254659   -4.1661748   -7.5746326 
C     0.0270527   -3.5165080   -8.3153783 
C    -1.1841383   -3.1730387   -7.6944322 
C    -1.3944300   -3.4660250   -6.3396227 
C    -0.3942223   -4.1112956   -5.5866979 
C    -0.5769612   -4.3627188   -4.0916521 
C    -1.8874010   -5.0778676   -3.7253008 
N    -0.4766988   -3.0755882   -3.3802558 
C     0.4713848   -2.6668908   -2.5131489 
O     0.4711110   -1.5049785   -2.0591707 
C     1.5008826   -3.6200600   -1.9737497 
C     2.5900470   -4.0764768   -2.7330004 
C     3.5799528   -4.8707705   -2.1361950 
C     3.4747210   -5.2153258   -0.7811248 
C     2.3954294   -4.7478851   -0.0175357 
C     1.4100835   -3.9358423   -0.5978660 
C     0.2400739   -3.3828733    0.1948514 
C     0.4480665   -1.8560335    2.4920895 
N     0.5463595   -3.3279491    2.5847295 
N     0.0038966   -4.0227378    1.4799707 
C     0.8757278   -3.9682352    3.7650338 
O     1.2836606   -3.3322777    4.7342585 
C     0.6015425   -5.4671199    3.7423316 
C    -0.7305714   -5.7477812    3.0219194 
C    -0.6721899   -5.2284969    1.5930818 
O    -1.1037922   -5.7987074    0.5970344 
C    -0.6573298   -1.2982062    3.3657239 
C    -0.3411869   -0.6168661    4.5658002 
C    -1.3822393   -0.1598576    5.3989557 
C    -2.7242094   -0.3673399    5.0531342 
C    -3.0342607   -1.0682353    3.8791418 
C    -2.0060579   -1.5333611    3.0480469 
C     1.0872655   -0.3424413    4.9634341 
O     1.9194363    0.1501595    4.1887897 
N     1.3944017   -0.6249801    6.2611510 
C     2.7800883   -0.4713467    6.7259409 
C     3.0239445   -1.4044536    7.9207297 
C     3.0844342    0.9892416    7.0513656 
C     2.2274929    1.7321270    7.8853822 
C     2.5400113    3.0520971    8.2380863 
C     3.7157665    3.6490974    7.7557202 
C     4.5641183    2.9244884    6.9048811 
C     4.2473239    1.6034595    6.5544807 
C     1.9745538   -0.8884991    0.2532935 
C     3.1276725   -1.5458979    0.7096572 
C     4.3982413   -1.0574351    0.3756136 
C     4.5171882    0.0963608   -0.4079522 
C     3.3681771    0.7733431   -0.8395641 
C     2.0897595    0.2961599   -0.5106791 
C     0.7771181    2.9806362   -0.3290266 
C     2.0032560    3.1586997    0.5659062 
C     3.1835240    3.7449183    0.0781568 
C     4.3367330    3.8239417    0.8679894 
C     4.3391588    3.2925146    2.1642528 
C     3.1644687    2.7394731    2.6824127 
C     1.9928605    2.6981306    1.9063855 
C     0.7311087    2.1245852    2.4652136 
O     0.1185674    1.2443000    1.8230017 
N     0.2008809    2.6101091    3.6167407 
C     0.7762396    3.4959230    4.6484828 
C    -0.3187431    3.7530229    5.6995456 
C     1.3192172    4.8153764    4.1078402 
C     0.7930228    5.4450688    2.9678255 
C     1.3020244    6.6790304    2.5378032 
C     2.3327784    7.3048133    3.2530539 
C     2.8621110    6.6836878    4.3944263 
C     2.3613937    5.4444154    4.8133483 
C     0.3051102    1.6411638   -2.7068582 
N     0.5112217    3.1000989   -2.7944277 
N     0.8555932    3.7671776   -1.5701453 
C    -0.1748646    3.7503982   -3.8142696 
O    -0.7422351    3.0941092   -4.6883413 
C    -0.1515726    5.2659221   -3.7885636 
C     0.9475449    5.8196317   -2.8780225 
C     0.8820913    5.1531323   -1.5162913 
O     0.8791286    5.7406063   -0.4405851 
C     1.0092368    0.8610245   -3.7977378 
C     2.3955902    0.9613182   -3.9881967 
C     3.0494529    0.2232116   -4.9838850 
C     2.3100449   -0.6108048   -5.8324773 
C     0.9148464   -0.6633072   -5.7067147 
C     0.2582481    0.0634357   -4.6975398 
C    -1.2514611   -0.0041883   -4.6342053 
O    -1.8685298   -0.5096683   -3.6737598 
N    -1.8792265    0.4852217   -5.7282459 
C    -3.3518156    0.6177681   -5.8718619 
C    -3.9264544    1.6210382   -4.8583156 
C    -4.0441272   -0.7476202   -5.8917457 
C    -4.2596030   -1.3849867   -7.1286449 
C    -4.8655619   -2.6482144   -7.1970833 
C    -5.2697752   -3.2954395   -6.0203766 
C    -5.0789858   -2.6618363   -4.7821569 
C    -4.4764846   -1.3971052   -4.7188974 
H     1.5929640   -4.9755734   -5.6472282 
H     1.9693759   -4.4492818   -8.0527168 
H     0.1884996   -3.2860321   -9.3737025 
H    -1.9736430   -2.6730280   -8.2632863 
H    -2.3434152   -3.1788163   -5.8737117 
H     0.2643897   -4.9794731   -3.7382105 
H    -1.9872280   -6.0076126   -4.3095374 
H    -2.7649602   -4.4425116   -3.9368449 
H    -1.8840055   -5.3350711   -2.6524070 
H    -1.1407208   -2.3186149   -3.6167528 
H     2.6658109   -3.7933922   -3.7879216 
H     4.4290762   -5.2239374   -2.7301097 
H     4.2362642   -5.8484207   -0.3144390 
H     2.3152194   -5.0165919    1.0406554 
H    -0.6834944   -3.5094383   -0.3927897 
H     1.4077253   -1.4240193    2.8069056 
H     1.4312740   -5.9841443    3.2224143 
H     0.5961472   -5.8147229    4.7859343 
H    -0.9652334   -6.8213485    2.9768035 
H    -1.5631487   -5.2401068    3.5465744 
H    -1.1292636    0.3691353    6.3243281 
H    -3.5222154    0.0042186    5.7043488 
H    -4.0767095   -1.2616166    3.6106156 
H    -2.2600492   -2.0883069    2.1378569 
H     0.7833709   -1.2720327    6.7577598 
H     3.4329854   -0.7730576    5.8872370 
H     2.8300366   -2.4520504    7.6300483 
H     4.0695361   -1.3187570    8.2570540 
H     2.3723896   -1.1383236    8.7725089 
H     1.3065423    1.2702086    8.2598561 
H     1.8683005    3.6158928    8.8944872 
H     3.9655983    4.6773293    8.0377941 
H     5.4739234    3.3902047    6.5111137 
H     4.9081421    1.0396688    5.8859713 
H     3.0404247   -2.4444654    1.3272669 
H     5.2919345   -1.5798162    0.7313855 
H     5.5048592    0.4882718   -0.6703097 
H     3.4804194    1.6935598   -1.4126447 
H    -0.1434131    3.2531752    0.2200861 
H     3.2054330    4.1358095   -0.9428196 
H     5.2382793    4.2935778    0.4611136 
H     5.2448491    3.3258892    2.7780677 
H     3.1486629    2.3120519    3.6882369 
H    -0.6257883    2.0785985    3.9005926 
H     1.6011330    2.9576100    5.1532715 
H    -0.6776012    2.8035991    6.1364413 
H     0.0917064    4.3707709    6.5130967 
H    -1.1712049    4.2910098    5.2489501 
H     0.0074716    4.9576230    2.3830468 
H     0.9076101    7.1286244    1.6230949 
H     2.7315422    8.2672036    2.9146159 
H     3.6760257    7.1586238    4.9533330 
H     2.7895997    4.9473877    5.6900550 
H    -0.7759450    1.4755969   -2.8374749 
H    -1.1492106    5.5964774   -3.4458828 
H    -0.0472358    5.6097956   -4.8300817 
H     0.8577553    6.9046013   -2.7263423 
H     1.9414251    5.6119213   -3.3186371 
H     2.9716470    1.6434860   -3.3591853 
H     4.1353771    0.3065053   -5.0972858 
H     2.8073429   -1.2007894   -6.6091351 
H     0.3269828   -1.2829455   -6.3907198 
H    -1.3045265    1.0573492   -6.3463369 
H    -3.4770564    1.0480067   -6.8794210 
H    -3.8184107    1.2479420   -3.8284961 
H    -4.9981034    1.7869517   -5.0576437 
H    -3.3850677    2.5778448   -4.9385020 
H    -3.9484306   -0.8835421   -8.0531575 
H    -5.0222291   -3.1263070   -8.1697126 
H    -5.7399565   -4.2831961   -6.0684889 
H    -5.4036668   -3.1520180   -3.8575902 
H    -4.3297455   -0.9180697   -3.7489939 
