90
Energy =
C     2.3963698    1.9637753   -0.9545418 
C     1.2161890    2.7455031   -1.1313299 
C     0.4705530    3.1850443   -0.0040212 
H     0.7952609    2.8676057   -2.1379790 
Pd    0.6318299    0.9550649   -0.0260389 
P     1.2517570   -1.3167090   -0.0958312 
P    -1.3960001    0.3167895    0.9999932 
H     2.9649790    2.1237490   -0.0254586 
H     1.0258932    3.3165433    0.9380811 
C     4.7095281    0.3575225   -4.2054404 
C     5.3247328    0.6973567   -2.9919560 
C     4.5571247    1.1898406   -1.9287100 
C     3.1619975    1.3682445   -2.0650608 
C     2.5513753    0.9881481   -3.2836228 
C     3.3178438    0.4943858   -4.3423880 
H     5.3082267   -0.0255030   -5.0381270 
H     6.4075245    0.5847253   -2.8738417 
H     5.0445533    1.4660525   -0.9866951 
H     1.4641125    1.0661131   -3.3946043 
H     2.8281756    0.2026711   -5.2768099 
C    -3.2943360    5.2674092   -0.0928113 
C    -2.3748304    5.4946511    0.9412960 
C    -1.1564957    4.8032980    0.9636762 
C    -0.8228939    3.8919968   -0.0628974 
C    -1.7574514    3.6765818   -1.1024630 
C    -2.9815965    4.3513137   -1.1130234 
H    -4.2517151    5.7983511   -0.1059794 
H    -2.6098758    6.2053395    1.7403265 
H    -0.4498917    4.9720661    1.7834999 
H    -1.5353396    2.9535080   -1.8934506 
H    -3.6991712    4.1593059   -1.9174293 
C    -0.7237335   -3.6320700    0.4578951 
C    -1.9059396   -2.5518600    2.0694843 
C    -0.4002456   -2.1102689    0.2007353 
C    -0.9909802   -1.4292533    1.4699734 
C    -0.8508141   -3.6973810    1.9992081 
C    -2.2018736   -3.6959652    0.0704231 
C    -2.8964588   -3.0278760    1.0145895 
C     1.9240627   -2.0310362   -1.6317269 
C     2.3390679   -1.8715079    1.2650600 
C    -2.8039444    0.2417155   -0.1672498 
C    -1.9879601    1.1814073    2.4912324 
C     1.0622480   -2.3913557   -2.6907240 
C     2.7896668   -3.2072002    1.3430335 
C    -4.1347322    0.1078120    0.2794578 
C    -1.5500863    0.7923655    3.7765330 
C     3.3197208   -2.1489431   -1.8026347 
C     2.6540858   -0.9678679    2.3003735 
C    -2.5330686    0.2532224   -1.5511251 
C    -2.8194489    2.3141841    2.3550624 
C     1.5909677   -2.8898514   -3.8883785 
C     3.5404955   -3.6276687    2.4480261 
C    -5.1758513   -0.0119401   -0.6501909 
C    -1.9560276    1.5149780    4.9059800 
C     3.8396708   -2.6471770   -3.0032809 
C     3.4032319   -1.3953405    3.4065188 
C    -3.5768125    0.1231569   -2.4775952 
C    -3.2213546    3.0297518    3.4906989 
C     2.9790344   -3.0221890   -4.0453606 
C     3.8450751   -2.7244938    3.4802331 
C    -4.8989968   -0.0069915   -2.0269792 
C    -2.7936433    2.6328425    4.7659748 
H    -0.0480855   -4.3437724   -0.0384894 
H    -2.3160987   -2.3042679    3.0596252 
H    -0.9754101   -1.7878794   -0.6883705 
H    -0.1661333   -1.2838696    2.1965320 
H    -1.2534113   -4.6638063    2.3430657 
H     0.0867561   -3.4691354    2.5368099 
H    -2.5808444   -4.0998376   -0.8729984 
H    -3.9642045   -2.7966273    1.0080231 
H    -0.0232043   -2.2920447   -2.5846228 
H     2.5575200   -3.9128732    0.5382244 
H    -4.3557593    0.1012461    1.3519845 
H    -0.8946996   -0.0754092    3.9046375 
H     3.9992687   -1.8555718   -0.9965279 
H     2.3096581    0.0720151    2.2323711 
H    -1.4970378    0.3717570   -1.8951477 
H    -3.1560737    2.6357621    1.3639813 
H     0.9154855   -3.1796311   -4.6999456 
H     3.8895146   -4.6638617    2.5051391 
H    -6.2081335   -0.1116329   -0.2989589 
H    -1.6201058    1.2006530    5.8995196 
H     4.9235157   -2.7345516   -3.1262462 
H     3.6465039   -0.6890510    4.2068849 
H    -3.3592662    0.1328044   -3.5506800 
H    -3.8683306    3.9047647    3.3719131 
H     3.3896175   -3.4134347   -4.9817585 
H     4.4332066   -3.0583911    4.3412832 
H    -5.7167344   -0.1005463   -2.7490673 
H    -3.1112984    3.1932494    5.6512094 
