90
Energy =
C     1.9470955    1.3559705   -2.2101550 
C     1.3345460    2.4684844   -1.5604636 
C     1.6422643    2.7657559   -0.2050308 
H     0.5060715    2.9934077   -2.0537069 
Pd    0.8254470    0.6926625   -0.3951247 
P     0.2831171   -1.5376143   -0.9253982 
P    -0.2695634    0.4122098    1.6770431 
H     2.9498549    1.0660328   -1.8601738 
H     2.6328508    2.4511805    0.1596509 
C     1.0443811    0.1287106   -6.2322432 
C     2.3152094   -0.0990467   -5.6849835 
C     2.5889605    0.2771633   -4.3638090 
C     1.6016664    0.9033979   -3.5701453 
C     0.3144680    1.0951237   -4.1254874 
C     0.0421836    0.7174386   -5.4428320 
H     0.8292132   -0.1628102   -7.2653194 
H     3.0991352   -0.5656986   -6.2905495 
H     3.5877422    0.1090921   -3.9449418 
H    -0.4831121    1.5302905   -3.5131049 
H    -0.9600365    0.8709663   -5.8551307 
C    -0.2096777    5.7971053    2.2242039 
C    -0.9563866    5.1598678    1.2170674 
C    -0.3632349    4.1827134    0.4124865 
C     0.9869675    3.8087788    0.6067623 
C     1.7209062    4.4465113    1.6316224 
C     1.1320921    5.4412307    2.4233492 
H    -0.6750542    6.5655656    2.8499528 
H    -2.0078699    5.4233547    1.0631263 
H    -0.9615155    3.6833903   -0.3561025 
H     2.7641227    4.1603237    1.8041374 
H     1.7212799    5.9318149    3.2049679 
C    -1.7319248   -3.2283418    0.7036356 
C    -1.1832013   -2.3604852    2.7302836 
C    -1.0298306   -1.8621731    0.3465905 
C    -0.4278393   -1.4335970    1.7167016 
C    -0.9524512   -3.6944451    1.9571925 
C    -3.0222193   -2.7402684    1.3640500 
C    -2.6876722   -2.1989879    2.5537600 
C    -0.4382690   -1.9346465   -2.5516392 
C     1.6068090   -2.7603866   -0.6180723 
C    -1.9681083    1.0942685    1.6940163 
C     0.5316812    0.9442803    3.2250096 
C    -1.8024698   -1.6750490   -2.8084326 
C     1.4119478   -4.1323867   -0.8883002 
C    -2.5749283    1.4207046    0.4636824 
C     1.4171909    0.0872073    3.9150632 
C     0.3814389   -2.4250299   -3.5900201 
C     2.8061193   -2.3325122   -0.0131291 
C    -2.7005983    1.2386285    2.8901861 
C     0.3392233    2.2632481    3.6901608 
C    -2.3409171   -1.9331475   -4.0755130 
C     2.4062192   -5.0590603   -0.5503619 
C    -3.9001502    1.8755600    0.4268502 
C     2.0820393    0.5394630    5.0622279 
C    -0.1647607   -2.6792815   -4.8539251 
C     3.7968545   -3.2653856    0.3269084 
C    -4.0215659    1.7032528    2.8495969 
C     1.0080063    2.7062917    4.8388600 
C    -1.5247292   -2.4391557   -5.0985988 
C     3.5962524   -4.6275086    0.0591904 
C    -4.6231043    2.0189927    1.6205493 
C     1.8775535    1.8480711    5.5274863 
H    -1.8378185   -3.9324222   -0.1344835 
H    -0.7947865   -2.2995134    3.7575793 
H    -1.8191744   -1.1437693    0.0532465 
H     0.6339328   -1.7527778    1.7392875 
H    -1.4322855   -4.5559556    2.4490464 
H     0.1126365   -3.9168463    1.7666093 
H    -4.0022128   -2.7248706    0.8780873 
H    -3.3467496   -1.6718586    3.2475484 
H    -2.4522178   -1.2772731   -2.0214749 
H     0.4868126   -4.4719904   -1.3662018 
H    -1.9960177    1.3216935   -0.4641628 
H     1.5905455   -0.9357532    3.5654367 
H     1.4447077   -2.6115277   -3.4101545 
H     2.9575761   -1.2643518    0.1881366 
H    -2.2371138    0.9916272    3.8511401 
H    -0.3348460    2.9431134    3.1586720 
H    -3.4026106   -1.7416076   -4.2626593 
H     2.2527354   -6.1222404   -0.7621416 
H    -4.3649849    2.1270807   -0.5320860 
H     2.7593184   -0.1346082    5.5967436 
H     0.4791524   -3.0596715   -5.6527726 
H     4.7269858   -2.9276021    0.7952498 
H    -4.5854316    1.8174787    3.7812307 
H     0.8489251    3.7307545    5.1903193 
H    -1.9481227   -2.6412062   -6.0877483 
H     4.3704061   -5.3561794    0.3210057 
H    -5.6558688    2.3817402    1.5949290 
H     2.3967872    2.1970432    6.4259400 
