90
Energy =
C    -0.2423983    2.8255339   -1.5397196 
C     1.1637473    2.5877789   -1.5097072 
C     1.7293151    1.5202639   -2.2586309 
H     1.7857911    3.1228906   -0.7803533 
Pd    0.1912671    0.7531981   -0.8304035 
P     1.0162843   -1.3999387   -0.3438409 
P    -1.7027864    0.2720810    0.4901584 
H    -0.7772665    2.5375481   -2.4578774 
H     1.1884503    1.2075872   -3.1657727 
C    -2.2116012    5.8649536    0.7808077 
C    -1.0490743    5.2530678    1.2792255 
C    -0.4164653    4.2431291    0.5496830 
C    -0.9252525    3.8308617   -0.7047845 
C    -2.1156525    4.4291611   -1.1759018 
C    -2.7485769    5.4417974   -0.4435895 
H    -2.7027753    6.6588172    1.3527294 
H    -0.6418432    5.5586051    2.2481302 
H     0.4747593    3.7577833    0.9622869 
H    -2.5313748    4.1120150   -2.1391761 
H    -3.6595711    5.9066705   -0.8347147 
C     5.8447123    0.2630817   -2.1785291 
C     5.0733348    0.1150962   -3.3401548 
C     3.7317244    0.5188370   -3.3498837 
C     3.1434748    1.1028416   -2.2061165 
C     3.9339161    1.2480375   -1.0419973 
C     5.2669939    0.8275719   -1.0271442 
H     6.8906020   -0.0603468   -2.1659941 
H     5.5136341   -0.3252406   -4.2406602 
H     3.1299828    0.3857612   -4.2554742 
H     3.4928513    1.6696622   -0.1333074 
H     5.8595067    0.9358768   -0.1127922 
C    -0.6574733   -3.6106105    1.0089211 
C    -1.8463192   -2.2156348    2.3522589 
C    -0.5251121   -2.2085639    0.2998909 
C    -1.1010994   -1.2419091    1.3747763 
C    -0.6739327   -3.2319207    2.5102866 
C    -2.1401653   -3.9204346    0.8020206 
C    -2.8427875   -3.0706927    1.5796446 
C     1.7043629   -2.4768591   -1.6433520 
C     2.2197390   -1.4218873    1.0356486 
C    -3.2019773   -0.2047978   -0.4388332 
C    -2.2109524    1.4756925    1.7622161 
C     0.8683229   -3.3209018   -2.4070628 
C     2.9208676   -2.5960774    1.3816614 
C    -4.4334579   -0.4342061    0.2112122 
C    -1.4870250    1.5737303    2.9711431 
C     3.0819573   -2.4071090   -1.9437207 
C     2.3797524   -0.2598846    1.8188938 
C    -3.0974607   -0.4176882   -1.8282951 
C    -3.2662367    2.3781360    1.5127299 
C     1.4089749   -4.0941462   -3.4427685 
C     3.7698509   -2.6006954    2.4963436 
C    -5.5404162   -0.8750282   -0.5243904 
C    -1.8382165    2.5364512    3.9259728 
C     3.6136034   -3.1854136   -2.9802790 
C     3.2257257   -0.2711453    2.9367923 
C    -4.2068195   -0.8673892   -2.5590593 
C    -3.6111868    3.3372302    2.4731093 
C     2.7815917   -4.0296775   -3.7299860 
C     3.9223408   -1.4413611    3.2743319 
C    -5.4272800   -1.0959295   -1.9071170 
C    -2.9038095    3.4160983    3.6813124 
H     0.0627852   -4.3718782    0.6750366 
H    -2.2140496   -1.7240093    3.2650039 
H    -1.1859344   -2.2035293   -0.5895577 
H    -0.2514435   -0.8327547    1.9558145 
H    -0.9399054   -4.0875216    3.1517895 
H     0.2650514   -2.7728198    2.8680645 
H    -2.5326838   -4.6199363    0.0579880 
H    -3.9284374   -2.9561999    1.6153171 
H    -0.2040215   -3.3848781   -2.1953246 
H     2.8066533   -3.5018184    0.7766956 
H    -4.5251676   -0.2630727    1.2891982 
H    -0.6494178    0.8982540    3.1758656 
H     3.7399602   -1.7489855   -1.3662775 
H     1.8371196    0.6536075    1.5416256 
H    -2.1418407   -0.2265709   -2.3332305 
H    -3.8195399    2.3318528    0.5699659 
H     0.7561054   -4.7535120   -4.0239934 
H     4.3142130   -3.5133337    2.7599679 
H    -6.4952943   -1.0488250   -0.0175258 
H    -1.2795572    2.5966863    4.8657390 
H     4.6838086   -3.1244321   -3.2022269 
H     3.3467621    0.6349778    3.5394608 
H    -4.1197298   -1.0316330   -3.6379833 
H    -4.4319862    4.0317593    2.2696768 
H     3.2009021   -4.6382615   -4.5377390 
H     4.5882861   -1.4505861    4.1433718 
H    -6.2957392   -1.4413240   -2.4774626 
H    -3.1779696    4.1663859    4.4299424 
