90
Energy =
C     2.3080988    2.0426976   -1.1405858 
C     1.0636700    2.6808606   -1.4066544 
C     0.2599381    3.1648088   -0.3357416 
H     0.6503283    2.6436618   -2.4222354 
Pd    0.6249439    0.9803580   -0.1029038 
P     1.2876677   -1.2850474   -0.0744237 
P    -1.3668670    0.3756438    0.9998120 
H     2.8311233    2.3360676   -0.2166844 
H     0.7918791    3.4694327    0.5789363 
C     4.8748046    0.3677990   -4.1563796 
C     5.4074573    0.8485433   -2.9516110 
C     4.5576241    1.3619328   -1.9637707 
C     3.1604282    1.4201511   -2.1688236 
C     2.6356704    0.8999187   -3.3754776 
C     3.4844427    0.3858559   -4.3589834 
H     5.5373519   -0.0319933   -4.9308160 
H     6.4890386    0.8293432   -2.7818147 
H     4.9797210    1.7492151   -1.0293610 
H     1.5523408    0.8860277   -3.5376650 
H     3.0610090   -0.0145024   -5.2854177 
C    -3.7441285    4.7211730   -0.5974853 
C    -2.9757684    4.9086152    0.5608282 
C    -1.6727679    4.4013516    0.6276867 
C    -1.1109499    3.6942759   -0.4599762 
C    -1.9042492    3.5006920   -1.6148264 
C    -3.2021253    4.0149769   -1.6837107 
H    -4.7626117    5.1187200   -0.6537232 
H    -3.3892474    5.4576343    1.4131388 
H    -1.0759104    4.5583451    1.5326853 
H    -1.5095040    2.9347426   -2.4644629 
H    -3.8001476    3.8539520   -2.5859450 
C    -0.7928403   -3.5774902    0.1416289 
C    -2.0823346   -2.5688544    1.7157281 
C    -0.4048072   -2.0524232    0.0232178 
C    -1.0877423   -1.4392216    1.2802693 
C    -1.0606011   -3.7436921    1.6558193 
C    -2.2314209   -3.5563883   -0.3787195 
C    -2.9875337   -2.9262103    0.5448108 
C     2.1243112   -2.0168387   -1.5188691 
C     2.2060851   -1.8646714    1.3965289 
C    -2.8774065    0.6308053   -0.0039385 
C    -1.6626858    1.0454452    2.6747140 
C     1.3872593   -2.5074110   -2.6181119 
C     2.6742510   -3.1930770    1.4906836 
C    -2.8422791    0.2356346   -1.3607987 
C    -2.7215715    0.5789188    3.4851676 
C     3.5349930   -2.0338366   -1.5674415 
C     2.3664317   -0.9888778    2.4898262 
C    -4.0395663    1.2466218    0.5000239 
C    -0.7634663    1.9968997    3.1956024 
C     2.0533045   -3.0322542   -3.7337391 
C     3.2895830   -3.6344778    2.6689829 
C    -3.9683115    0.3937450   -2.1761253 
C    -2.8803593    1.0723957    4.7868566 
C     4.1926111   -2.5609721   -2.6846644 
C     2.9798055   -1.4375931    3.6684314 
C    -5.1595607    1.4177429   -0.3260909 
C    -0.9245535    2.4870370    4.4991478 
C     3.4551998   -3.0637525   -3.7672648 
C     3.4403906   -2.7594454    3.7577424 
C    -5.1335279    0.9797811   -1.6574142 
C    -1.9848693    2.0276071    5.2938192 
H    -0.0962479   -4.2776187   -0.3422807 
H    -2.5674033   -2.3850125    2.6850495 
H    -0.8829283   -1.6564379   -0.8908786 
H    -0.3324099   -1.3768018    2.0900286 
H    -1.5217147   -4.7162541    1.8922856 
H    -0.1702086   -3.5862236    2.2900332 
H    -2.5348297   -3.8745506   -1.3807379 
H    -4.0386465   -2.6393743    0.4556571 
H     0.2925748   -2.4937605   -2.6062286 
H     2.5602876   -3.8763228    0.6420343 
H    -1.9212650   -0.1772231   -1.7871330 
H    -3.4249166   -0.1669126    3.1004700 
H     4.1181846   -1.6428279   -0.7275168 
H     2.0052036    0.0443595    2.4122274 
H    -4.0698196    1.6134266    1.5295045 
H     0.0685458    2.3460368    2.5744050 
H     1.4738173   -3.4230098   -4.5765779 
H     3.6525213   -4.6650792    2.7392072 
H    -3.9313350    0.0736920   -3.2225535 
H    -3.7046002    0.7081647    5.4087414 
H     5.2864920   -2.5713890   -2.7121170 
H     3.1013922   -0.7536090    4.5145627 
H    -6.0546331    1.9037141    0.0753687 
H    -0.2210655    3.2270770    4.8943846 
H     3.9732764   -3.4764680   -4.6389073 
H     3.9226334   -3.1096161    4.6762211 
H    -6.0126772    1.1117039   -2.2964839 
H    -2.1122765    2.4099170    6.3118031 
