90
Energy =
C     1.1699295    1.7622973   -2.4429913 
C     0.9180361    2.7261328   -1.4226107 
C     1.6955897    2.7277095   -0.2318854 
H     0.0209011    3.3561275   -1.4812533 
Pd    0.6833976    0.7555270   -0.5104627 
P    -0.2200122   -1.2937905   -1.2389552 
P     0.3915278    0.0358399    1.7169939 
H     2.2007244    1.3838852   -2.5242687 
H     2.7213985    2.3338079   -0.3078151 
C    -1.1321113    1.3603558   -6.0538358 
C     0.2088571    0.9522872   -6.0121062 
C     0.9398738    1.0629784   -4.8224566 
C     0.3480539    1.5969239   -3.6553745 
C    -1.0156188    1.9712952   -3.7042709 
C    -1.7435531    1.8602372   -4.8917598 
H    -1.7043666    1.2781380   -6.9834934 
H     0.6905553    0.5526587   -6.9105803 
H     1.9914317    0.7547068   -4.7982993 
H    -1.5126382    2.3408115   -2.8007681 
H    -2.7976755    2.1541485   -4.9108783 
C     1.0414036    5.2001844    3.2294616 
C     2.3373997    4.8061414    2.8665153 
C     2.5370425    3.9947686    1.7418087 
C     1.4464727    3.5847309    0.9431723 
C     0.1455363    3.9941726    1.3178369 
C    -0.0549403    4.7867888    2.4516043 
H     0.8824865    5.8247223    4.1145304 
H     3.1968230    5.1225047    3.4665867 
H     3.5499883    3.6754680    1.4738739 
H    -0.7183772    3.6635193    0.7325864 
H    -1.0710616    5.0797796    2.7352522 
C    -1.6008986   -3.3158945    0.6560212 
C    -0.2637002   -2.9091756    2.4470606 
C    -0.9799982   -1.9006047    0.3431622 
C     0.1234658   -1.7767421    1.4350494 
C    -0.4458227   -4.0398485    1.3893635 
C    -2.5052416   -2.9927552    1.8463816 
C    -1.7063296   -2.7236219    2.8997205 
C    -1.5417970   -1.2839989   -2.4952252 
C     0.9999279   -2.5553676   -1.7476033 
C    -1.1277434    0.6882308    2.5018708 
C     1.7375611    0.2313398    2.9296206 
C    -2.8415636   -0.8580051   -2.1419324 
C     2.3742106   -2.2596638   -1.6428729 
C    -1.3642671    0.5598052    3.8860799 
C     1.8230201    1.4203803    3.6860532 
C    -1.2611729   -1.6101397   -3.8382807 
C     0.5927696   -3.8420253   -2.1632357 
C    -2.1103025    1.2788518    1.6807335 
C     2.7485504   -0.7465714    3.0564480 
C    -3.8492329   -0.7942940   -3.1122435 
C     3.3320758   -3.2391981   -1.9437721 
C    -2.5697252    1.0159961    4.4349357 
C     2.8934014    1.6138971    4.5691966 
C    -2.2744079   -1.5415713   -4.8028835 
C     1.5533137   -4.8154614   -2.4650255 
C    -3.3192630    1.7245539    2.2324750 
C     3.8156816   -0.5434959    3.9411571 
C    -3.5688352   -1.1401217   -4.4431843 
C     2.9215182   -4.5159911   -2.3538922 
C    -3.5482773    1.5947651    3.6104708 
C     3.8891993    0.6350072    4.7004265 
H    -2.0707290   -3.8206952   -0.2005534 
H     0.4863380   -3.0720623    3.2349550 
H    -1.7644291   -1.1417641    0.5268020 
H     1.0890634   -2.0821801    0.9827236 
H    -0.7703329   -4.9914918    1.8403997 
H     0.4482604   -4.2077261    0.7627560 
H    -3.5916633   -2.8780973    1.7887510 
H    -2.0126786   -2.3667978    3.8857881 
H    -3.0745167   -0.5791743   -1.1084399 
H     2.6870763   -1.2571821   -1.3248666 
H    -0.6050502    0.1079853    4.5331371 
H     1.0531500    2.1929523    3.5888378 
H    -0.2528690   -1.9179224   -4.1309556 
H    -0.4726852   -4.0778674   -2.2562369 
H    -1.9153045    1.3924742    0.6061123 
H     2.7081829   -1.6708011    2.4708056 
H    -4.8572807   -0.4756541   -2.8272702 
H     4.3981020   -3.0035007   -1.8625078 
H    -2.7475226    0.9177436    5.5108777 
H     2.9472327    2.5390016    5.1519637 
H    -2.0465423   -1.7964300   -5.8424525 
H     1.2344063   -5.8117141   -2.7882941 
H    -4.0779133    2.1816814    1.5887068 
H     4.5901236   -1.3110331    4.0407528 
H    -4.3581956   -1.0904802   -5.2001648 
H     3.6683155   -5.2804537   -2.5920380 
H    -4.4886298    1.9493601    4.0449681 
H     4.7229006    0.7886914    5.3932100 
