90
Energy =
C     2.3272958    2.0236988   -1.1151122 
C     1.0904981    2.6613266   -1.4151517 
C     0.2611916    3.1520568   -0.3668086 
H     0.7021471    2.6195104   -2.4404123 
Pd    0.6180070    0.9696880   -0.1114695 
P     1.2840543   -1.2927831   -0.0469137 
P    -1.3911637    0.3760958    0.9635651 
H     2.8273010    2.3213957   -0.1799085 
H     0.7711831    3.4631689    0.5580806 
C     4.9684414    0.3315884   -4.0559819 
C     5.4706861    0.8186638   -2.8407555 
C     4.5963777    1.3378112   -1.8776291 
C     3.2048182    1.3953149   -2.1182395 
C     2.7104571    0.8686845   -3.3348896 
C     3.5836771    0.3492193   -4.2938584 
H     5.6501589   -0.0727124   -4.8112086 
H     6.5476215    0.8001220   -2.6435806 
H     4.9948910    1.7298168   -0.9348605 
H     1.6316114    0.8543512   -3.5244353 
H     3.1836495   -0.0556206   -5.2287208 
C    -3.7170437    4.7468740   -0.7554918 
C    -2.9743702    4.9499123    0.4167702 
C    -1.6812008    4.4248916    0.5275779 
C    -1.1036107    3.6863216   -0.5303777 
C    -1.8735004    3.4727556   -1.6976549 
C    -3.1613280    4.0040945   -1.8101011 
H    -4.7271161    5.1592014   -0.8463997 
H    -3.3998267    5.5253953    1.2454226 
H    -1.1035027    4.5944055    1.4428662 
H    -1.4677162    2.8785161   -2.5225334 
H    -3.7410973    3.8280873   -2.7214062 
C    -0.7968244   -3.5864714    0.1463469 
C    -2.1213463   -2.5650825    1.6829666 
C    -0.4089188   -2.0620840    0.0210146 
C    -1.1194806   -1.4380706    1.2576175 
C    -1.0963577   -3.7384258    1.6562109 
C    -2.2242084   -3.5739712   -0.4041993 
C    -3.0009361   -2.9363898    0.4969249 
C     2.1540878   -2.0356177   -1.4658088 
C     2.1712021   -1.8560787    1.4492962 
C    -2.8991576    0.6390309   -0.0414491 
C    -1.6958407    1.0554759    2.6333734 
C     3.5655095   -2.0522544   -1.4816824 
C     2.6378813   -3.1831056    1.5673553 
C    -2.8961111    0.1839002   -1.3798694 
C    -2.7696161    0.6025716    3.4318185 
C     1.4428471   -2.5341229   -2.5784209 
C     2.3085491   -0.9684833    2.5361413 
C    -4.0272934    1.3282679    0.4449434 
C    -0.7939758    2.0002695    3.1614594 
C     4.2489631   -2.5863994   -2.5799242 
C     3.2291854   -3.6113076    2.7626990 
C    -4.0218953    0.3593452   -2.1919397 
C    -2.9381993    1.1003927    4.7305331 
C     2.1346612   -3.0662234   -3.6747305 
C     2.8980303   -1.4039282    3.7317773 
C    -5.1467371    1.5149787   -0.3784418 
C    -0.9650682    2.4949321    4.4621271 
C     3.5369757   -3.0970948   -3.6757159 
C     3.3575060   -2.7243463    3.8446950 
C    -5.1538907    1.0205477   -1.6898820 
C    -2.0384577    2.0472492    5.2458327 
H    -0.0889383   -4.2899765   -0.3158062 
H    -2.6272829   -2.3723810    2.6398120 
H    -0.8661123   -1.6755241   -0.9076529 
H    -0.3804510   -1.3694591    2.0818551 
H    -1.5605740   -4.7096522    1.8920751 
H    -0.2199631   -3.5731602    2.3077071 
H    -2.5059275   -3.9037029   -1.4088286 
H    -4.0508639   -2.6539292    0.3833852 
H     4.1290454   -1.6552968   -0.6311938 
H     2.5417899   -3.8754933    0.7239237 
H    -2.0025092   -0.2943396   -1.7950100 
H    -3.4778563   -0.1342142    3.0385074 
H     0.3481670   -2.5207631   -2.5921284 
H     1.9481500    0.0634588    2.4400564 
H    -4.0306121    1.7388628    1.4582127 
H     0.0473590    2.3413021    2.5483055 
H     5.3431921   -2.5958568   -2.5822840 
H     3.5909998   -4.6408609    2.8515368 
H    -4.0108642   -0.0085108   -3.2231315 
H    -3.7737711    0.7468167    5.3433808 
H     1.5749407   -3.4627919   -4.5281462 
H     3.0018622   -0.7107288    4.5727581 
H    -6.0144057    2.0583785    0.0092145 
H    -0.2593942    3.2295773    4.8634772 
H     4.0752119   -3.5155548   -4.5322743 
H     3.8212920   -3.0641526    4.7764769 
H    -6.0323927    1.1652683   -2.3270567 
H    -2.1737661    2.4333281    6.2613775 
