90
Energy =
C     1.9091274    1.3227029   -2.2618669 
C     1.3207182    2.4450506   -1.6067532 
C     1.6596323    2.7479499   -0.2600648 
H     0.4870729    2.9747206   -2.0860598 
Pd    0.8197707    0.6817247   -0.4194070 
P     0.2468302   -1.5477605   -0.9206965 
P    -0.2323007    0.4261646    1.6783518 
H     2.9163503    1.0256205   -1.9313148 
H     2.6546551    2.4262079    0.0856958 
C     0.9097636    0.0835201   -6.2573840 
C     2.1910872   -0.1497500   -5.7375539 
C     2.4965115    0.2301110   -4.4243571 
C     1.5309389    0.8657888   -3.6116935 
C     0.2328249    1.0630266   -4.1390488 
C    -0.0711227    0.6814393   -5.4483285 
H     0.6699783   -0.2107908   -7.2842290 
H     2.9584565   -0.6237872   -6.3584094 
H     3.5033672    0.0576575   -4.0271573 
H    -0.5481401    1.5054176   -3.5106559 
H    -1.0814327    0.8390810   -5.8387738 
C    -0.1115394    5.8118975    2.1882729 
C    -0.8858015    5.1748707    1.2020351 
C    -0.3191506    4.1871262    0.3913265 
C     1.0316364    3.8024189    0.5584687 
C     1.7936218    4.4403638    1.5624935 
C     1.2311427    5.4454365    2.3602513 
H    -0.5562634    6.5885031    2.8189748 
H    -1.9380004    5.4468711    1.0693158 
H    -0.9385374    3.6878982   -0.3604129 
H     2.8377979    4.1459516    1.7139720 
H     1.8416809    5.9359152    3.1253870 
C    -1.7586823   -3.2016295    0.7574335 
C    -1.1598372   -2.3275950    2.7672203 
C    -1.0461876   -1.8471371    0.3776061 
C    -0.4125866   -1.4171831    1.7329968 
C    -0.9613805   -3.6695013    1.9990320 
C    -3.0295790   -2.6924101    1.4391677 
C    -2.6651889   -2.1475877    2.6184770 
C    -0.5054466   -1.9540820   -2.5303672 
C     1.5648573   -2.7795341   -0.6248033 
C    -1.9215617    1.1287394    1.7321355 
C     0.6141888    0.9569660    3.2025141 
C    -1.8742817   -1.6973040   -2.7638432 
C     1.3554026   -4.1515016   -0.8838620 
C    -2.6223541    1.2912489    2.9448766 
C     1.5101402    0.0943336    3.8718721 
C     0.2960890   -2.4491869   -3.5807100 
C     2.7761054   -2.3575137   -0.0397401 
C    -2.5554034    1.4513760    0.5144755 
C     0.4481182    2.2800930    3.6660499 
C    -2.4348766   -1.9620076   -4.0199708 
C     2.3472460   -5.0839466   -0.5546341 
C    -3.9387885    1.7701541    2.9331336 
C     2.2118452    0.5455616    4.9972680 
C    -0.2721683   -2.7100390   -4.8334330 
C     3.7642428   -3.2961174    0.2919086 
C    -3.8763020    1.9200141    0.5066632 
C     1.1535369    2.7220026    4.7930977 
C    -1.6364690   -2.4719217   -5.0550560 
C     3.5491855   -4.6582032    0.0353154 
C    -4.5675571    2.0816689    1.7167030 
C     2.0338405    1.8585308    5.4611616 
H    -1.8896039   -3.9099034   -0.0736247 
H    -0.7505500   -2.2647986    3.7862750 
H    -1.8315332   -1.1204524    0.0940802 
H     0.6452733   -1.7496200    1.7374477 
H    -1.4427670   -4.5213695    2.5059421 
H     0.0968864   -3.9071151    1.7896387 
H    -4.0185758   -2.6673966    0.9722001 
H    -3.3039459   -1.6070472    3.3208894 
H    -2.5103835   -1.2967858   -1.9672532 
H     0.4208116   -4.4865602   -1.3463667 
H    -2.1378832    1.0469464    3.8961118 
H     1.6634405   -0.9319797    3.5226506 
H     1.3625570   -2.6340688   -3.4187484 
H     2.9388885   -1.2893464    0.1526216 
H    -2.0009682    1.3385010   -0.4265917 
H    -0.2335278    2.9643006    3.1500187 
H    -3.5000223   -1.7727888   -4.1890230 
H     2.1826096   -6.1470953   -0.7580217 
H    -4.4777792    1.8988009    3.8775198 
H     2.8971492   -0.1326926    5.5160333 
H     0.3577983   -3.0937340   -5.6417468 
H     4.7035733   -2.9628904    0.7449150 
H    -4.3624311    2.1679350   -0.4426047 
H     1.0147669    3.7497723    5.1435021 
H    -2.0771872   -2.6788709   -6.0355872 
H     4.3212788   -5.3913888    0.2905395 
H    -5.5967662    2.4552556    1.7135907 
H     2.5820671    2.2067574    6.3425244 
