90
Energy =
C    -0.4049200    2.5219383   -1.8856916 
C     1.0044092    2.4988099   -1.7040339 
C     1.7720561    1.4063334   -2.2041878 
H     1.4717700    3.2285956   -1.0307778 
Pd    0.2201895    0.6620133   -0.7976421 
P     1.1074352   -1.4540309   -0.2731999 
P    -1.6534066    0.1910881    0.5498056 
H    -0.8000524    1.9694670   -2.7527028 
H     1.3786887    0.8825133   -3.0890417 
C    -3.2087550    5.3597975   -0.2759978 
C    -1.9775944    5.1576862    0.3723515 
C    -1.0496808    4.2496621   -0.1446155 
C    -1.3364269    3.5115031   -1.3167121 
C    -2.5812387    3.7193548   -1.9534590 
C    -3.5035723    4.6422077   -1.4442511 
H    -3.9318793    6.0748418    0.1294483 
H    -1.7436651    5.7089872    1.2888200 
H    -0.1007211    4.0973148    0.3786786 
H    -2.8239261    3.1490751   -2.8566618 
H    -4.4584187    4.7947601   -1.9579468 
C     5.9377993    0.6263603   -1.4531883 
C     5.2668767   -0.0069945   -2.5086788 
C     3.9129279    0.2619378   -2.7450485 
C     3.2026956    1.1743368   -1.9326538 
C     3.8927617    1.8048293   -0.8700533 
C     5.2434858    1.5342579   -0.6347173 
H     6.9961650    0.4172430   -1.2669753 
H     5.7971348   -0.7172484   -3.1513751 
H     3.3923591   -0.2450160   -3.5651814 
H     3.3663217    2.5068036   -0.2139590 
H     5.7609323    2.0319084    0.1921132 
C    -0.6318400   -3.7876224    0.8090647 
C    -1.9457298   -2.4841308    2.1293700 
C    -0.4645431   -2.3486043    0.1829053 
C    -1.1516199   -1.4531754    1.2566251 
C    -0.7725651   -3.4919649    2.3235508 
C    -2.0903463   -4.1060063    0.4747937 
C    -2.8662255   -3.3120577    1.2429998 
C     1.8645229   -2.3530529   -1.6714538 
C     2.2418669   -1.5609804    1.1509963 
C    -3.2895597    0.1658045   -0.2577399 
C    -1.8183622    1.2414829    2.0394761 
C     1.0974789   -2.4994998   -2.8495756 
C     2.6831282   -2.8021419    1.6615727 
C    -3.7197075   -0.9495446   -1.0096598 
C    -2.9798150    1.2241892    2.8399308 
C     3.2004540   -2.7993310   -1.6563491 
C     2.6555313   -0.3661822    1.7729963 
C    -4.0774296    1.3377632   -0.2467064 
C    -0.7133009    2.0211715    2.4339104 
C     1.6502433   -3.1113702   -3.9804728 
C     3.5228655   -2.8383759    2.7818722 
C    -4.9312213   -0.9010743   -1.7108027 
C    -3.0322747    1.9914661    4.0112447 
C     3.7483293   -3.4121531   -2.7934358 
C     3.4962883   -0.4081084    2.8939445 
C    -5.2872763    1.3777520   -0.9533713 
C    -0.7681882    2.7827211    3.6090593 
C     2.9776179   -3.5722051   -3.9529650 
C     3.9285500   -1.6429899    3.3985655 
C    -5.7188021    0.2609372   -1.6831080 
C    -1.9298298    2.7719134    4.3952743 
H     0.1161707   -4.5280249    0.4898982 
H    -2.3868051   -2.0447728    3.0359208 
H    -1.0203644   -2.3198670   -0.7730392 
H    -0.3493457   -1.0735118    1.9244533 
H    -1.0738037   -4.3862762    2.8924675 
H     0.1236999   -3.0407566    2.7839662 
H    -2.4100667   -4.7727340   -0.3318416 
H    -3.9539693   -3.2101573    1.2045234 
H     0.0680974   -2.1223775   -2.8879461 
H     2.3750397   -3.7373000    1.1826596 
H    -3.1204273   -1.8638649   -1.0353490 
H    -3.8431522    0.6184875    2.5442419 
H     3.8208596   -2.6550512   -0.7671563 
H     2.3181063    0.5929700    1.3655131 
H    -3.7486578    2.2196065    0.3116374 
H     0.1884415    2.0255692    1.8094814 
H     1.0469958   -3.2257884   -4.8869676 
H     3.8622982   -3.8018396    3.1757642 
H    -5.2623512   -1.7761254   -2.2796225 
H    -3.9367747    1.9787138    4.6281201 
H     4.7874549   -3.7563387   -2.7718618 
H     3.8159448    0.5238375    3.3711622 
H    -5.8905588    2.2911840   -0.9330722 
H     0.0931792    3.3889829    3.9080504 
H     3.4098938   -4.0489692   -4.8386186 
H     4.5853917   -1.6769903    4.2738953 
H    -6.6658546    0.2947827   -2.2313615 
H    -1.9774332    3.3716455    5.3101042 
