90
Energy =
C    -0.3003111    2.9397536   -1.2997632 
C     1.1056068    2.7014939   -1.3414040 
C     1.6422396    1.6987946   -2.1936094 
H     1.7549178    3.1774507   -0.5949537 
Pd    0.1564258    0.8171498   -0.7755011 
P     1.0064785   -1.3617784   -0.4832691 
P    -1.6902184    0.2218403    0.5657730 
H    -0.8700788    2.7288801   -2.2178912 
H     1.0682575    1.4578126   -3.1021239 
C    -2.1581153    5.7873398    1.3345659 
C    -2.7379979    5.4774365    0.0959684 
C    -2.1420809    4.5246638   -0.7403442 
C    -0.9459475    3.8752789   -0.3604688 
C    -0.3935211    4.1720477    0.9080254 
C    -0.9895619    5.1218043    1.7415557 
H    -2.6206660    6.5341753    1.9878973 
H    -3.6541131    5.9844277   -0.2245548 
H    -2.5914518    4.2964658   -1.7136060 
H     0.5030648    3.6426136    1.2488104 
H    -0.5488189    5.3376783    2.7199037 
C     5.7581127    0.4522497   -2.3622296 
C     4.9465128    0.3982623   -3.5044977 
C     3.6052015    0.7969594   -3.4339462 
C     3.0574115    1.2827221   -2.2259647 
C     3.8882394    1.3342376   -1.0823022 
C     5.2210559    0.9180066   -1.1486821 
H     6.8038115    0.1319335   -2.4129372 
H     5.3550713    0.0351517   -4.4531043 
H     2.9720409    0.7371877   -4.3258198 
H     3.4792747    1.6780230   -0.1270060 
H     5.8450888    0.9520710   -0.2496390 
C    -0.6018015   -3.6773456    0.7688001 
C    -1.7486824   -2.3923961    2.2511763 
C    -0.5046091   -2.2272028    0.1578021 
C    -1.0464772   -1.3446311    1.3194346 
C    -0.5647614   -3.4067689    2.2928916 
C    -2.0892604   -3.9845835    0.5944741 
C    -2.7677986   -3.1987402    1.4561207 
C     1.6476998   -2.3352611   -1.8843766 
C     2.2621518   -1.4755177    0.8442937 
C    -3.2113136   -0.2054892   -0.3520841 
C    -2.1758753    1.3245165    1.9340603 
C     0.7858928   -3.1273745   -2.6746313 
C     2.9879942   -2.6635240    1.0717783 
C    -4.4223485   -0.4893177    0.3145458 
C    -1.4364999    1.3313997    3.1374219 
C     3.0116390   -2.2322859   -2.2336035 
C     2.4396859   -0.3755417    1.7091695 
C    -3.1444889   -0.3221618   -1.7552431 
C    -3.2335492    2.2431562    1.7665088 
C     1.2881100   -3.8171558   -3.7858785 
C     3.8790234   -2.7428790    2.1503007 
C    -5.5463736   -0.8892563   -0.4185673 
C    -1.7742278    2.2204459    4.1658391 
C     3.5047920   -2.9268881   -3.3459076 
C     3.3277046   -0.4618295    2.7905571 
C    -4.2707603   -0.7310430   -2.4841007 
C    -3.5649880    3.1278508    2.8000412 
C     2.6474858   -3.7199362   -4.1225602 
C     4.0490734   -1.6451642    3.0097771 
C    -5.4706763   -1.0145741   -1.8157466 
C    -2.8416189    3.1162360    4.0013355 
H     0.1103212   -4.4064000    0.3550879 
H    -2.0854817   -1.9707240    3.2097211 
H    -1.1981535   -2.1648287   -0.7040047 
H    -0.1786907   -0.9695900    1.8968568 
H    -0.8012319   -4.3081403    2.8810211 
H     0.3840099   -2.9658068    2.6476417 
H    -2.5047802   -4.6323369   -0.1831509 
H    -3.8520552   -3.0962055    1.5393402 
H    -0.2766874   -3.2156125   -2.4256912 
H     2.8600674   -3.5215547    0.4033063 
H    -4.4849819   -0.3919146    1.4037494 
H    -0.5977370    0.6417953    3.2806391 
H     3.6890943   -1.6136435   -1.6354722 
H     1.8774180    0.5492887    1.5238643 
H    -2.2050391   -0.0879025   -2.2722946 
H    -3.7997465    2.2664789    0.8305173 
H     0.6156258   -4.4369592   -4.3879075 
H     4.4425309   -3.6658312    2.3217039 
H    -6.4853924   -1.1055442    0.1014065 
H    -1.2035469    2.2101041    5.1002399 
H     4.5647587   -2.8405942   -3.6054192 
H     3.4621244    0.3965686    3.4568968 
H    -4.2130397   -0.8202899   -3.5737553 
H    -4.3876707    3.8356841    2.6599036 
H     3.0367884   -4.2631058   -4.9897668 
H     4.7479329   -1.7125051    3.8499298 
H    -6.3524216   -1.3280610   -2.3841476 
H    -3.1050860    3.8087596    4.8072736 
