90
Energy =
C     2.4197355    1.9572149   -0.8981346 
C     1.2473183    2.7454713   -1.0955219 
C     0.4805638    3.1829054    0.0185326 
H     0.8472221    2.8742458   -2.1097799 
Pd    0.6325282    0.9528555   -0.0102982 
P     1.2451296   -1.3208829   -0.0832091 
P    -1.4127034    0.3169051    0.9823110 
H     2.9687496    2.1088361    0.0440506 
H     1.0172065    3.3093553    0.9720625 
C     4.7994022    0.3515021   -4.1009137 
C     3.4143245    0.5107596   -4.2753490 
C     2.6253656    1.0040497   -3.2330086 
C     3.2068845    1.3625151   -1.9938454 
C     4.5949784    1.1622391   -1.8205664 
C     5.3849671    0.6690101   -2.8669063 
H     5.4156685   -0.0314924   -4.9206983 
H     2.9471379    0.2371389   -5.2266004 
H     1.5430313    1.0992080   -3.3740678 
H     5.0596889    1.4216750   -0.8624201 
H     6.4621590    0.5386446   -2.7195096 
C    -3.2747822    5.2784419   -0.1409385 
C    -2.9467045    4.3600312   -1.1542310 
C    -1.7252041    3.6812258   -1.1206113 
C    -0.8089838    3.8947896   -0.0644854 
C    -1.1580796    4.8083466    0.9548441 
C    -2.3734683    5.5037924    0.9094821 
H    -4.2298982    5.8126966   -0.1721476 
H    -3.6502596    4.1693928   -1.9712504 
H    -1.4912814    2.9558271   -1.9060903 
H    -0.4660234    4.9755278    1.7872938 
H    -2.6207088    6.2161046    1.7033760 
C    -0.7392139   -3.6331213    0.4515066 
C    -1.9368854   -2.5503503    2.0497934 
C    -0.4110506   -2.1119662    0.1966381 
C    -1.0145727   -1.4291123    1.4589743 
C    -0.8824496   -3.6971696    1.9914229 
C    -2.2132961   -3.6954263    0.0485793 
C    -2.9169360   -3.0259345    0.9850027 
C     1.9253205   -2.0263941   -1.6199106 
C     2.3205478   -1.8856016    1.2827767 
C    -2.8016127    0.2429617   -0.2077067 
C    -2.0291753    1.1825786    2.4628702 
C     3.3201757   -2.1695433   -1.7763905 
C     2.7615207   -3.2245099    1.3614302 
C    -4.1395247    0.1103078    0.2175165 
C    -1.6189015    0.7904735    3.7562549 
C     1.0693672   -2.3516413   -2.6950624 
C     2.6357111   -0.9857115    2.3212831 
C    -2.5086602    0.2559799   -1.5870774 
C    -2.8523907    2.3194393    2.3109858 
C     3.8444381   -2.6584704   -2.9791203 
C     3.5034229   -3.6516149    2.4698871 
C    -5.1658123   -0.0071959   -0.7287880 
C    -2.0434626    1.5145387    4.8779322 
C     1.6023302   -2.8403740   -3.8947365 
C     3.3754077   -1.4199425    3.4311488 
C    -3.5375995    0.1279717   -2.5302599 
C    -3.2731180    3.0363419    3.4388890 
C     2.9893103   -2.9981849   -4.0375811 
C     3.8078939   -2.7521278    3.5053442 
C    -4.8669736   -0.0012174   -2.1009728 
C    -2.8726335    2.6365669    4.7221218 
H    -0.0595862   -4.3461221   -0.0374739 
H    -2.3572188   -2.3016933    3.0353843 
H    -0.9763216   -1.7900270   -0.6988555 
H    -0.1972293   -1.2833728    2.1940226 
H    -1.2898232   -4.6628426    2.3317678 
H     0.0496877   -3.4696746    2.5386929 
H    -2.5827809   -4.0993969   -0.8985452 
H    -3.9842930   -2.7934253    0.9672783 
H     3.9958150   -1.9028185   -0.9579120 
H     2.5289946   -3.9275849    0.5544733 
H    -4.3776452    0.1032304    1.2863792 
H    -0.9707275   -0.0807762    3.8966031 
H    -0.0151217   -2.2321109   -2.6000544 
H     2.2988050    0.0565689    2.2528115 
H    -1.4671851    0.3742581   -1.9143868 
H    -3.1679180    2.6430083    1.3136179 
H     4.9277253   -2.7659605   -3.0906632 
H     3.8453961   -4.6901416    2.5272285 
H    -6.2037019   -0.1059534   -0.3942209 
H    -1.7287356    1.1980837    5.8777153 
H     0.9310668   -3.1023051   -4.7191740 
H     3.6185759   -0.7166063    4.2341395 
H    -3.3029586    0.1387784   -3.5997251 
H    -3.9132035    3.9146714    3.3079316 
H     3.4033319   -3.3812659   -4.9758410 
H     4.3882718   -3.0914304    4.3695335 
H    -5.6732000   -0.0928765   -2.8361365 
H    -3.2051615    3.1979025    5.6012885 
