90
Energy =
C     2.4456986    2.0092163   -0.5511724 
C     1.3175627    2.8085921   -0.8690287 
C     0.3591757    3.1433708    0.1344967 
H     1.0741359    3.0107613   -1.9203232 
Pd    0.5305285    0.9395293   -0.0366027 
P     1.1573732   -1.3372158   -0.1583253 
P    -1.4992252    0.2778820    0.9451141 
H     2.7662744    1.9864626    0.5021475 
H     0.7292639    3.2495548    1.1658402 
C     5.2921319    0.3374709   -3.3086835 
C     5.2979761   -0.0322695   -1.9544736 
C     4.3887832    0.5478158   -1.0642229 
C     3.4385019    1.4945985   -1.5130405 
C     3.4576023    1.8748433   -2.8746796 
C     4.3772621    1.3018305   -3.7611191 
H     6.0048758   -0.1138676   -4.0063192 
H     6.0150553   -0.7748860   -1.5897449 
H     4.3937149    0.2505667   -0.0098991 
H     2.7572025    2.6300792   -3.2461815 
H     4.3844877    1.6140197   -4.8107153 
C    -3.3782467    5.1449446   -0.6176748 
C    -2.9029504    4.1871595   -1.5312077 
C    -1.6854867    3.5395542   -1.3006983 
C    -0.9212750    3.8269544   -0.1455820 
C    -1.4177757    4.7785372    0.7710962 
C    -2.6292632    5.4408419    0.5301082 
H    -4.3302453    5.6536648   -0.8009372 
H    -3.4893993    3.9399659   -2.4221540 
H    -1.3362389    2.7754928   -2.0041637 
H    -0.8464596    5.0010209    1.6786939 
H    -2.9933113    6.1831149    1.2480068 
C    -0.6014039   -3.6716817    0.9331953 
C    -1.7786503   -2.4352856    2.4293220 
C    -0.3927223   -2.1883985    0.4292771 
C    -0.9661728   -1.3666746    1.6209965 
C    -0.6524352   -3.5116437    2.4705890 
C    -2.0873989   -3.8823125    0.6398279 
C    -2.7817184   -3.1229869    1.5123428 
C     1.5053462   -2.0530136   -1.8033977 
C     2.5399962   -1.7619147    0.9691275 
C    -2.8759483   -0.0132581   -0.2200211 
C    -2.1683973    1.2617492    2.3257051 
C     1.5426790   -3.4465011   -2.0333407 
C     2.6608673   -1.0161036    2.1636753 
C    -4.1948301   -0.2344713    0.2290940 
C    -1.7035056    1.0647098    3.6451097 
C     1.7096311   -1.1699785   -2.8816788 
C     3.4958358   -2.7564576    0.6801806 
C    -2.5898664   -0.0685305   -1.5997194 
C    -3.0915517    2.2967329    2.0635025 
C     1.7981737   -3.9391511   -3.3198898 
C     3.6967450   -1.2845789    3.0676797 
C    -5.2101565   -0.5094761   -0.6955110 
C    -2.1738636    1.8759518    4.6855379 
C     1.9711112   -1.6672940   -4.1653827 
C     4.5376526   -3.0136527    1.5831556 
C    -3.6085036   -0.3524036   -2.5199802 
C    -3.5596852    3.1007824    3.1115470 
C     2.0176395   -3.0512794   -4.3853446 
C     4.6367956   -2.2861422    2.7786221 
C    -4.9183618   -0.5708909   -2.0680998 
C    -3.1057058    2.8925459    4.4216671 
H     0.0945870   -4.4175471    0.5247965 
H    -2.1590787   -2.0657434    3.3928293 
H    -1.0325475   -2.0455746   -0.4643059 
H    -0.1206359   -1.0750096    2.2743669 
H    -0.9711321   -4.4382262    2.9747552 
H     0.2919422   -3.1489632    2.9152471 
H    -2.4791804   -4.4422746   -0.2143088 
H    -3.8617388   -2.9589924    1.5303507 
H     1.3714290   -4.1504799   -1.2132543 
H     1.9556650   -0.2008829    2.3708291 
H    -4.4263598   -0.1851556    1.2983228 
H    -0.9782375    0.2756245    3.8693171 
H     1.6718059   -0.0901729   -2.7099166 
H     3.4434327   -3.3172780   -0.2574629 
H    -1.5642732    0.1118830   -1.9459985 
H    -3.4435909    2.4766099    1.0424016 
H     1.8249815   -5.0202732   -3.4910819 
H     3.7796780   -0.7009704    3.9903149 
H    -6.2334733   -0.6777348   -0.3442737 
H    -1.8160734    1.7094639    5.7068071 
H     2.1411103   -0.9691525   -4.9911153 
H     5.2786615   -3.7844557    1.3471990 
H    -3.3801003   -0.3962054   -3.5897955 
H    -4.2773949    3.8986466    2.8958785 
H     2.2196376   -3.4414173   -5.3882655 
H     5.4534621   -2.4898743    3.4786916 
H    -5.7162995   -0.7852785   -2.7865882 
H    -3.4756014    3.5214380    5.2379162 
