90
Energy =
C     2.8775890    0.3040306   -1.3756910 
C     2.0986883   -0.1830034   -2.4573465 
C     1.0068406    0.5821291   -2.9662137 
H     2.2084298   -1.2269351   -2.7787779 
Pd    0.7044488    0.1816907   -0.8052826 
P     0.8117100   -0.0521112    1.5475925 
P    -1.6177313    0.5133631   -0.6172371 
H     2.8847235    1.3929739   -1.2107642 
H     1.0916284    1.6780377   -2.9055090 
C     5.8991894   -1.8362469    0.8134164 
C     5.4525356   -0.5771563    1.2445099 
C     4.4943658    0.1201082    0.5018769 
C     3.9457734   -0.4358558   -0.6774280 
C     4.4193809   -1.6950582   -1.1121230 
C     5.3874629   -2.3855149   -0.3732489 
H     6.6515917   -2.3818912    1.3918302 
H     5.8536332   -0.1353926    2.1624778 
H     4.1446013    1.0992484    0.8468177 
H     4.0385687   -2.1376804   -2.0384069 
H     5.7494568   -3.3560400   -0.7284428 
C    -1.8081253   -0.8087706   -5.9124112 
C    -1.3096727   -1.7019278   -4.9470717 
C    -0.3890651   -1.2622683   -3.9912577 
C     0.0465445    0.0834847   -3.9725909 
C    -0.4751043    0.9733180   -4.9363025 
C    -1.3842276    0.5275752   -5.9053684 
H    -2.5262510   -1.1556118   -6.6625197 
H    -1.6465846   -2.7437220   -4.9378031 
H    -0.0259991   -1.9601563   -3.2284583 
H    -0.1614423    2.0227006   -4.9257516 
H    -1.7697983    1.2308086   -6.6507744 
C    -2.9313129    1.4919579    2.0154309 
C    -1.6939547    0.1732664    3.3883394 
C    -1.6741400    1.1134506    1.1414773 
C    -0.9906550    0.0060481    1.9968249 
C    -3.1564633    0.2120301    2.8529478 
C    -2.2934042    2.3927696    3.0746810 
C    -1.5327804    1.6092158    3.8679393 
C    -2.4509389    1.7616016   -1.6512132 
C    -2.6390541   -0.9990966   -0.7110751 
C     1.4329465   -1.6203226    2.2477326 
C     1.6843608    1.3397261    2.3633823 
C    -2.4882493    3.1195423   -1.2644221 
C    -4.0487083   -0.9341312   -0.6919237 
C     1.2382027   -1.9711960    3.6025399 
C     1.6092425    2.6083071    1.7457121 
C    -2.9999561    1.3781010   -2.8936998 
C    -1.9975307   -2.2545879   -0.7295227 
C     2.0959954   -2.5187321    1.3892816 
C     2.4534828    1.1907545    3.5349501 
C    -3.0824354    4.0725422   -2.1018189 
C    -4.8014416   -2.1155558   -0.6898051 
C     1.7151598   -3.1971349    4.0850508 
C     2.2563137    3.7139873    2.3114892 
C    -3.5954848    2.3379025   -3.7228832 
C    -2.7561662   -3.4335949   -0.7234800 
C     2.5767256   -3.7409007    1.8780865 
C     3.1095330    2.2984984    4.0912300 
C    -3.6395683    3.6834424   -3.3303916 
C    -4.1571430   -3.3637896   -0.7047517 
C     2.3879917   -4.0804369    3.2253939 
C     3.0064111    3.5608801    3.4879955 
H    -3.7842228    1.9035323    1.4560536 
H    -1.4555360   -0.6235340    4.1070771 
H    -1.0166340    2.0022361    1.0969840 
H    -1.3096849   -0.9846007    1.6141759 
H    -3.8956895    0.3633249    3.6561530 
H    -3.4295900   -0.6745154    2.2533284 
H    -2.3485988    3.4855600    3.0768424 
H    -0.8523693    1.9322901    4.6602464 
H    -2.0635464    3.4388810   -0.3070802 
H    -4.5536824    0.0378512   -0.6846747 
H     0.7162651   -1.2910629    4.2831910 
H     1.0618719    2.7233862    0.8017176 
H    -2.9628836    0.3312755   -3.2134445 
H    -0.9012417   -2.2993731   -0.7456712 
H     2.2421779   -2.2528497    0.3379891 
H     2.5613293    0.2089320    4.0045532 
H    -3.1164374    5.1217112   -1.7905320 
H    -5.8949794   -2.0628300   -0.6761255 
H     1.5608699   -3.4637707    5.1357393 
H     2.1877517    4.6927305    1.8256104 
H    -4.0196467    2.0285430   -4.6833940 
H    -2.2531121   -4.4058706   -0.7371856 
H     3.1020358   -4.4243044    1.2034020 
H     3.7093908    2.1712032    4.9983700 
H    -4.1073889    4.4301609   -3.9801463 
H    -4.7507160   -4.2838583   -0.7043612 
H     2.7621105   -5.0355417    3.6083411 
H     3.5220176    4.4218229    3.9256022 
