90
Energy =
C     0.4351630   -1.4818271   -2.8300434 
C     1.7650630   -1.2163145   -2.4143145 
C     2.2909064   -1.8186893   -1.2316965 
H     2.3293617   -0.4024381   -2.8882097 
Pd    0.4760181   -0.6467408   -0.7349928 
P     0.7877803   -0.3516057    1.5760133 
P    -1.6456016    0.3762764   -0.5248597 
H    -0.0290407   -2.4135204   -2.4704864 
H     1.9119676   -2.8177139   -0.9668691 
C    -1.7124239    0.4664767   -6.0070106 
C    -2.3687581   -0.4025579   -5.1210951 
C    -1.6491798   -1.0554198   -4.1153558 
C    -0.2602898   -0.8371789   -3.9598039 
C     0.3929944    0.0230336   -4.8722679 
C    -0.3279196    0.6662940   -5.8854660 
H    -2.2739640    0.9756682   -6.7968238 
H    -3.4461644   -0.5733994   -5.2147231 
H    -2.1684931   -1.7253994   -3.4216018 
H     1.4734428    0.1854930   -4.8000261 
H     0.1948879    1.3228579   -6.5888875 
C     6.1024443   -0.8478641    0.5201631 
C     5.6415692   -2.1719154    0.5041825 
C     4.3954806   -2.4776283   -0.0599052 
C     3.6002366   -1.4673944   -0.6422950 
C     4.0778186   -0.1361027   -0.6213699 
C     5.3122910    0.1709667   -0.0414620 
H     7.0705180   -0.6065230    0.9710322 
H     6.2488750   -2.9707390    0.9422563 
H     4.0329817   -3.5111621   -0.0525317 
H     3.4571304    0.6678883   -1.0324931 
H     5.6585159    1.2094769   -0.0192576 
C    -2.8705971    1.2743011    2.1987463 
C    -1.6319397   -0.1034787    3.5100326 
C    -1.6545455    0.8778308    1.2696044 
C    -0.9951944   -0.2708875    2.0882123 
C    -3.1099944   -0.0108461    3.0250933 
C    -2.1751901    2.1392871    3.2507891 
C    -1.4173747    1.3196877    4.0084529 
C    -1.9494605    1.9185643   -1.4576618 
C    -3.0472051   -0.7671685   -0.8227034 
C     1.5896646   -1.6768024    2.5361951 
C     1.5831389    1.2186774    2.0649136 
C    -2.9748835    2.8262999   -1.1110914 
C    -2.8540285   -2.1346057   -0.5231811 
C     2.9834492   -1.6368336    2.7554013 
C     1.9897285    1.4628600    3.3935254 
C    -1.1026052    2.2157390   -2.5435738 
C    -4.2806089   -0.3469312   -1.3594629 
C     0.8484198   -2.7921211    2.9859820 
C     1.7359521    2.2274274    1.0914276 
C    -3.1529317    4.0013070   -1.8536393 
C    -3.8871937   -3.0587010   -0.7265666 
C     3.6160616   -2.6843627    3.4385092 
C     2.5387585    2.7042138    3.7383889 
C    -1.2886763    3.3886596   -3.2873385 
C    -5.3078728   -1.2778706   -1.5713315 
C     1.4898845   -3.8361604    3.6644359 
C     2.2780538    3.4710725    1.4442779 
C    -2.3143449    4.2813401   -2.9445424 
C    -5.1169728   -2.6303961   -1.2507252 
C     2.8737546   -3.7824250    3.8958095 
C     2.6806180    3.7086753    2.7668388 
H    -3.7387727    1.7145642    1.6885812 
H    -1.3791308   -0.9162306    4.2065754 
H    -0.9683602    1.7469735    1.2274444 
H    -1.3804335   -1.2339335    1.6987619 
H    -3.8177042    0.1536219    3.8535667 
H    -3.4344935   -0.8776552    2.4214596 
H    -2.1990600    3.2327340    3.2717105 
H    -0.7150597    1.6089097    4.7938221 
H    -3.6348651    2.6221636   -0.2626342 
H    -1.8790547   -2.4793634   -0.1553131 
H     3.5753550   -0.7902363    2.3921062 
H     1.8823038    0.6814213    4.1532462 
H    -0.3011533    1.5206687   -2.8101100 
H    -4.4353979    0.7013249   -1.6318827 
H    -0.2315328   -2.8500678    2.8148972 
H     1.4263889    2.0310134    0.0570464 
H    -3.9493612    4.7007451   -1.5791704 
H    -3.7274635   -4.1158625   -0.4906572 
H     4.6972386   -2.6409830    3.6040909 
H     2.8559611    2.8899339    4.7697708 
H    -0.6306269    3.6000993   -4.1361433 
H    -6.2610712   -0.9437393   -1.9939827 
H     0.9058176   -4.6917948    4.0187239 
H     2.3910759    4.2516277    0.6849405 
H    -2.4602808    5.1988819   -3.5239395 
H    -5.9215912   -3.3531061   -1.4206131 
H     3.3713630   -4.5977010    4.4309022 
H     3.1104332    4.6773407    3.0421825 
