90
Energy =
C     0.8655066   -0.7638249   -3.0756144 
C     2.0610340   -0.3317011   -2.4349170 
C     2.6448905   -1.1138501   -1.3984176 
H     2.4315748    0.6834925   -2.6234858 
Pd    0.5576801   -0.5515837   -0.8621873 
P     0.7757931   -0.4624128    1.4813928 
P    -1.7007873    0.0992401   -0.6418104 
H     0.6794775   -1.8490208   -3.1030205 
H     2.4660392   -2.1994199   -1.4421916 
C    -1.1907425    1.4487877   -6.1356300 
C    -1.2784687    0.0502318   -6.0840769 
C    -0.6305456   -0.6565374   -5.0632071 
C     0.1315171    0.0204809   -4.0842256 
C     0.1820792    1.4337500   -4.1302091 
C    -0.4665033    2.1375942   -5.1479846 
H    -1.6949193    2.0032889   -6.9336735 
H    -1.8485272   -0.4936747   -6.8444704 
H    -0.6909452   -1.7505542   -5.0346807 
H     0.7229880    1.9855521   -3.3537412 
H    -0.4182229    3.2308985   -5.1671140 
C     5.9495362   -0.0121172    1.1290712 
C     5.5080904   -1.3418018    1.0643159 
C     4.4357413   -1.6849844    0.2325470 
C     3.7803571   -0.7068592   -0.5498660 
C     4.2279404    0.6319290   -0.4617929 
C     5.3042276    0.9719627    0.3626099 
H     6.7894533    0.2589607    1.7768089 
H     6.0043414   -2.1164003    1.6580921 
H     4.1017753   -2.7270152    0.1812490 
H     3.7260376    1.4181908   -1.0342974 
H     5.6348766    2.0137451    0.4174886 
C    -2.7036264    1.6467160    1.8542139 
C    -1.5394520    0.4175607    3.3682785 
C    -1.5635314    0.9747309    0.9944722 
C    -0.9643548   -0.0597946    1.9911196 
C    -3.0210484    0.5592754    2.9070865 
C    -1.8907383    2.6161470    2.7145713 
C    -1.1751422    1.8791603    3.5900971 
C    -2.4380856    1.2781941   -1.8202028 
C    -2.9306044   -1.2349877   -0.4162771 
C     1.1531490   -2.0142296    2.3705403 
C     1.9208868    0.8395327    2.0712882 
C    -2.2859959    2.6713114   -1.6514334 
C    -4.3093063   -0.9503617   -0.3121229 
C     1.1002497   -2.0948429    3.7799398 
C     1.8392188    2.1139233    1.4649631 
C    -3.1174073    0.7880793   -2.9564775 
C    -2.4774586   -2.5606261   -0.2565471 
C     1.4287903   -3.1764618    1.6232415 
C     2.9040288    0.6100876    3.0534197 
C    -2.8304750    3.5573826   -2.5907227 
C    -5.2173479   -1.9834785   -0.0475075 
C     1.3357118   -3.3170571    4.4233301 
C     2.6796654    3.1529170    1.8794946 
C    -3.6594003    1.6796006   -3.8892158 
C    -3.3908067   -3.5902255    0.0127081 
C     1.6619823   -4.3979635    2.2705257 
C     3.7547052    1.6504565    3.4534627 
C    -3.5208633    3.0639595   -3.7075740 
C    -4.7594492   -3.3014866    0.1170829 
C     1.6189450   -4.4679193    3.6705870 
C     3.6360962    2.9245522    2.8811798 
H    -3.5386529    2.0699152    1.2769335 
H    -1.3443406   -0.2781077    4.1969814 
H    -0.8123712    1.7531590    0.7694700 
H    -1.4360656   -1.0442054    1.7948707 
H    -3.6780702    0.9350266    3.7080203 
H    -3.4409170   -0.3693248    2.4815616 
H    -1.8155921    3.6930388    2.5357150 
H    -0.4076746    2.2349750    4.2825420 
H    -1.7535916    3.0732418   -0.7832380 
H    -4.6688785    0.0761289   -0.4426167 
H     0.8787700   -1.2038877    4.3766864 
H     1.1293414    2.2871242    0.6485213 
H    -3.2295764   -0.2905677   -3.1063070 
H    -1.4054586   -2.7794272   -0.3417276 
H     1.4530528   -3.1186262    0.5296590 
H     3.0247196   -0.3828316    3.4948214 
H    -2.7192346    4.6369359   -2.4454998 
H    -6.2863992   -1.7604864    0.0311796 
H     1.2954166   -3.3718634    5.5161115 
H     2.5988188    4.1383177    1.4091448 
H    -4.1852401    1.2898560   -4.7661189 
H    -3.0337659   -4.6177525    0.1360373 
H     1.8762706   -5.2953358    1.6809619 
H     4.5192455    1.4580270    4.2130631 
H    -3.9475842    3.7582471   -4.4385713 
H    -5.4737527   -4.1053279    0.3230950 
H     1.8017565   -5.4209958    4.1774517 
H     4.3001432    3.7342475    3.2007685 
