90
Energy =
C     2.8567487   -0.5487310   -1.4737659 
C     1.8760357   -1.0759399   -2.3608888 
C     0.9662429   -0.2074593   -3.0273186 
H     1.7156817   -2.1606719   -2.3961929 
Pd    0.7895549    0.0312013   -0.8183491 
P     0.9272625    0.1491792    1.5333854 
P    -1.4827593    0.6251187   -0.6805893 
H     3.1957453    0.4822518   -1.6617867 
H     1.3208320    0.8156015   -3.2268658 
C     5.6617235   -2.9396188    0.7400078 
C     5.9753924   -1.6216172    0.3783947 
C     5.0396138   -0.8419245   -0.3128690 
C     3.7784927   -1.3706814   -0.6702833 
C     3.4638072   -2.6898697   -0.2669530 
C     4.3978217   -3.4660135    0.4237894 
H     6.3926422   -3.5521106    1.2777529 
H     6.9544083   -1.2003057    0.6293903 
H     5.2945830    0.1828466   -0.6062830 
H     2.4745882   -3.1061482   -0.4862742 
H     4.1373229   -4.4845198    0.7283112 
C    -2.4261661   -1.3514809   -5.4162686 
C    -1.9325821   -0.0391882   -5.4530819 
C    -0.8252719    0.3158033   -4.6736961 
C    -0.1893043   -0.6318943   -3.8394236 
C    -0.7095443   -1.9465648   -3.8010680 
C    -1.8098425   -2.3020825   -4.5862854 
H    -3.2896598   -1.6330702   -6.0274970 
H    -2.4063596    0.7095921   -6.0962762 
H    -0.4404175    1.3405401   -4.7140709 
H    -0.2575348   -2.6977822   -3.1458104 
H    -2.1971632   -3.3247044   -4.5425526 
C    -3.0070654    1.0093139    2.0113004 
C    -1.6026197   -0.2214671    3.3035985 
C    -1.6887159    0.9203518    1.1466503 
C    -0.8659725   -0.1500496    1.9209349 
C    -3.0433139   -0.3627357    2.7246570 
C    -2.5477603    1.8956464    3.1694781 
C    -1.6912041    1.1696442    3.9173183 
C    -1.9980410    2.2054732   -1.4433725 
C    -2.6237212   -0.6934270   -1.2400111 
C     1.8987909   -1.0998869    2.4375903 
C     1.3640378    1.7752085    2.2462316 
C    -3.2879774    2.7460650   -1.2456063 
C    -2.3574150   -2.0174618   -0.8207848 
C     1.3457662   -2.3586623    2.7575405 
C     1.6219033    1.9382520    3.6238795 
C    -1.0498174    2.9405023   -2.1824164 
C    -3.7087922   -0.4552588   -2.1058886 
C     3.2487259   -0.8365682    2.7561275 
C     1.3663502    2.9021045    1.3985234 
C    -3.6207284    3.9912071   -1.7950797 
C    -3.1978161   -3.0680637   -1.2067115 
C     2.1211471   -3.3219574    3.4165123 
C     1.8705756    3.2154736    4.1416272 
C    -1.3855149    4.1869877   -2.7290840 
C    -4.5370555   -1.5143364   -2.5035845 
C     4.0160066   -1.8032487    3.4162066 
C     1.6060694    4.1797646    1.9239247 
C    -2.6722708    4.7110918   -2.5389449 
C    -4.2951142   -2.8166152   -2.0449749 
C     3.4543774   -3.0441611    3.7520947 
C     1.8578673    4.3361395    3.2948014 
H    -3.9095775    1.3271753    1.4710060 
H    -1.2400355   -1.0286369    3.9568829 
H    -1.1763536    1.9002824    1.2216303 
H    -1.0356763   -1.1322841    1.4414255 
H    -3.8129150   -0.4020869    3.5123579 
H    -3.1648799   -1.2206895    2.0390860 
H    -2.7803211    2.9599781    3.2681816 
H    -1.1023799    1.5168340    4.7693520 
H    -4.0356479    2.1964449   -0.6648564 
H    -1.4705698   -2.2313124   -0.2128385 
H     0.3067556   -2.5919985    2.5036019 
H     1.6318847    1.0666215    4.2870252 
H    -0.0430699    2.5317342   -2.3205097 
H    -3.8996452    0.5503515   -2.4900949 
H     3.6968698    0.1275909    2.4958865 
H     1.1772040    2.7723475    0.3252881 
H    -4.6235082    4.4023182   -1.6395922 
H    -2.9858234   -4.0872150   -0.8673069 
H     1.6794001   -4.2905278    3.6725086 
H     2.0729662    3.3381342    5.2107209 
H    -0.6412047    4.7492497   -3.3023205 
H    -5.3730818   -1.3173698   -3.1823853 
H     5.0606947   -1.5881912    3.6605743 
H     1.6025754    5.0511512    1.2611997 
H    -2.9365814    5.6838386   -2.9662611 
H    -4.9485917   -3.6385379   -2.3548514 
H     4.0574598   -3.7968681    4.2699605 
H     2.0514565    5.3325845    3.7052094 
