90
Energy =
C     0.8605707   -0.8092283   -3.0593573 
C     2.0534724   -0.3467595   -2.4355293 
C     2.6504216   -1.0950673   -1.3812918 
H     2.4125609    0.6668087   -2.6529994 
Pd    0.5605844   -0.5426901   -0.8498884 
P     0.7824190   -0.4084012    1.4900768 
P    -1.7059525    0.0790316   -0.6389033 
H     0.6867895   -1.8967807   -3.0563335 
H     2.4841939   -2.1834273   -1.3968142 
C    -1.2342364    1.2960432   -6.1683942 
C    -1.3025715   -0.1018136   -6.0809283 
C    -0.6422468   -0.7733047   -5.0443286 
C     0.1132629   -0.0610860   -4.0854281 
C     0.1445244    1.3510842   -4.1677144 
C    -0.5166851    2.0197159   -5.2009947 
H    -1.7482137    1.8230036   -6.9787568 
H    -1.8672403   -0.6727193   -6.8253898 
H    -0.6876092   -1.8669669   -4.9876401 
H     0.6802842    1.9297605   -3.4074313 
H    -0.4834723    3.1127359   -5.2481626 
C     5.9882618    0.0976603    1.0589904 
C     5.3051817    1.0612723    0.2989967 
C     4.2138442    0.6926337   -0.4924899 
C     3.7893886   -0.6552750   -0.5543217 
C     4.4778433   -1.6113208    0.2268386 
C     5.5661821   -1.2393508    1.0251891 
H     6.8411893    0.3908452    1.6795347 
H     5.6186334    2.1092372    0.3331894 
H     3.6824193    1.4627269   -1.0605388 
H     4.1589511   -2.6591249    0.1984829 
H     6.0903283   -1.9974228    1.6163526 
C    -2.7206323    1.6774246    1.8194154 
C    -1.5352392    0.5033978    3.3607850 
C    -1.5744240    0.9992307    0.9731162 
C    -0.9587285   -0.0017194    1.9941575 
C    -3.0201401    0.6132710    2.9012097 
C    -1.9190862    2.6796346    2.6523752 
C    -1.1907915    1.9751735    3.5441297 
C    -2.4658916    1.2145134   -1.8453348 
C    -2.9145528   -1.2668710   -0.3717657 
C     1.1563274   -1.9528320    2.3942229 
C     1.9356156    0.8859167    2.0792501 
C    -3.1422683    0.6831480   -2.9647441 
C    -4.2968996   -0.9999840   -0.2688732 
C     1.1121302   -2.0133132    3.8048725 
C     1.8189008    2.1843659    1.5327633 
C    -2.3342133    2.6138737   -1.7156875 
C    -2.4408749   -2.5806233   -0.1772234 
C     1.4228756   -3.1260353    1.6611078 
C     2.9671979    0.6206330    3.0010483 
C    -3.7014561    1.5403733   -3.9192345 
C    -5.1880999   -2.0386184    0.0292117 
C     1.3425561   -3.2282191    4.4635261 
C     2.6773426    3.2084920    1.9472326 
C    -2.8957853    3.4654387   -2.6765865 
C    -3.3373940   -3.6156715    0.1254957 
C     1.6514832   -4.3402678    2.3238174 
C     3.8339395    1.6473658    3.4014827 
C    -3.5830980    2.9311202   -3.7763772 
C    -4.7097148   -3.3445020    0.2285982 
C     1.6136392   -4.3911997    3.7248252 
C     3.6841422    2.9431621    2.8888867 
H    -3.5631576    2.0742953    1.2343256 
H    -1.3276897   -0.1679358    4.2063563 
H    -0.8350176    1.7811330    0.7226715 
H    -1.4221672   -0.9949912    1.8247212 
H    -3.6797136    1.0011710    3.6942061 
H    -3.4289833   -0.3316408    2.5015490 
H    -1.8604542    3.7527883    2.4466864 
H    -0.4274145    2.3592315    4.2258776 
H    -3.2387459   -0.4007944   -3.0843968 
H    -4.6724341    0.0169452   -0.4263369 
H     0.9042309   -1.1112793    4.3898960 
H     1.0632645    2.3922419    0.7678100 
H    -1.8040785    3.0477018   -0.8615921 
H    -1.3661566   -2.7858007   -0.2613057 
H     1.4446645   -3.0826688    0.5667233 
H     3.1112073   -0.3890520    3.3948532 
H    -4.2248358    1.1186683   -4.7827138 
H    -6.2599939   -1.8293898    0.1071232 
H     1.3088469   -3.2678469    5.5571862 
H     2.5686461    4.2128575    1.5250969 
H    -2.8000787    4.5501213   -2.5616975 
H    -2.9642212   -4.6337800    0.2761436 
H     1.8586335   -5.2465841    1.7454899 
H     4.6358060    1.4267523    4.1133535 
H    -4.0230528    3.5985201   -4.5243794 
H    -5.4109163   -4.1527289    0.4607923 
H     1.7927111   -5.3385690    4.2436085 
H     4.3611617    3.7421361    3.2082341 
