90
Energy =
C     0.6092766   -1.2356745   -2.9342359 
C     1.9029621   -0.9617962   -2.3997477 
C     2.3981146   -1.7140472   -1.2998704 
H     2.4458259   -0.0661074   -2.7290013 
Pd    0.4750885   -0.7082600   -0.7671880 
P     0.7511372   -0.3299437    1.5472098 
P    -1.7061591    0.1681069   -0.5974723 
H     0.2409646   -2.2690387   -2.8404101 
H     2.0133065   -2.7397850   -1.1863814 
C    -1.2061107    1.0089362   -6.1225440 
C    -1.5247288   -0.3430795   -5.9300792 
C    -0.9506085   -1.0561367   -4.8698751 
C    -0.0343943   -0.4347826   -3.9915542 
C     0.2498778    0.9387371   -4.1781381 
C    -0.3249964    1.6492595   -5.2349591 
H    -1.6517367    1.5672464   -6.9521466 
H    -2.2182067   -0.8470916   -6.6113280 
H    -1.1924073   -2.1161673   -4.7316960 
H     0.9160247    1.4568119   -3.4793819 
H    -0.0955074    2.7118339   -5.3625591 
C     6.0734739   -0.9995232    0.8218026 
C     5.5674719   -2.3002975    0.6851962 
C     4.3655195   -2.5191730   -0.0007190 
C     3.6611746   -1.4440008   -0.5868110 
C     4.1865681   -0.1382833   -0.4468837 
C     5.3749217    0.0818085    0.2554959 
H     7.0063818   -0.8253486    1.3676690 
H     6.1043372   -3.1481848    1.1229533 
H     3.9663268   -3.5354174   -0.0886595 
H     3.6439423    0.7146299   -0.8663593 
H     5.7569334    1.1017092    0.3677947 
C    -2.7431778    1.6706402    1.9006850 
C    -1.6112073    0.4140720    3.4176551 
C    -1.5885751    1.0123279    1.0520859 
C    -1.0108729   -0.0405815    2.0428846 
C    -3.0836919    0.5641629    2.9281265 
C    -1.9523139    2.6254421    2.7963736 
C    -1.2588712    1.8733801    3.6760726 
C    -2.2751306    1.4159501   -1.7981637 
C    -3.0401476   -1.0721865   -0.4455232 
C     1.4362282   -1.6322535    2.6222948 
C     1.6712233    1.2074406    1.9221068 
C    -3.0740092    1.0323565   -2.8958133 
C    -2.6970596   -2.4359395   -0.3454860 
C     0.6006818   -2.6174444    3.1933528 
C     1.8490941    2.1539923    0.8919603 
C    -1.8488410    2.7575892   -1.6855249 
C    -4.3927300   -0.6827315   -0.3349538 
C     2.8330395   -1.7124983    2.8114313 
C     2.1461309    1.4938126    3.2185675 
C    -3.4634564    1.9840472   -3.8461879 
C    -3.6924834   -3.4000963   -0.1285162 
C     1.1554656   -3.6528852    3.9568150 
C     2.4836071    3.3757453    1.1551071 
C    -2.2438133    3.7033680   -2.6402490 
C    -5.3831319   -1.6500618   -0.1227092 
C     3.3785719   -2.7514072    3.5769827 
C     2.7893978    2.7117009    3.4745996 
C    -3.0544467    3.3195364   -3.7193650 
C    -5.0342521   -3.0069442   -0.0168311 
C     2.5440146   -3.7210762    4.1517358 
C     2.9562453    3.6536853    2.4464671 
H    -3.5649086    2.1057966    1.3135108 
H    -1.4222479   -0.2945476    4.2374686 
H    -0.8257629    1.7909358    0.8595436 
H    -1.4761313   -1.0202675    1.8118334 
H    -3.7575506    0.9258915    3.7214986 
H    -3.4959320   -0.3558084    2.4766701 
H    -1.8782452    3.7058830    2.6414438 
H    -0.5196749    2.2202694    4.4019341 
H    -3.3943893   -0.0081479   -3.0060190 
H    -1.6456645   -2.7359701   -0.4405724 
H    -0.4841995   -2.5813661    3.0499762 
H     1.4921014    1.9206771   -0.1199355 
H    -1.2129809    3.0720570   -0.8510745 
H    -4.6686955    0.3736893   -0.4209119 
H     3.4942397   -0.9624089    2.3651496 
H     2.0162861    0.7639565    4.0246683 
H    -4.0834338    1.6767578   -4.6939569 
H    -3.4207663   -4.4579354   -0.0528163 
H     0.4996832   -4.4067091    4.4045676 
H     2.6178455    4.1061221    0.3504431 
H    -1.9202885    4.7444442   -2.5382617 
H    -6.4313704   -1.3452047   -0.0390344 
H     4.4630240   -2.8011828    3.7178940 
H     3.1606870    2.9278415    4.4817255 
H    -3.3628003    4.0607419   -4.4637395 
H    -5.8126155   -3.7590591    0.1484292 
H     2.9736127   -4.5303365    4.7510378 
H     3.4599164    4.6037963    2.6524269 
