90
Energy =
C     0.4764389   -0.9065890   -3.1152121 
C     1.7629198   -0.5528333   -2.6189299 
C     2.3897772   -1.3464260   -1.6165419 
H     2.1904141    0.4214549   -2.8868005 
Pd    0.4218884   -0.5985206   -0.8923694 
P     0.8861314   -0.4670349    1.4122931 
P    -1.7463543    0.2307249   -0.4702275 
H     0.2051451   -1.9735036   -3.0792291 
H     2.1229485   -2.4145664   -1.5984620 
C    -1.7118465    1.3648876   -6.0373809 
C    -0.8434430    2.0253961   -5.1518737 
C    -0.1481009    1.3045001   -4.1778253 
C    -0.2965052   -0.0988512   -4.0751511 
C    -1.2006588   -0.7445345   -4.9487168 
C    -1.8951848   -0.0208909   -5.9262149 
H    -2.2525559    1.9324686   -6.8015898 
H    -0.7184180    3.1108981   -5.2155985 
H     0.5070361    1.8358345   -3.4789574 
H    -1.3369871   -1.8295013   -4.8742237 
H    -2.5771154   -0.5419925   -6.6062303 
C     6.0483699   -0.4552099    0.4665003 
C     5.3864698    0.5626821   -0.2395794 
C     4.1926986    0.2926858   -0.9143910 
C     3.6405348   -1.0095694   -0.9118033 
C     4.3105194   -2.0202661   -0.1852757 
C     5.5021359   -1.7465543    0.4968968 
H     6.9821129   -0.2391866    0.9956215 
H     5.7983447    1.5765009   -0.2541870 
H     3.6820674    1.1051880   -1.4409936 
H     3.8941008   -3.0334404   -0.1645929 
H     6.0090308   -2.5460772    1.0470852 
C    -2.3618582    1.9365912    2.0480305 
C    -1.1412494    0.6702586    3.4853960 
C    -1.3721746    1.1483901    1.1047691 
C    -0.7519393    0.1032220    2.0776932 
C    -2.6482033    0.9135293    3.1723197 
C    -1.3931653    2.8668925    2.7807916 
C    -0.6472948    2.1052398    3.6087073 
C    -2.5180947    1.4204054   -1.6153631 
C    -3.0393280   -0.9961721   -0.0622031 
C     1.2053699   -2.0315780    2.3025846 
C     2.2053743    0.7200762    1.8622816 
C    -2.2537003    2.8036880   -1.5210677 
C    -2.6702330   -2.3464469    0.1071504 
C     1.2889758   -3.2307405    1.5677207 
C     2.1548383    2.0180999    1.3048920 
C    -3.3444793    0.9423126   -2.6552791 
C    -4.3745439   -0.6021086    0.1716567 
C     1.2958645   -2.0756026    3.7116349 
C     3.2938392    0.3693670    2.6847280 
C    -2.8312617    3.6942704   -2.4360357 
C    -3.6226225   -3.2919905    0.5141157 
C     1.4696838   -4.4552810    2.2263175 
C     3.1396633    2.9623155    1.6148857 
C    -3.9185698    1.8383248   -3.5641400 
C    -5.3224080   -1.5516728    0.5737933 
C     1.4779716   -3.3009711    4.3660026 
C     4.2860127    1.3151324    2.9795486 
C    -3.6669486    3.2143560   -3.4552094 
C    -4.9474369   -2.8945293    0.7472632 
C     1.5664779   -4.4904321    3.6249830 
C     4.2056023    2.6140809    2.4594135 
H    -3.2187510    2.4049113    1.5420500 
H    -0.9127562   -0.0105958    4.3178526 
H    -0.5930844    1.8565187    0.7693501 
H    -1.3186545   -0.8443558    1.9717314 
H    -3.1873720    1.3674548    4.0194396 
H    -3.1796431    0.0072780    2.8314840 
H    -1.2575568    3.9283296    2.5519464 
H     0.2119569    2.4224508    4.2054182 
H    -1.6066344    3.1953356   -0.7294869 
H    -1.6323371   -2.6505328   -0.0785163 
H     1.2058705   -3.1989030    0.4758659 
H     1.3504775    2.2872231    0.6121086 
H    -3.5452893   -0.1298864   -2.7481528 
H    -4.6696529    0.4438411    0.0344149 
H     1.2302168   -1.1531763    4.2981342 
H     3.3827855   -0.6452624    3.0820851 
H    -2.6315715    4.7672307   -2.3478875 
H    -3.3306180   -4.3389651    0.6446721 
H     1.5341735   -5.3819431    1.6467451 
H     3.0823490    3.9681640    1.1861978 
H    -4.5588968    1.4580722   -4.3658674 
H    -6.3576963   -1.2438461    0.7532155 
H     1.5491628   -3.3279633    5.4582432 
H     5.1302978    1.0282202    3.6146024 
H    -4.1191704    3.9123872   -4.1670617 
H    -5.6926913   -3.6327752    1.0610383 
H     1.7081810   -5.4458816    4.1404912 
H     4.9808286    3.3499692    2.6964651 
