90
Energy =
C     0.7913195   -0.9892976   -2.8842447 
C     2.0498279   -0.5886770   -2.3488851 
C     2.6002648   -1.2654884   -1.2267963 
H     2.5053355    0.3463590   -2.6980267 
Pd    0.5835919   -0.4315430   -0.7279218 
P     0.7336070   -0.1392476    1.6084136 
P    -1.6907793    0.1544313   -0.6407562 
H     0.5149723   -2.0481503   -2.7636514 
H     2.2832301   -2.3089912   -1.0766328 
C    -1.2290699    0.9799690   -6.1300013 
C    -1.4277772   -0.3870293   -5.8887740 
C    -0.7858403   -1.0101644   -4.8110679 
C     0.0796573   -0.2815743   -3.9640067 
C     0.2427817    1.1039549   -4.1995777 
C    -0.3997356    1.7243273   -5.2741804 
H    -1.7279503    1.4687432   -6.9730714 
H    -2.0801401   -0.9724468   -6.5450867 
H    -0.9352043   -2.0813142   -4.6329694 
H     0.8658633    1.7025048   -3.5260974 
H    -0.2638219    2.7976009   -5.4404486 
C     6.2080687   -0.2960151    0.9100679 
C     5.5506980   -1.5183084    1.1228868 
C     4.3796282   -1.8173984    0.4164936 
C     3.8345136   -0.8978463   -0.5106327 
C     4.4987785    0.3361282   -0.7013437 
C     5.6767674    0.6273139   -0.0056008 
H     7.1296841   -0.0641264    1.4537367 
H     5.9551564   -2.2441939    1.8357393 
H     3.8733823   -2.7738737    0.5849942 
H     4.0923823    1.0787101   -1.3952631 
H     6.1799430    1.5852209   -0.1721114 
C    -3.1165341    1.2832520    1.8473909 
C    -1.8339658    0.1907732    3.3739566 
C    -1.8033546    0.9408511    1.0426351 
C    -1.0738394   -0.0269911    2.0200354 
C    -3.2722832    0.0589506    2.7841058 
C    -2.6156910    2.3156655    2.8585785 
C    -1.8354221    1.6663369    3.7485859 
C    -2.3389903    1.3656647   -1.8410619 
C    -2.8495845   -1.2596073   -0.6202248 
C     1.3205841   -1.5897100    2.5585515 
C     1.7082525    1.2906045    2.1917832 
C    -1.9713867    2.7248805   -1.7265225 
C    -2.3293101   -2.5693157   -0.5919846 
C     1.2178812   -2.8642439    1.9646576 
C     3.1064968    1.1327258    2.3216370 
C    -3.1218953    0.9514696   -2.9386844 
C    -4.2467223   -1.0648429   -0.5507352 
C     1.8103082   -1.4741744    3.8758214 
C     1.1362461    2.5635210    2.4040932 
C    -2.4156226    3.6570982   -2.6720838 
C    -3.1904729   -3.6711212   -0.4864116 
C     1.6014208   -4.0094427    2.6751826 
C     3.9078595    2.2246911    2.6780577 
C    -3.5590615    1.8898083   -3.8823322 
C    -5.1029614   -2.1683049   -0.4494976 
C     2.2011360   -2.6216506    4.5795856 
C     1.9461538    3.6501783    2.7600109 
C    -3.2146589    3.2422947   -3.7487463 
C    -4.5765044   -3.4703808   -0.4142446 
C     2.0985797   -3.8876564    3.9819371 
C     3.3325775    3.4846764    2.8984289 
H    -3.9781429    1.5782465    1.2311628 
H    -1.5432072   -0.5226113    4.1588094 
H    -1.2198767    1.8691369    0.9061109 
H    -1.3410977   -1.0624299    1.7186270 
H    -4.0557184    0.2162810    3.5427455 
H    -3.4491715   -0.8949482    2.2567213 
H    -2.7810682    3.3944414    2.7785867 
H    -1.2452460    2.1052756    4.5574903 
H    -1.3359864    3.0620460   -0.9003187 
H    -1.2440493   -2.7169196   -0.6541335 
H     0.8401439   -2.9521879    0.9386006 
H     3.5710889    0.1561966    2.1529947 
H    -3.3893945   -0.1024701   -3.0584903 
H    -4.6628387   -0.0525528   -0.5822194 
H     1.8942639   -0.4890650    4.3465703 
H     0.0567130    2.7075234    2.3173217 
H    -2.1355977    4.7104702   -2.5681584 
H    -2.7793901   -4.6855692   -0.4647082 
H     1.5202321   -4.9958517    2.2069329 
H     4.9886492    2.0834098    2.7784490 
H    -4.1656935    1.5577027   -4.7304857 
H    -6.1854753   -2.0128422   -0.3970606 
H     2.5858242   -2.5264689    5.6002511 
H     1.4885242    4.6295209    2.9346544 
H    -3.5607152    3.9724229   -4.4874722 
H    -5.2504551   -4.3295507   -0.3344978 
H     2.4072526   -4.7804159    4.5355202 
H     3.9620623    4.3356319    3.1783068 
