90
Energy =
C     0.6553248   -1.0429316   -2.9997021 
C     1.9388262   -0.7731017   -2.4383612 
C     2.4443995   -1.5789018   -1.3824471 
H     2.4627794    0.1529848   -2.7090108 
Pd    0.4932536   -0.6500938   -0.8057198 
P     0.7513996   -0.3931822    1.5269871 
P    -1.7107252    0.1554888   -0.5983160 
H     0.3110896   -2.0884464   -2.9747357 
H     2.0807325   -2.6173130   -1.3321798 
C    -1.1696161    1.3602277   -6.0644410 
C    -1.4467819   -0.0114264   -5.9738552 
C    -0.8717144   -0.7785214   -4.9526131 
C     0.0051163   -0.1914803   -4.0127427 
C     0.2476156    1.1999809   -4.0970700 
C    -0.3285806    1.9643891   -5.1147914 
H    -1.6168811    1.9610216   -6.8628871 
H    -2.1083317   -0.4882181   -6.7046451 
H    -1.0809075   -1.8527932   -4.8940456 
H     0.8812511    1.6879563   -3.3481751 
H    -0.1321945    3.0400784   -5.1628866 
C     6.0894003   -0.9164033    0.8072327 
C     5.6091253   -2.2165380    0.5936170 
C     4.4166056   -2.4185538   -0.1134981 
C     3.6963926   -1.3253614   -0.6444640 
C     4.1960979   -0.0201008   -0.4272613 
C     5.3747172    0.1819704    0.2965745 
H     7.0146128   -0.7559427    1.3701316 
H     6.1586493   -3.0776690    0.9875984 
H     4.0372749   -3.4354401   -0.2614925 
H     3.6411435    0.8450461   -0.8032847 
H     5.7364481    1.2008139    0.4692379 
C    -2.7869322    1.5122338    1.9659502 
C    -1.6287233    0.2106468    3.4241176 
C    -1.6159454    0.9215852    1.0900414 
C    -1.0170938   -0.1647814    2.0306577 
C    -3.1037562    0.3507007    2.9389293 
C    -2.0192049    2.4408665    2.9079900 
C    -1.3098360    1.6636043    3.7523465 
C    -2.3212300    1.4408017   -1.7371701 
C    -3.0070547   -1.1299461   -0.5062708 
C     1.4561568   -1.7398140    2.5328345 
C     1.6395654    1.1387160    1.9905649 
C    -1.9607690    2.7929053   -1.5478034 
C    -4.3710141   -0.7860618   -0.3851950 
C     0.6369891   -2.7726425    3.0398889 
C     2.1040141    1.3619323    3.3031501 
C    -3.0885736    1.0791085   -2.8645215 
C    -2.6234909   -2.4858900   -0.4629430 
C     2.8528559   -1.8026350    2.7288490 
C     1.8008727    2.1449248    1.0157746 
C    -2.3892335    3.7685148   -2.4571067 
C    -5.3325389   -1.7907201   -0.2185063 
C     1.2074141   -3.8386949    3.7476080 
C     2.7205735    2.5767108    3.6297562 
C    -3.5116847    2.0604627   -3.7689906 
C    -3.5901600   -3.4876885   -0.2912593 
C     3.4140850   -2.8723162    3.4386609 
C     2.4089314    3.3628244    1.3496206 
C    -3.1679745    3.4050358   -3.5662361 
C    -4.9434047   -3.1398235   -0.1684547 
C     2.5955869   -3.8898665    3.9501924 
C     2.8713487    3.5778736    2.6565569 
H    -3.6174363    1.9557151    1.3976690 
H    -1.4249295   -0.5316748    4.2098600 
H    -0.8698908    1.7251230    0.9379885 
H    -1.4613725   -1.1417654    1.7522147 
H    -3.7866487    0.6590439    3.7469886 
H    -3.4945555   -0.5558182    2.4433426 
H    -1.9696933    3.5288900    2.8050059 
H    -0.5794782    1.9922369    4.4954093 
H    -1.3510915    3.0921177   -0.6887207 
H    -4.6782170    0.2644350   -0.4269305 
H    -0.4472945   -2.7506209    2.8893854 
H     1.9870351    0.5855861    4.0666487 
H    -3.3586174    0.0320770   -3.0329577 
H    -1.5632914   -2.7501141   -0.5661102 
H     3.5017888   -1.0152867    2.3314580 
H     1.4516395    1.9616030   -0.0089455 
H    -2.1169041    4.8167327   -2.2960023 
H    -6.3897285   -1.5211774   -0.1267311 
H     0.5640475   -4.6300641    4.1458262 
H     3.0835024    2.7439045    4.6491574 
H    -4.1064488    1.7700753   -4.6404142 
H    -3.2870639   -4.5392250   -0.2598459 
H     4.4983160   -2.9083113    3.5853775 
H     2.5305017    4.1397202    0.5876393 
H    -3.5027493    4.1695338   -4.2747645 
H    -5.6993328   -3.9211350   -0.0382663 
H     3.0373454   -4.7229477    4.5064496 
H     3.3542720    4.5252402    2.9174829 
