90
Energy =
C     0.6468621   -1.0595200   -2.9929496 
C     1.9324128   -0.7884261   -2.4370951 
C     2.4398561   -1.5877848   -1.3770975 
H     2.4569324    0.1352400   -2.7148589 
Pd    0.4913886   -0.6539421   -0.8014115 
P     0.7534263   -0.3897866    1.5294543 
P    -1.7105171    0.1567068   -0.5939420 
H     0.3007022   -2.1042124   -2.9607814 
H     2.0758368   -2.6256779   -1.3191624 
C    -1.1873672    1.3300972   -6.0629350 
C    -1.4695831   -0.0397512   -5.9612045 
C    -0.8908583   -0.8023861   -4.9386311 
C    -0.0057109   -0.2126193   -4.0083446 
C     0.2415395    1.1773525   -4.1034040 
C    -0.3379543    1.9372256   -5.1226676 
H    -1.6372327    1.9272942   -6.8626275 
H    -2.1380394   -0.5186792   -6.6842811 
H    -1.1040280   -1.8753773   -4.8715011 
H     0.8814166    1.6680198   -3.3616272 
H    -0.1374964    3.0117552   -5.1792309 
C     6.0930402   -0.9101675    0.7942528 
C     5.6129601   -2.2119027    0.5901005 
C     4.4176033   -2.4190032   -0.1107793 
C     3.6942571   -1.3294542   -0.6448402 
C     4.1933878   -0.0224979   -0.4366515 
C     5.3750114    0.1847292    0.2808082 
H     7.0207822   -0.7457839    1.3518385 
H     6.1649209   -3.0703011    0.9866427 
H     4.0385671   -3.4370400   -0.2514468 
H     3.6356434    0.8399659   -0.8147691 
H     5.7365531    1.2048530    0.4462079 
C    -2.7881327    1.5072042    1.9729956 
C    -1.6290418    0.2030644    3.4282249 
C    -1.6164513    0.9202909    1.0957244 
C    -1.0156970   -0.1672699    2.0341874 
C    -3.1038653    0.3425352    2.9425359 
C    -2.0219069    2.4341526    2.9179543 
C    -1.3122196    1.6554645    3.7607394 
C    -2.3134890    1.4456615   -1.7329320 
C    -3.0112225   -1.1245863   -0.5068431 
C     1.4659088   -1.7312324    2.5367210 
C     1.6372135    1.1463437    1.9872141 
C    -1.9380032    2.7942547   -1.5473724 
C    -2.6327743   -2.4822000   -0.4721502 
C     0.6522283   -2.7678995    3.0448499 
C     2.0994580    1.3764614    3.2994134 
C    -3.0891779    1.0902504   -2.8565196 
C    -4.3738759   -0.7764027   -0.3828551 
C     2.8629494   -1.7865479    2.7325013 
C     1.7987120    2.1480563    1.0078245 
C    -2.3600546    3.7728794   -2.4563985 
C    -3.6032265   -3.4814760   -0.3070074 
C     1.2283042   -3.8301510    3.7537161 
C     2.7138761    2.5936343    3.6211304 
C    -3.5059149    2.0746497   -3.7607391 
C    -5.3391529   -1.7784616   -0.2223579 
C     3.4298519   -2.8525411    3.4434263 
C     2.4047294    3.3683671    1.3367156 
C    -3.1473791    3.4158605   -3.5616150 
C    -4.9551353   -3.1293700   -0.1816906 
C     2.6167656   -3.8737345    3.9562960 
C     2.8647820    3.5903258    2.6433414 
H    -3.6189800    1.9516709    1.4059949 
H    -1.4246157   -0.5414191    4.2117521 
H    -0.8718853    1.7253926    0.9447660 
H    -1.4573869   -1.1446647    1.7528189 
H    -3.7875361    0.6477128    3.7511473 
H    -3.4932385   -0.5631144    2.4442441 
H    -1.9734491    3.5224978    2.8178241 
H    -0.5828589    1.9829559    4.5052831 
H    -1.3214681    3.0884302   -0.6913936 
H    -1.5735805   -2.7496742   -0.5769131 
H    -0.4321678   -2.7517129    2.8943302 
H     1.9828189    0.6034216    4.0663279 
H    -3.3703639    0.0458106   -3.0226009 
H    -4.6772753    0.2754373   -0.4178050 
H     3.5078184   -0.9964778    2.3338622 
H     1.4513063    1.9592741   -0.0165403 
H    -2.0757989    4.8183896   -2.2982997 
H    -3.3040802   -4.5343323   -0.2825449 
H     0.5891570   -4.6244868    4.1528362 
H     3.0751185    2.7662018    4.6402397 
H    -4.1073487    1.7890678   -4.6291821 
H    -6.3952679   -1.5055027   -0.1282916 
H     4.5142957   -2.8827870    3.5898524 
H     2.5264616    4.1417235    0.5711620 
H    -3.4771176    4.1827273   -4.2699569 
H    -5.7140064   -3.9086987   -0.0567989 
H     3.0629847   -4.7039136    4.5133436 
H     3.3460942    4.5395613    2.9004463 
