90
Energy =
C     0.5358309   -1.1888362   -2.9676963 
C     1.8436741   -0.9747279   -2.4396718 
C     2.3215824   -1.7688747   -1.3621222 
H     2.4153775   -0.0919016   -2.7546206 
Pd    0.4395869   -0.7060323   -0.7884627 
P     0.7550067   -0.3846280    1.5289324 
P    -1.7080532    0.2384474   -0.5744045 
H     0.1312474   -2.2103190   -2.8963466 
H     1.8994454   -2.7816815   -1.2662443 
C    -1.2127468    1.2023252   -6.0861284 
C    -1.5709259   -0.1449473   -5.9343712 
C    -1.0184554   -0.9062988   -4.8964494 
C    -0.0846011   -0.3388767   -4.0005153 
C     0.2401409    1.0306288   -4.1459037 
C    -0.3132134    1.7893938   -5.1804102 
H    -1.6419457    1.7983291   -6.8979819 
H    -2.2786728   -0.6075596   -6.6301702 
H    -1.2914448   -1.9624374   -4.7902001 
H     0.9206042    1.5072819   -3.4315560 
H    -0.0525811    2.8481240   -5.2759619 
C     6.0401104   -1.2393712    0.7381873 
C     5.3794357   -0.1207282    0.1995635 
C     4.1774526   -0.2804650   -0.4958994 
C     3.6000159   -1.5616932   -0.6557035 
C     4.2666090   -2.6747240   -0.0966738 
C     5.4822475   -2.5164631    0.5816843 
H     6.9840198   -1.1124068    1.2781300 
H     5.8017896    0.8811612    0.3284264 
H     3.6656959    0.6009383   -0.8946149 
H     3.8267882   -3.6726041   -0.1997815 
H     5.9891163   -3.3930453    0.9981301 
C    -2.6592270    1.7351779    1.9615715 
C    -1.5546148    0.4126618    3.4423145 
C    -1.5399186    1.0504316    1.0868716 
C    -0.9887058   -0.0396259    2.0523021 
C    -3.0266966    0.6241294    2.9747732 
C    -1.8232009    2.6452592    2.8627396 
C    -1.1465096    1.8536731    3.7205802 
C    -2.2559450    1.5222307   -1.7463883 
C    -3.0789631   -0.9612461   -0.4228768 
C     1.4017576   -1.7344617    2.5687465 
C     1.7370613    1.1087622    1.9232900 
C    -1.8011224    2.8522869   -1.6114975 
C    -4.4162878   -0.5297940   -0.2860968 
C     0.5355339   -2.7038530    3.1209433 
C     1.9411702    2.0676005    0.9095574 
C    -3.0699309    1.1759152   -2.8454446 
C    -2.7792683   -2.3368615   -0.3499551 
C     2.7959007   -1.8678391    2.7470298 
C     2.2355215    1.3514349    3.2198511 
C    -2.1821284    3.8236605   -2.5460816 
C    -5.4346940   -1.4677342   -0.0745447 
C     1.0579292   -3.7760788    3.8559004 
C     2.6255018    3.2584608    1.1890150 
C    -3.4452949    2.1529223   -3.7754247 
C    -3.8026033   -3.2715761   -0.1340161 
C     3.3089657   -2.9432288    3.4842368 
C     2.9281706    2.5382980    3.4920676 
C    -3.0074613    3.4770073   -3.6265624 
C    -5.1289625   -2.8368036    0.0042415 
C     2.4442789   -3.8968362    4.0409704 
C     3.1216289    3.4927188    2.4802027 
H    -3.4720150    2.2096034    1.3926875 
H    -1.3811887   -0.3166056    4.2473361 
H    -0.7515834    1.8041230    0.8974601 
H    -1.4925732   -0.9974306    1.8112027 
H    -3.6770644    0.9961917    3.7828401 
H    -3.4776248   -0.2725142    2.5134695 
H    -1.7118653    3.7248339    2.7250230 
H    -0.3863735    2.1613393    4.4425072 
H    -1.1545029    3.1380954   -0.7750638 
H    -4.6584892    0.5363748   -0.3505363 
H    -0.5481631   -2.6273360    2.9844023 
H     1.5650134    1.8681182   -0.1025909 
H    -3.4132966    0.1446350   -2.9721440 
H    -1.7396158   -2.6692356   -0.4645734 
H     3.4805889   -1.1310338    2.3142762 
H     2.0857912    0.6115620    4.0132662 
H    -1.8357958    4.8555676   -2.4273349 
H    -6.4710495   -1.1303379    0.0297793 
H     0.3786951   -4.5175095    4.2891319 
H     2.7801466    3.9985131    0.3969422 
H    -4.0768308    1.8745200   -4.6246226 
H    -3.5647444   -4.3388641   -0.0800532 
H     4.3918018   -3.0342302    3.6167479 
H     3.3172268    2.7205001    4.4991921 
H    -3.3050181    4.2382354   -4.3549552 
H    -5.9291166   -3.5658546    0.1687550 
H     2.8485809   -4.7343475    4.6186548 
H     3.6640441    4.4183869    2.6987198 
