90
Energy =
C    -0.3107609   -2.4190058   -2.1081911 
C     0.6573456   -1.5780171   -2.7213474 
C     1.9512612   -1.4229559   -2.1415854 
H     0.3537137   -0.9204529   -3.5463033 
Pd    0.3592527   -0.8273628   -0.6912414 
P    -1.5722357   -0.5059364    0.6196812 
P     1.4936055    0.7096360    0.6922752 
H     0.0695467   -3.2583680   -1.5048781 
H     2.3423528   -2.2720353   -1.5601216 
C    -4.4074803   -2.8884923   -3.3407915 
C    -3.7144867   -3.9495680   -2.7406696 
C    -2.3841992   -3.7807985   -2.3345823 
C    -1.7132591   -2.5558476   -2.5455433 
C    -2.4235998   -1.4949578   -3.1545566 
C    -3.7567929   -1.6579904   -3.5420039 
H    -5.4502364   -3.0151839   -3.6494010 
H    -4.2132917   -4.9105473   -2.5781950 
H    -1.8535820   -4.6083836   -1.8513729 
H    -1.9355688   -0.5261442   -3.3011243 
H    -4.2947196   -0.8211681   -3.9993661 
C     4.9794927    1.2039322   -3.7001041 
C     5.3340486    0.0493998   -2.9874307 
C     4.3392870   -0.7822854   -2.4573736 
C     2.9707027   -0.4831732   -2.6429877 
C     2.6297738    0.7045397   -3.3324492 
C     3.6230517    1.5334226   -3.8602618 
H     5.7554293    1.8530196   -4.1186151 
H     6.3890170   -0.2095627   -2.8495709 
H     4.6213523   -1.6908933   -1.9131634 
H     1.5771612    0.9869026   -3.4438533 
H     3.3407825    2.4484137   -4.3905240 
C    -1.5833973    0.9905158    3.3168049 
C     0.0075879    2.5103810    2.7487367 
C    -0.8287419    0.3073317    2.1128757 
C     0.0524804    1.4715963    1.5749339 
C    -1.5404587    2.4909993    2.9368897 
C    -0.5102051    0.9662594    4.4052904 
C     0.4461212    1.8490556    4.0493529 
C    -2.7405500    0.7095745   -0.0943242 
C    -2.5800964   -1.9095604    1.1986196 
C     2.4291049    2.0648098   -0.0907452 
C     2.5742007   -0.0352730    1.9633828 
C    -4.0114563    0.9316205    0.4762466 
C    -2.2698082   -2.5812847    2.4014819 
C     1.7450410    3.1762206   -0.6310908 
C     3.3842685    0.7583243    2.8035312 
C    -2.3196342    1.4998343   -1.1841498 
C    -3.6379167   -2.3819053    0.3920207 
C     3.8279753    1.9702044   -0.2476531 
C     2.5354481   -1.4319736    2.1497588 
C    -4.8453380    1.9315140   -0.0415132 
C    -3.0190030   -3.6976316    2.7955304 
C     2.4558351    4.1896168   -1.2865321 
C     4.1396037    0.1565099    3.8174887 
C    -3.1552369    2.5029222   -1.6949267 
C    -4.3823231   -3.4981516    0.7952187 
C     4.5309703    2.9884534   -0.9034021 
C     3.2873175   -2.0288696    3.1721736 
C    -4.4190353    2.7175010   -1.1245084 
C    -4.0768760   -4.1568654    1.9951333 
C     3.8499437    4.1003715   -1.4193220 
C     4.0886468   -1.2347735    4.0053033 
H    -2.5585660    0.5476029    3.5673316 
H     0.4729304    3.4753521    2.4988804 
H    -0.1748116   -0.4901451    2.5182147 
H    -0.4899783    1.9499836    0.7360136 
H    -2.1014533    2.7377496    2.0177058 
H    -1.8737412    3.1389275    3.7636113 
H    -0.4858220    0.2601148    5.2405286 
H     1.3989640    2.0257512    4.5532292 
H    -4.3488083    0.3199373    1.3197441 
H    -1.4494528   -2.2352316    3.0386575 
H     0.6565823    3.2591985   -0.5402183 
H     3.4264626    1.8434245    2.6599408 
H    -1.3324990    1.3185546   -1.6296234 
H    -3.8831675   -1.8763017   -0.5480293 
H     4.3688257    1.1029829    0.1429115 
H     1.9138600   -2.0478009    1.4871687 
H    -5.8318499    2.0990986    0.4028079 
H    -2.7785132   -4.2074401    3.7341648 
H     1.9187023    5.0536194   -1.6913536 
H     4.7696441    0.7746844    4.4654396 
H    -2.8231242    3.1115507   -2.5423786 
H    -5.2013239   -3.8539483    0.1619898 
H     5.6160019    2.9056193   -1.0185743 
H     3.2529556   -3.1140909    3.3126971 
H    -5.0755647    3.4964110   -1.5258412 
H    -4.6621514   -5.0275387    2.3082118 
H     4.4037108    4.8946070   -1.9302656 
H     4.6807556   -1.7001363    4.8000814 
