90
Energy =
C    -0.5049489   -2.4046619   -2.0914575 
C     0.6078519   -1.7157422   -2.6465815 
C     1.8680694   -1.7237209   -1.9789680 
H     0.4522184   -1.0414739   -3.4987204 
Pd    0.2798481   -0.8874208   -0.6516410 
P    -1.6659189   -0.2879504    0.5338055 
P     1.5231934    0.5215456    0.7724113 
H    -0.2844389   -3.2755750   -1.4543535 
H     2.0969510   -2.6034333   -1.3576911 
C    -4.5376382   -2.3328994   -3.5939118 
C    -4.0383498   -3.4672002   -2.9379001 
C    -2.7269194   -3.4745307   -2.4447167 
C    -1.8810548   -2.3572894   -2.6219238 
C    -2.3969265   -1.2209320   -3.2880399 
C    -3.7116601   -1.2071403   -3.7628534 
H    -5.5654292   -2.3214840   -3.9709593 
H    -4.6745276   -4.3474976   -2.7998270 
H    -2.3482018   -4.3575223   -1.9186655 
H    -1.7714568   -0.3310304   -3.4106531 
H    -4.0979469   -0.3133150   -4.2634897 
C     5.3400762    0.4258229   -3.3299269 
C     4.0581560    0.9164080   -3.6302554 
C     2.9215380    0.2450926   -3.1722358 
C     3.0409386   -0.9437584   -2.4141829 
C     4.3366172   -1.4048576   -2.0887600 
C     5.4751920   -0.7303278   -2.5479095 
H     6.2286062    0.9516422   -3.6940813 
H     3.9464357    1.8340456   -4.2163059 
H     1.9297003    0.6531275   -3.3949201 
H     4.4474098   -2.3159887   -1.4896746 
H     6.4705351   -1.1139358   -2.3006545 
C    -1.6307919    1.2207306    3.2249989 
C     0.1749937    2.5142017    2.7452988 
C    -0.9069263    0.4340491    2.0662221 
C     0.1475198    1.4685983    1.5767410 
C    -1.3701055    2.6995518    2.8467699 
C    -0.6320928    1.0652575    4.3719494 
C     0.4500318    1.8122290    4.0693352 
C    -2.6080137    1.0664931   -0.2601024 
C    -2.8945203   -1.5291806    1.0545512 
C     2.6440517    1.7433907    0.0119419 
C     2.4516593   -0.3228476    2.0996365 
C    -3.8653022    1.4758189    0.2315861 
C    -2.7634902   -2.2147798    2.2822615 
C     2.1098838    2.8916746   -0.6142529 
C     3.2965801    0.3881081    2.9787712 
C    -2.0192255    1.7666745   -1.3335813 
C    -3.9508036   -1.8652597    0.1802661 
C     4.0339702    1.5095280   -0.0431510 
C     2.2594020   -1.7067799    2.2852961 
C    -4.5192195    2.5716103   -0.3472841 
C    -3.6860806   -3.2092973    2.6329262 
C     2.9584078    3.8052033   -1.2521343 
C     3.9348671   -0.2822329    4.0294170 
C    -2.6747759    2.8658294   -1.9058458 
C    -4.8692650   -2.8600602    0.5403375 
C     4.8755103    2.4286993   -0.6825261 
C     2.8945362   -2.3720029    3.3441367 
C    -3.9258295    3.2672406   -1.4134468 
C    -4.7406718   -3.5325440    1.7644960 
C     4.3430237    3.5785547   -1.2826542 
C     3.7317825   -1.6599087    4.2151448 
H    -2.6682086    0.9122046    3.4213295 
H     0.7761877    3.4074768    2.5201201 
H    -0.3865556   -0.4389159    2.5080835 
H    -0.2813525    2.0078332    0.7094264 
H    -1.8420514    3.0106816    1.8974952 
H    -1.6607471    3.3920810    3.6531829 
H    -0.7467717    0.3691055    5.2080808 
H     1.3881065    1.8670583    4.6260376 
H    -4.3329075    0.9347132    1.0610959 
H    -1.9484749   -1.9736103    2.9725156 
H     1.0308531    3.0808479   -0.6049908 
H     3.4575149    1.4621938    2.8366087 
H    -1.0441096    1.4388598   -1.7171670 
H    -4.0586629   -1.3479301   -0.7790330 
H     4.4602270    0.6107210    0.4120428 
H     1.6107420   -2.2589468    1.5933225 
H    -5.4958703    2.8849506    0.0357032 
H    -3.5835551   -3.7297767    3.5907240 
H     2.5364496    4.6986482   -1.7239066 
H     4.5924042    0.2715698    4.7075603 
H    -2.2129209    3.4037781   -2.7402787 
H    -5.6850755   -3.1105312   -0.1452390 
H     5.9524444    2.2378197   -0.7182782 
H     2.7411557   -3.4469653    3.4839241 
H    -4.4423656    4.1217175   -1.8627191 
H    -5.4614217   -4.3079487    2.0436470 
H     5.0048691    4.2950225   -1.7798184 
H     4.2330718   -2.1792048    5.0384687 
