90
Energy =
C    -0.5076531   -2.0531334   -2.3811423 
C     0.6028687   -1.3027748   -2.8602148 
C     1.8803488   -1.4331241   -2.2454033 
H     0.4409036   -0.4993104   -3.5894822 
Pd    0.3341907   -0.7872495   -0.7516918 
P    -1.6307627   -0.4031868    0.4837211 
P     1.5207488    0.5540911    0.7839021 
H    -0.2793768   -3.0197379   -1.9059151 
H     2.1018891   -2.3938700   -1.7546591 
C    -4.6177099   -1.6603238   -3.5971980 
C    -4.1918476   -2.7723309   -2.8561581 
C    -2.8503311   -2.8880141   -2.4735063 
C    -1.9066458   -1.8940730   -2.8201918 
C    -2.3552980   -0.7715247   -3.5543790 
C    -3.6932205   -0.6615947   -3.9437799 
H    -5.6656311   -1.5683664   -3.9004586 
H    -4.9046013   -3.5565843   -2.5809150 
H    -2.5236223   -3.7638001   -1.9024414 
H    -1.6563216    0.0285490   -3.8173145 
H    -4.0204256    0.2145618   -4.5121132 
C     5.3712319    0.7847696   -3.4208175 
C     5.4942500   -0.4835372   -2.8354928 
C     4.3511362   -1.1813363   -2.4256106 
C     3.0620463   -0.6314204   -2.6085983 
C     2.9570285    0.6639597   -3.1680768 
C     4.0983107    1.3595579   -3.5749844 
H     6.2631208    1.3311184   -3.7442053 
H     6.4831233   -0.9346077   -2.7026684 
H     4.4512913   -2.1783775   -1.9816251 
H     1.9734152    1.1344961   -3.2734368 
H     3.9984136    2.3611002   -4.0049800 
C    -1.7714910    1.4806748    2.9636543 
C     0.0659911    2.7218285    2.4734323 
C    -0.9873810    0.5885666    1.9230023 
C     0.0969231    1.5762533    1.4026948 
C    -1.4806493    2.9181386    2.4717319 
C    -0.8377902    1.4227246    4.1731111 
C     0.2646458    2.1370316    3.8657183 
C    -2.8919129    0.5568087   -0.4333613 
C    -2.4441882   -1.8411409    1.2681561 
C     2.7948560    1.7049747    0.1720519 
C     2.2363420   -0.3013720    2.2326575 
C    -2.4513826    1.6697506   -1.1865112 
C    -3.5118038   -1.6912442    2.1808556 
C     2.4455619    2.9801009   -0.3225631 
C     3.0891159    0.3608508    3.1410258 
C    -4.2553722    0.2050411   -0.4667866 
C    -1.9328363   -3.1291990    1.0132757 
C     4.1429718    1.2890607    0.1209061 
C     1.8609318   -1.6383933    2.4772935 
C    -3.3655328    2.4502160   -1.9035935 
C    -4.0641849   -2.8156023    2.8084151 
C     3.4344377    3.8357633   -0.8259499 
C     3.5506557   -0.3088972    4.2810017 
C    -5.1642390    0.9805002   -1.2006818 
C    -2.4861349   -4.2517790    1.6449565 
C     5.1251838    2.1505327   -0.3810714 
C     2.3183930   -2.3011207    3.6250787 
C    -4.7272159    2.1099114   -1.9065899 
C    -3.5548939   -4.0959673    2.5394499 
C     4.7754004    3.4253613   -0.8506658 
C     3.1627545   -1.6364885    4.5263552 
H    -2.8208467    1.2022786    3.1336709 
H     0.6851738    3.5914595    2.2086466 
H    -0.4971540   -0.2283821    2.4893475 
H    -0.2713616    2.0339665    0.4654685 
H    -1.8990554    3.1433082    1.4741178 
H    -1.8104205    3.6805751    3.1957621 
H    -1.0007276    0.7963099    5.0549846 
H     1.1751011    2.2333727    4.4615744 
H    -1.3824807    1.9088763   -1.2354631 
H    -3.9159854   -0.6983007    2.4023165 
H     1.4040158    3.3172534   -0.3100416 
H     3.3937590    1.3957540    2.9523207 
H    -4.6104685   -0.6849671    0.0595882 
H    -1.0920881   -3.2457761    0.3208231 
H     4.4255551    0.2951330    0.4819647 
H     1.2073128   -2.1562133    1.7637224 
H    -3.0121764    3.3144129   -2.4755561 
H    -4.8937197   -2.6913022    3.5121302 
H     3.1556452    4.8282477   -1.1948235 
H     4.2143208    0.2070478    4.9826340 
H    -6.2203019    0.6929517   -1.2237654 
H    -2.0809515   -5.2479464    1.4394795 
H     6.1676571    1.8195381   -0.4132612 
H     2.0206276   -3.3380706    3.8109987 
H    -5.4424340    2.7136800   -2.4745109 
H    -3.9893951   -4.9717179    3.0323627 
H     5.5468171    4.0965630   -1.2416518 
H     3.5255564   -2.1548640    5.4199478 
