90
Energy =
C     1.6814913   -0.5641054   -2.6482702 
C     0.7105062   -1.6049805   -2.6839156 
C    -0.6573550   -1.3052950   -2.9397352 
H     0.9825931   -2.6127140   -2.3461449 
Pd    0.0873686   -0.1839207   -1.1425538 
P    -1.8033875   -0.0008656    0.2577670 
P     1.3515671    0.9826653    0.4659785 
H     1.4737482    0.3231830   -3.2662950 
H    -0.8668106   -0.4072953   -3.5419992 
C     5.8091348   -0.9227832   -1.4838232 
C     4.9065441   -1.9505833   -1.1652717 
C     3.5615090   -1.8477829   -1.5310303 
C     3.0901758   -0.7179818   -2.2395941 
C     4.0081478    0.3130903   -2.5435652 
C     5.3534571    0.2126462   -2.1694786 
H     6.8612860   -1.0057295   -1.1928923 
H     5.2518143   -2.8327462   -0.6173144 
H     2.8708489   -2.6505675   -1.2541232 
H     3.6611975    1.1991505   -3.0865012 
H     6.0487955    1.0202618   -2.4206797 
C    -3.8184280   -4.2200768   -2.9698056 
C    -3.9134126   -3.0553960   -3.7449948 
C    -2.8920466   -2.0980131   -3.7015533 
C    -1.7479458   -2.2952637   -2.8954310 
C    -1.6829427   -3.4593294   -2.0936629 
C    -2.7038173   -4.4121801   -2.1359946 
H    -4.6146897   -4.9706509   -3.0034816 
H    -4.7827898   -2.8937105   -4.3907678 
H    -2.9646527   -1.1955109   -4.3192459 
H    -0.8313222   -3.6116697   -1.4216707 
H    -2.6379907   -5.3056649   -1.5072308 
C    -1.5161036    0.4023219    3.3209676 
C     0.1752435    1.9129953    3.1951558 
C    -0.9116253    0.1689047    1.8820635 
C     0.0467258    1.3854868    1.7253673 
C    -1.3493057    1.9274825    3.5167476 
C    -0.3745045   -0.1022485    4.2057474 
C     0.6406276    0.7811765    4.1010616 
C    -2.8345413    1.4975691    0.0732782 
C    -2.9610007   -1.3987219    0.4253561 
C     2.0368101    2.6120769   -0.0004955 
C     2.6899646   -0.0042298    1.2332173 
C    -4.0028047    1.6808967    0.8442547 
C    -4.1004199   -1.4588386   -0.4056755 
C     2.6327568    3.4660444    0.9540781 
C     2.3864597   -1.3181462    1.6574567 
C    -2.4005145    2.5235010   -0.7910570 
C    -2.7033460   -2.4552225    1.3251883 
C     1.8985035    3.0545691   -1.3308796 
C     4.0108778    0.4682573    1.3599290 
C    -4.7201789    2.8802269    0.7503501 
C    -4.9796792   -2.5437132   -0.3138474 
C     3.0922253    4.7336311    0.5731155 
C     3.3685599   -2.1165088    2.2538277 
C    -3.1208719    3.7236387   -0.8782969 
C    -3.5881404   -3.5384724    1.4102928 
C     2.3580782    4.3242841   -1.7079208 
C     4.9948194   -0.3419959    1.9441752 
C    -4.2793664    3.9016107   -0.1078053 
C    -4.7285624   -3.5826956    0.5949324 
C     2.9575918    5.1628109   -0.7569702 
C     4.6753076   -1.6265727    2.4049039 
H    -2.5103597   -0.0369511    3.4888597 
H     0.7071427    2.8715244    3.2786616 
H    -0.3250184   -0.7668302    1.9136133 
H    -0.4910855    2.1801475    1.1689350 
H    -1.9424067    2.5387678    2.8136327 
H    -1.5591023    2.2388706    4.5528123 
H    -0.3598156   -1.0747669    4.7070329 
H     1.6483604    0.6832276    4.5132757 
H    -4.3502314    0.8845791    1.5114443 
H    -4.3039444   -0.6527729   -1.1179151 
H     2.7428802    3.1408839    1.9938641 
H     1.3816697   -1.7260351    1.5028726 
H    -1.4939804    2.3769346   -1.3918917 
H    -1.8196756   -2.4345258    1.9712237 
H     1.4221248    2.3994157   -2.0681938 
H     4.2825498    1.4592585    0.9864952 
H    -5.6263070    3.0196519    1.3489067 
H    -5.8608990   -2.5806843   -0.9615716 
H     3.5551765    5.3896428    1.3174897 
H     3.1173962   -3.1284084    2.5881519 
H    -2.7793857    4.5170945   -1.5508542 
H    -3.3877353   -4.3474586    2.1204009 
H     2.2470554    4.6588555   -2.7445036 
H     6.0191203    0.0344058    2.0312082 
H    -4.8444105    4.8368258   -0.1779328 
H    -5.4196351   -4.4289125    0.6647609 
H     3.3177352    6.1542699   -1.0502461 
H     5.4466014   -2.2533089    2.8642301 
