90
Energy =
C     0.5246452   -0.2683784   -3.1172416 
C     0.4548908   -1.6441007   -2.7424156 
C    -0.7516747   -2.1943633   -2.2391844 
H     1.3870519   -2.2192599   -2.6668184 
Pd   -0.0799554   -0.4385942   -0.9912771 
P    -1.0337149   -0.8880638    1.1257870 
P     0.4555686    1.7210420   -0.2323814 
H    -0.3960653    0.1920609   -3.5071551 
H    -1.6882198   -1.6763432   -2.4985947 
C     4.1398597    1.7848795   -4.2369309 
C     2.9324735    2.0557083   -4.8962194 
C     1.7587018    1.3890828   -4.5189743 
C     1.7776227    0.4200077   -3.4929114 
C     3.0026993    0.1546222   -2.8374911 
C     4.1693295    0.8336071   -3.2015591 
H     5.0548830    2.3135653   -4.5230859 
H     2.8998434    2.7971512   -5.7012530 
H     0.8151350    1.6183815   -5.0257512 
H     3.0300263   -0.5653572   -2.0118520 
H     5.1053013    0.6273943   -2.6721457 
C    -1.2993278   -6.1089673   -0.5435029 
C    -2.3165644   -5.1440769   -0.4719614 
C    -2.1354697   -3.8878938   -1.0590716 
C    -0.9243297   -3.5612929   -1.7128538 
C     0.0837248   -4.5492947   -1.7972794 
C    -0.1048753   -5.8100411   -1.2184455 
H    -1.4409980   -7.0938841   -0.0871580 
H    -3.2557144   -5.3715062    0.0427874 
H    -2.9292139   -3.1359584   -0.9923403 
H     1.0188172   -4.3390159   -2.3266627 
H     0.6825295   -6.5666880   -1.3000576 
C    -1.2671186    1.2301610    3.4026785 
C    -1.1426679    3.0626568    2.0691971 
C    -0.6339849    0.6698919    2.0662813 
C    -0.8300096    1.8732267    1.0982175 
C    -2.2368142    2.3234913    2.8967397 
C    -0.1303741    2.1077034    3.9280614 
C    -0.0412433    3.1801846    3.1145321 
C    -2.8548117   -1.0939179    1.0819941 
C    -0.3244749   -2.2479104    2.1203876 
C     0.2546195    3.1311703   -1.3693419 
C     2.0971368    1.8952174    0.5497026 
C    -3.5703579   -0.4015869    0.0792302 
C    -0.5023153   -2.3372487    3.5189150 
C     1.3533891    3.5738367   -2.1367761 
C     2.6236537    3.1569194    0.8975303 
C    -3.5551617   -1.9247675    1.9793138 
C     0.4482747   -3.2227398    1.4592731 
C    -1.0109183    3.7292580   -1.5606305 
C     2.8229006    0.7263850    0.8590417 
C    -4.9645417   -0.5128438   -0.0029569 
C     0.0740442   -3.3955800    4.2338856 
C     1.1899998    4.6169496   -3.0584330 
C     3.8603928    3.2414404    1.5491646 
C    -4.9496160   -2.0414593    1.8856402 
C     1.0167328   -4.2831990    2.1774094 
C    -1.1654780    4.7685384   -2.4867855 
C     4.0563532    0.8166407    1.5189977 
C    -5.6563777   -1.3333399    0.9019169 
C     0.8292704   -4.3716466    3.5642587 
C    -0.0648177    5.2172103   -3.2342643 
C     4.5754140    2.0736999    1.8624025 
H    -1.6730072    0.4769843    4.0924314 
H    -1.4385093    3.9882870    1.5541319 
H     0.4472720    0.5106731    2.2490956 
H    -1.7620654    1.7021032    0.5244305 
H    -3.0701807    1.9346239    2.2841015 
H    -2.6335512    2.9398311    3.7194923 
H     0.5544435    1.8230818    4.7321565 
H     0.7188291    3.9646521    3.1377311 
H    -3.0274933    0.2052356   -0.6568442 
H    -1.0872876   -1.5834426    4.0543385 
H     2.3353750    3.1044023   -2.0167834 
H     2.0698314    4.0694577    0.6529264 
H    -3.0136645   -2.4964839    2.7389267 
H     0.5969412   -3.1532513    0.3777911 
H    -1.8798314    3.3924333   -0.9857630 
H     2.4141755   -0.2530446    0.5794887 
H    -5.5097298    0.0287754   -0.7828178 
H    -0.0671763   -3.4580560    5.3178608 
H     2.0501298    4.9530015   -3.6461573 
H     4.2681113    4.2221666    1.8152411 
H    -5.4853413   -2.6934138    2.5833821 
H     1.6042567   -5.0401488    1.6481980 
H    -2.1476342    5.2334254   -2.6208774 
H     4.6142045   -0.0943134    1.7588248 
H    -6.7446810   -1.4299398    0.8321617 
H     1.2744066   -5.1986644    4.1271018 
H    -0.1878097    6.0329785   -3.9540141 
H     5.5419080    2.1458809    2.3718624 
