90
Energy =
C    -0.6007661   -2.3288125   -2.0433181 
C     0.6762720   -1.8738072   -2.4845050 
C     1.8139252   -2.0193264   -1.6451179 
H     0.7511621   -1.2572137   -3.3891142 
Pd    0.2124992   -0.8399765   -0.6060435 
P    -1.7627990   -0.2116394    0.5101427 
P     1.4438351    0.5843084    0.8092568 
H    -0.6134695   -3.1684365   -1.3313230 
H     1.7848108   -2.8411488   -0.9124303 
C    -4.3918174   -1.6418766   -3.9623010 
C    -4.2530475   -2.6299406   -2.9774636 
C    -3.0109928   -2.8481836   -2.3685704 
C    -1.8800105   -2.0839563   -2.7346320 
C    -2.0350869   -1.0911278   -3.7312031 
C    -3.2756050   -0.8740863   -4.3371189 
H    -5.3623438   -1.4694756   -4.4386474 
H    -5.1155746   -3.2339531   -2.6775191 
H    -2.9127177   -3.6151796   -1.5922309 
H    -1.1798989   -0.4750463   -4.0299222 
H    -3.3763439   -0.1007868   -5.1058727 
C     5.7842287   -0.5088382   -2.3232590 
C     4.6900716    0.1111221   -2.9520464 
C     3.3950245   -0.3748547   -2.7534318 
C     3.1614173   -1.4860899   -1.9100010 
C     4.2701984   -2.0948774   -1.2789146 
C     5.5695573   -1.6175387   -1.4918035 
H     6.7979642   -0.1278821   -2.4838438 
H     4.8493077    0.9813890   -3.5969789 
H     2.5542279    0.1261618   -3.2429456 
H     4.1068143   -2.9509338   -0.6152733 
H     6.4155453   -2.1092368   -1.0003558 
C    -1.7667887    1.0723072    3.3374933 
C     0.0876730    2.3434652    3.0011142 
C    -1.0423423    0.3498136    2.1359208 
C     0.0629781    1.3824026    1.7637869 
C    -1.4528026    2.5678932    3.0819985 
C    -0.8007859    0.8023390    4.4925529 
C     0.3086052    1.5402940    4.2756265 
C    -2.7174825    1.1760396   -0.1890816 
C    -2.9209189   -1.5781213    0.8685578 
C     2.2373192    2.0065774   -0.0257512 
C     2.7167028   -0.1765238    1.8726655 
C    -3.8065435    1.7560215    0.4991779 
C    -2.3979929   -2.7269292    1.5046009 
C     3.1669283    2.8365291    0.6354834 
C     2.3722954   -0.8414218    3.0700587 
C    -2.3295300    1.6950243   -1.4403768 
C    -4.2639128   -1.5736860    0.4441533 
C     1.8348242    2.3210238   -1.3387529 
C     4.0521667   -0.2229709    1.4155284 
C    -4.4910018    2.8408972   -0.0630845 
C    -3.2158057   -3.8383529    1.7387366 
C     3.6933267    3.9570515   -0.0208274 
C     3.3539437   -1.5131017    3.8097004 
C    -3.0184627    2.7805991   -1.9988973 
C    -5.0784975   -2.6910486    0.6823140 
C     2.3601794    3.4455869   -1.9894035 
C     5.0272081   -0.8996371    2.1612388 
C    -4.0977108    3.3533456   -1.3106816 
C    -4.5603005   -3.8207713    1.3299306 
C     3.2933495    4.2610421   -1.3321828 
C     4.6833542   -1.5425433    3.3589653 
H    -2.8148266    0.7798985    3.4977117 
H     0.7184183    3.2324293    2.8547194 
H    -0.5974530   -0.5895942    2.5141410 
H    -0.3364260    2.0004720    0.9317150 
H    -1.8884435    2.9714055    2.1511817 
H    -1.7430251    3.2022975    3.9349618 
H    -0.9603070    0.0501534    5.2711821 
H     1.2371026    1.5269860    4.8524817 
H    -4.1216492    1.3589193    1.4696491 
H    -1.3433866   -2.7583749    1.8052557 
H     3.4832681    2.6032665    1.6578484 
H     1.3425843   -0.8213597    3.4374953 
H    -1.4899871    1.2348102   -1.9726829 
H    -4.6721692   -0.7096093   -0.0879523 
H     1.1075169    1.6744807   -1.8447441 
H     4.3329163    0.2675171    0.4784305 
H    -5.3341926    3.2884133    0.4730306 
H    -2.8037776   -4.7222167    2.2364975 
H     4.4166859    4.5974226    0.4944603 
H     3.0789875   -2.0142045    4.7436646 
H    -2.7143088    3.1766579   -2.9731200 
H    -6.1214879   -2.6781315    0.3494578 
H     2.0461551    3.6818380   -3.0114184 
H     6.0596460   -0.9241503    1.7976231 
H    -4.6370527    4.2007868   -1.7463140 
H    -5.1989436   -4.6913042    1.5113214 
H     3.7096360    5.1366390   -1.8409851 
H     5.4481565   -2.0673498    3.9406106 
