90
Energy =
C     0.3827599   -0.4235918   -3.1703684 
C     0.4348437   -1.7477206   -2.6562989 
C    -0.7332383   -2.3524396   -2.1041250 
H     1.4078362   -2.2414583   -2.5344280 
Pd   -0.2342575   -0.4630686   -1.0216846 
P    -1.1694403   -0.8420498    1.1069523 
P     0.4765248    1.6605688   -0.2748235 
H    -0.5912551   -0.0757643   -3.5493329 
H    -1.7028169   -2.0220437   -2.5077730 
C     3.7200207    1.8824847   -4.6066995 
C     3.9140658    0.9439427   -3.5773743 
C     2.8408826    0.1798021   -3.1099821 
C     1.5450368    0.3470528   -3.6516324 
C     1.3614786    1.3037525   -4.6746198 
C     2.4416687    2.0543673   -5.1570170 
H     4.5629613    2.4765469   -4.9743494 
H     4.9065294    0.8123507   -3.1341716 
H     3.0026094   -0.5334509   -2.2957823 
H     0.3619250    1.4552089   -5.0963165 
H     2.2810334    2.7830112   -5.9583269 
C    -0.7920862   -6.2627123   -0.3137997 
C    -1.9355509   -5.7482031   -0.9417259 
C    -1.9146874   -4.4612227   -1.4943931 
C    -0.7444534   -3.6708030   -1.4439999 
C     0.3898916   -4.1905519   -0.7766728 
C     0.3670372   -5.4736580   -0.2240707 
H    -0.8058996   -7.2691833    0.1167243 
H    -2.8459090   -6.3531382   -1.0076710 
H    -2.8067017   -4.0685408   -1.9956552 
H     1.2916841   -3.5763038   -0.6775484 
H     1.2529608   -5.8585502    0.2907042 
C    -0.5995613    0.9583368    3.5575538 
C    -0.4912797    2.9083294    2.3970178 
C    -0.3216330    0.4956192    2.0758702 
C    -0.5275261    1.8146554    1.2748339 
C    -1.4941359    2.2063997    3.3622498 
C     0.7234616    1.6376543    3.9144112 
C     0.7966967    2.7800674    3.2003538 
C    -2.9629900   -0.5165122    1.2445976 
C    -0.8484368   -2.4144689    1.9712464 
C     0.1821079    3.1448225   -1.2906189 
C     2.2375971    1.6978364    0.2227998 
C    -3.6499102   -0.7080457    2.4631519 
C     0.3881746   -2.6335664    2.6170812 
C    -1.0342229    3.8571024   -1.2012500 
C     2.9079457    0.4729005    0.4196746 
C    -3.6470139    0.0226777    0.1359699 
C    -1.8010628   -3.4543038    1.9269620 
C     1.1447134    3.5330876   -2.2476006 
C     2.9151076    2.9089236    0.4727525 
C    -5.0023294   -0.3585865    2.5650142 
C     0.6507788   -3.8633212    3.2342682 
C    -1.2717335    4.9508152   -2.0440457 
C     4.2349669    0.4568814    0.8704962 
C    -5.0003737    0.3748757    0.2449161 
C    -1.5301356   -4.6806412    2.5459615 
C     0.8987261    4.6288673   -3.0853464 
C     4.2447355    2.8884103    0.9133690 
C    -5.6768973    0.1846740    1.4587542 
C    -0.3085846   -4.8868386    3.2034605 
C    -0.3059843    5.3400118   -2.9856695 
C     4.9044762    1.6652239    1.1150963 
H    -0.9513818    0.1675462    4.2359504 
H    -0.7554126    3.9148837    2.0406435 
H     0.7405045    0.1906357    2.0112585 
H    -1.5623474    1.8159263    0.8764312 
H    -2.4738360    1.9885409    2.9006557 
H    -1.6389815    2.7658993    4.3005026 
H     1.5052660    1.1895520    4.5347464 
H     1.6444612    3.4664578    3.1387112 
H    -3.1281177   -1.1348572    3.3263244 
H     1.1483304   -1.8457636    2.6477503 
H    -1.7995555    3.5666346   -0.4742086 
H     2.3817882   -0.4676240    0.2091291 
H    -3.1120148    0.1628289   -0.8119407 
H    -2.7552967   -3.3047607    1.4124535 
H     2.0873967    2.9831012   -2.3365574 
H     2.4046510    3.8654287    0.3187793 
H    -5.5328556   -0.5099678    3.5107104 
H     1.6067391   -4.0206257    3.7444591 
H    -2.2132347    5.5035815   -1.9615325 
H     4.7492524   -0.4979415    1.0214252 
H    -5.5273068    0.7916582   -0.6195074 
H    -2.2755551   -5.4807769    2.5062135 
H     1.6541222    4.9207557   -3.8218872 
H     4.7683429    3.8313155    1.1022414 
H    -6.7344141    0.4552911    1.5436997 
H    -0.1014828   -5.8465196    3.6878538 
H    -0.4940658    6.1969591   -3.6405618 
H     5.9438731    1.6553184    1.4591870 
