90
Energy =
C     0.6545210   -0.7267041   -3.0146303 
C     0.5717613   -2.0171275   -2.4174467 
C    -0.6800281   -2.5203100   -1.9644349 
H     1.4917309   -2.5527795   -2.1521569 
Pd   -0.1880268   -0.5726265   -0.9622715 
P    -1.1791735   -0.7563296    1.1703684 
P     0.5445853    1.5942610   -0.4033421 
H    -0.2451660   -0.3700587   -3.5395908 
H    -1.5812406   -2.1455654   -2.4748649 
C     4.2513132    1.3143668   -4.2019377 
C     4.3266269    0.2524965   -3.2853620 
C     3.1664707   -0.4108884   -2.8766155 
C     1.9024687   -0.0367460   -3.3900168 
C     1.8395648    1.0488829   -4.2930181 
C     3.0023978    1.7164061   -4.6971083 
H     5.1625287    1.8310701   -4.5201216 
H     5.2958176   -0.0524872   -2.8786744 
H     3.2441514   -1.2222177   -2.1456519 
H     0.8673271    1.3617739   -4.6899689 
H     2.9330864    2.5471503   -5.4070360 
C    -1.2147882   -6.3155594   -0.0160892 
C    -2.2527980   -5.7455214   -0.7670720 
C    -2.0773775   -4.4932632   -1.3692519 
C    -0.8545587   -3.7952176   -1.2466522 
C     0.1706090   -4.3678826   -0.4572859 
C    -0.0067909   -5.6160298    0.1449769 
H    -1.3486999   -7.2952177    0.4538654 
H    -3.2007404   -6.2796661   -0.8897278 
H    -2.8867860   -4.0575242   -1.9661879 
H     1.1089175   -3.8238712   -0.3038547 
H     0.7961825   -6.0434623    0.7537091 
C    -0.1609762    0.9193379    3.5740719 
C     0.0968364    2.8542047    2.4116791 
C    -0.0797865    0.4443475    2.0716657 
C    -0.1819166    1.7904288    1.2954908 
C    -0.8968791    2.2757650    3.4635494 
C     1.2675435    1.4153298    3.8065316 
C     1.4263046    2.5466683    3.0874968 
C    -2.8881093   -0.1302692    1.3454873 
C    -1.1175372   -2.3332339    2.0822103 
C    -0.1766174    2.9811316   -1.3527261 
C     2.3577946    1.8410325   -0.3678671 
C    -3.5826905   -0.2274084    2.5706283 
C     0.0105866   -2.6880642    2.8526583 
C    -1.0396143    2.7000627   -2.4300471 
C     3.1472132    0.9786852    0.4266779 
C    -3.4832283    0.5403653    0.2572299 
C    -2.1885621   -3.2448592    1.9614394 
C     0.0583171    4.3246478   -0.9854177 
C     2.9941930    2.8113052   -1.1671778 
C    -4.8544961    0.3452555    2.6993825 
C     0.0513369   -3.9233729    3.5129222 
C    -1.6555574    3.7432377   -3.1361954 
C     4.5386418    1.1223683    0.4607651 
C    -4.7547492    1.1159146    0.3934289 
C    -2.1405198   -4.4761915    2.6247623 
C    -0.5587510    5.3641298   -1.6934401 
C     4.3896557    2.9421298   -1.1376715 
C    -5.4395056    1.0183176    1.6136899 
C    -1.0242591   -4.8169094    3.4034163 
C    -1.4144146    5.0749917   -2.7688130 
C     5.1633756    2.1093575   -0.3181521 
H    -0.5520137    0.1731928    4.2812102 
H    -0.0715724    3.8915617    2.0886666 
H     0.9157641   -0.0081924    1.9129276 
H    -1.2425660    1.9373200    1.0061328 
H    -1.9343637    2.1963575    3.0931635 
H    -0.8801827    2.8354149    4.4127432 
H     2.0377765    0.8594830    4.3499165 
H     2.3500029    3.1116105    2.9374636 
H    -3.1296148   -0.7537594    3.4177552 
H     0.8573618   -2.0010190    2.9509886 
H    -1.2291038    1.6576802   -2.7094863 
H     2.6752584    0.1882248    1.0185437 
H    -2.9425686    0.6113674   -0.6949005 
H    -3.0631971   -2.9876807    1.3553886 
H     0.7304184    4.5589516   -0.1530937 
H     2.4071464    3.4555249   -1.8272493 
H    -5.3916322    0.2675087    3.6502719 
H     0.9247030   -4.1852550    4.1191344 
H    -2.3233594    3.5155190   -3.9734257 
H     5.1377839    0.4566248    1.0905652 
H    -5.2114187    1.6364245   -0.4545472 
H    -2.9760503   -5.1758020    2.5254810 
H    -0.3716573    6.4036654   -1.4051238 
H     4.8718942    3.6958316   -1.7682617 
H    -6.4340076    1.4638254    1.7198109 
H    -0.9908850   -5.7806776    3.9215909 
H    -1.8940595    5.8905121   -3.3198206 
H     6.2526285    2.2177278   -0.2960708 
