90
Energy =
C     1.7845259   -0.4939304   -2.5446104 
C     0.8399186   -1.5513425   -2.6454336 
C    -0.5403111   -1.2646843   -2.8530618 
H     1.1412926   -2.5766127   -2.3973252 
Pd    0.1956999   -0.2766926   -0.9839511 
P    -1.8020506   -0.0760101    0.2416364 
P     1.3354598    0.9036560    0.7116286 
H     1.5225535    0.4483089   -3.0501937 
H    -0.7790449   -0.3359105   -3.3941068 
C     5.9916301   -0.8203574   -1.6994487 
C     5.1514887   -1.9221077   -1.4681952 
C     3.7791894   -1.8312182   -1.7223974 
C     3.2179244   -0.6385193   -2.2346662 
C     4.0748582    0.4651122   -2.4569887 
C     5.4460981    0.3770928   -2.1887387 
H     7.0654207   -0.8951931   -1.4990636 
H     5.5679477   -2.8561130   -1.0775452 
H     3.1400650   -2.6954338   -1.5152262 
H     3.6565806    1.4003335   -2.8444034 
H     6.0917127    1.2425056   -2.3702026 
C    -3.6449740   -4.2357390   -3.0195511 
C    -3.7713826   -3.0302863   -3.7247480 
C    -2.7672607   -2.0576257   -3.6380293 
C    -1.6096106   -2.2795135   -2.8582827 
C    -1.5126388   -3.4860698   -2.1256763 
C    -2.5166285   -4.4541251   -2.2111774 
H    -4.4277283   -4.9981470   -3.0872075 
H    -4.6521252   -2.8480294   -4.3493254 
H    -2.8650657   -1.1217449   -4.2001068 
H    -0.6505632   -3.6594922   -1.4723469 
H    -2.4263114   -5.3809042   -1.6358944 
C    -1.9678049    0.9004143    3.1605442 
C    -0.2053900    2.3310621    3.0334064 
C    -1.1454412    0.3597134    1.9272768 
C    -0.1139860    1.5042096    1.7044702 
C    -1.7618260    2.4329178    3.0634750 
C    -1.0318905    0.5909275    4.3299599 
C     0.0249849    1.4255508    4.2354183 
C    -2.8756135    1.3162766   -0.2604376 
C    -2.8809350   -1.5323928    0.4464672 
C     2.1853121    2.4414737    0.1985731 
C     2.5477236   -0.0407735    1.6994366 
C    -2.4226198    2.2031167   -1.2580320 
C    -2.5051060   -2.5697359    1.3283074 
C     3.1142618    3.0891296    1.0396326 
C     2.1774382   -0.7777937    2.8453125 
C    -4.1057664    1.5662539    0.3865192 
C    -4.0438832   -1.6796765   -0.3385255 
C     1.8458957    3.0227041   -1.0394202 
C     3.8776185   -0.1191705    1.2295643 
C    -3.1824297    3.3311536   -1.6002175 
C    -3.3011875   -3.7155355    1.4481475 
C     3.6991959    4.2969379    0.6363013 
C     3.1264436   -1.5571277    3.5197145 
C    -4.8629500    2.6917599    0.0385634 
C    -4.8328738   -2.8301212   -0.2148874 
C     2.4283986    4.2343078   -1.4359156 
C     4.8197089   -0.9007227    1.9106377 
C    -4.4015235    3.5754931   -0.9514668 
C    -4.4686846   -3.8458035    0.6805774 
C     3.3588320    4.8695066   -0.5996352 
C     4.4494138   -1.6201327    3.0559591 
H    -2.9962112    0.5190787    3.2390967 
H     0.3611307    3.2731992    3.0027651 
H    -0.6328423   -0.5727450    2.2252964 
H    -0.5344575    2.1803307    0.9299216 
H    -2.1932724    2.8911597    2.1561925 
H    -2.1334526    2.9568271    3.9587182 
H    -1.1643625   -0.2410985    5.0283235 
H     0.9270258    1.4254974    4.8531712 
H    -1.4702198    2.0010316   -1.7636977 
H    -1.5910827   -2.4888793    1.9263454 
H     3.3861238    2.6444049    2.0028549 
H     1.1564403   -0.7273237    3.2306466 
H    -4.4719568    0.8781545    1.1556625 
H    -4.3344448   -0.8965017   -1.0451337 
H     1.1251207    2.5165861   -1.6927475 
H     4.1820527    0.4331378    0.3346883 
H    -2.8245186    4.0160252   -2.3757008 
H    -3.0081639   -4.5088698    2.1435399 
H     4.4233681    4.7937287    1.2902057 
H     2.8300661   -2.1133011    4.4151879 
H    -5.8166021    2.8815032    0.5418049 
H    -5.7326814   -2.9344188   -0.8289196 
H     2.1617534    4.6791198   -2.4002595 
H     5.8467800   -0.9470012    1.5351402 
H    -4.9974902    4.4540014   -1.2193675 
H    -5.0898351   -4.7422893    0.7756360 
H     3.8208115    5.8119612   -0.9112552 
H     5.1889343   -2.2284480    3.5867965 
