105
Energy =
C    -0.8710387   -2.4423677    0.8778586 
C     0.1127090   -2.6277304   -0.1376081 
C     1.4868650   -2.4290987    0.1115942 
H    -0.2265646   -2.8199180   -1.1632325 
Pd    0.2033864   -0.5195891    0.5152930 
P     1.7553839    1.1869049   -0.0037973 
P    -1.3503965    0.8027361    1.6778241 
H    -0.5665563   -2.6234827    1.9193587 
H     1.8041388   -2.3902309    1.1651736 
C    -5.0412828   -3.0913877    0.0390709 
C    -4.2401346   -2.4074451   -0.8898387 
C    -2.8867479   -2.1769994   -0.6179515 
C    -2.3098721   -2.6223591    0.5937810 
C    -3.1301744   -3.2894560    1.5275047 
C    -4.4813168   -3.5289260    1.2481768 
H    -6.0990689   -3.2746534   -0.1759845 
H    -4.6725892   -2.0494342   -1.8296116 
H    -2.2738653   -1.6273875   -1.3417401 
H    -2.7009461   -3.6308962    2.4750083 
H    -5.1007932   -4.0536977    1.9824456 
C     4.7231968   -3.2607566   -2.5860456 
C     4.9721504   -2.7336577   -1.3096499 
C     3.9067906   -2.4516089   -0.4503307 
C     2.5683380   -2.6793542   -0.8480617 
C     2.3349666   -3.2033690   -2.1422156 
C     3.4009757   -3.4957652   -2.9970277 
H     5.5563814   -3.4896280   -3.2582070 
H     5.9992287   -2.5420770   -0.9845139 
H     4.1082249   -2.0497383    0.5485459 
H     1.3139682   -3.4094265   -2.4770445 
H     3.2014200   -3.9142294   -3.9888649 
O    -1.8087623    0.2543286   -3.0693136 
O     0.0399004    1.5654782   -3.4580663 
N    -1.1572864    1.7452147   -1.5111547 
C    -0.3965033    2.9168044   -1.0329107 
C    -2.0899934    2.1447632    0.6071028 
C    -1.0991842    3.2913018    0.2966331 
C    -2.4170124    1.5695455   -0.7861119 
C     1.1181254    2.6733217   -0.9474910 
C    -0.9024076    1.2127200   -2.7569716 
C    -0.6271340    1.6417262    3.1423550 
C    -2.8316616    0.0069390    2.4402942 
C     2.5849659    1.8058953    1.5141814 
C     3.1546494    0.7454779   -1.1162447 
C    -1.7565357   -0.4134855   -4.4031476 
C    -1.1675441    2.8362726    3.6622916 
C    -2.6790429   -0.6425616    3.6842829 
C     0.4264143    1.0040593    3.8268321 
C    -4.1059484    0.0381694    1.8387635 
C     3.3647603    0.8756882    2.2377643 
C     2.8215967    0.1327517   -2.3426023 
C     2.4788497    3.1239848    1.9937009 
C     4.4937054    1.0944982   -0.8542269 
C    -0.4325922   -1.1779937   -4.5433069 
C    -2.9443830   -1.3789441   -4.3446694 
C    -1.9564042    0.6331221   -5.5068588 
C    -0.6450157    3.3896659    4.8386479 
C    -3.7827353   -1.2193368    4.3250706 
C     0.9282736    1.5466089    5.0172083 
C    -5.2068409   -0.5416159    2.4849384 
C     0.3981929    2.7433807    5.5199208 
C    -5.0520098   -1.1635289    3.7309642 
C     4.0514846    1.2669215    3.3924381 
C     3.8107773   -0.1016587   -3.3030490 
C     3.1510497    3.5089450    3.1635442 
C     5.4828487    0.8417458   -1.8163750 
C     3.9460949    2.5875227    3.8579841 
C     5.1439066    0.2503850   -3.0413685 
H    -0.5157332    3.7420473   -1.7621913 
H    -2.9953776    2.5137743    1.1161412 
H    -0.3756309    3.4583310    1.1113358 
H    -1.6657561    4.2291949    0.1748665 
H    -3.2394839    2.1451320   -1.2582399 
H    -2.7069318    0.5080573   -0.7790595 
H     1.6212999    3.5767773   -0.5614831 
H     1.4865416    2.5132544   -1.9717892 
H    -2.0039273    3.3348635    3.1613640 
H    -1.6986096   -0.6752645    4.1710786 
H     0.8538755    0.0802674    3.4205821 
H    -4.2625143    0.5100194    0.8656380 
H     3.4428208   -0.1581208    1.8818164 
H     1.7826196   -0.1380660   -2.5543133 
H     1.8758762    3.8661796    1.4621443 
H     4.7674183    1.5782986    0.0881536 
H     0.4168240   -0.4864190   -4.6415149 
H    -0.2733207   -1.8227092   -3.6615774 
H    -0.4749302   -1.8228936   -5.4375756 
H    -3.8735498   -0.8305878   -4.1160122 
H    -2.7898823   -2.1540970   -3.5763322 
H    -3.0643714   -1.8794333   -5.3196243 
H    -2.0224218    0.1233483   -6.4831611 
H    -2.8975626    1.1850020   -5.3419771 
H    -1.1187428    1.3451414   -5.5352110 
H    -1.0645349    4.3211787    5.2324944 
H    -3.6499214   -1.7056643    5.2970479 
H     1.7432239    1.0403129    5.5429061 
H    -6.1894917   -0.5081304    2.0040102 
H     0.7969904    3.1739533    6.4441738 
H    -5.9160718   -1.6085759    4.2347178 
H     4.6664123    0.5397131    3.9328659 
H     3.5399346   -0.5714671   -4.2534961 
H     3.0544507    4.5365710    3.5278591 
H     6.5212019    1.1208818   -1.6088164 
H     4.4777908    2.8945372    4.7643690 
H     5.9181098    0.0615091   -3.7921493 
