105
Energy =
C    -0.0497044   -1.9270166    3.1439277 
C     0.8192505   -2.5556208    2.2160853 
C     2.0998509   -2.0138634    1.9264528 
H     0.4489490   -3.3990152    1.6210364 
Pd    0.4560471   -0.5252773    1.4234564 
P     1.7416707    0.7701309   -0.0667519 
P    -1.6193054    0.5326287    1.4129263 
H     0.4224092   -1.2664471    3.8867559 
H     2.5620268   -1.3767717    2.6953455 
C    -3.9288151   -3.3133896    4.3736891 
C    -3.3108733   -3.8898777    3.2512273 
C    -2.0613887   -3.4356108    2.8215822 
C    -1.3924624   -2.4005105    3.5161792 
C    -2.0327535   -1.8214839    4.6364017 
C    -3.2883178   -2.2719210    5.0605478 
H    -4.9070676   -3.6741566    4.7075933 
H    -3.8102348   -4.6956119    2.7043804 
H    -1.6035131   -3.8935649    1.9398153 
H    -1.5323470   -1.0165331    5.1846860 
H    -3.7623267   -1.8150052    5.9353150 
C     4.9389195   -3.7065796   -0.8274585 
C     3.5725215   -4.0025143   -0.9719526 
C     2.6372784   -3.4566957   -0.0892734 
C     3.0448345   -2.5962617    0.9575079 
C     4.4212809   -2.3074941    1.0888546 
C     5.3588206   -2.8605564    0.2083295 
H     5.6701107   -4.1364155   -1.5197340 
H     3.2367330   -4.6606192   -1.7799568 
H     1.5770846   -3.6962646   -0.2218123 
H     4.7544910   -1.6390734    1.8900995 
H     6.4206520   -2.6235623    0.3303134 
O    -1.0311050    1.7272728   -3.9336073 
O     0.6059216    3.2924431   -3.4820794 
N    -0.5540513    2.2495862   -1.8095891 
C     0.0480760    3.0714296   -0.7591076 
C    -1.9213117    1.8351432    0.1008911 
C    -1.0356080    3.0873734    0.3380580 
C    -1.6069349    1.3506552   -1.3395901 
C     1.4485045    2.5974348   -0.3182553 
C    -0.2532978    2.4902782   -3.1332599 
C    -2.0200924    1.4620835    2.9451452 
C    -2.9635599   -0.6856065    1.1083741 
C     3.4851800    0.8611788    0.5258383 
C     1.7774507    0.0552758   -1.7526117 
C    -1.1539453    2.0202940   -5.3872061 
C    -3.2227996    2.1882055    3.0917727 
C    -2.7802240   -1.5928538    0.0399909 
C    -1.0546895    1.5262794    3.9699904 
C    -4.1456325   -0.7559940    1.8699465 
C     3.6800754    1.2634474    1.8658277 
C     1.1126993   -1.1676959   -1.9690804 
C     4.6034398    0.5687654   -0.2748623 
C     2.4671279    0.6656661   -2.8224577 
C     0.1812831    1.7643051   -6.0950599 
C    -2.2176040    1.0109829   -5.8304699 
C    -1.6408510    3.4640073   -5.5675817 
C    -3.4629937    2.9289237    4.2566614 
C    -3.7828999   -2.5116605   -0.2932920 
C    -1.2949487    2.2715117    5.1330008 
C    -5.1413162   -1.6859555    1.5388975 
C    -2.5034246    2.9672976    5.2807088 
C    -4.9711361   -2.5539168    0.4514402 
C     4.9730607    1.3900526    2.3881338 
C     1.1478493   -1.7856118   -3.2257805 
C     5.8982174    0.7033616    0.2509173 
C     2.5128499    0.0372979   -4.0725234 
C     6.0870561    1.1142729    1.5770466 
C     1.8600791   -1.1891351   -4.2751957 
H     0.1963701    4.0848815   -1.1692519 
H    -2.9901865    2.0913925    0.1854993 
H    -0.6033311    3.1214228    1.3529075 
H    -1.6549888    3.9920284    0.2265809 
H    -2.4849308    1.4123238   -2.0018030 
H    -1.2560346    0.3005497   -1.3658300 
H     1.7395518    3.0937363    0.6244383 
H     2.1848060    2.9052640   -1.0814898 
H    -3.9772185    2.1826532    2.2978740 
H    -1.8430418   -1.5859099   -0.5281158 
H    -0.1047201    0.9945466    3.8440579 
H    -4.2856393   -0.1079493    2.7386773 
H     2.8123753    1.4752204    2.5046624 
H     0.5736993   -1.6329004   -1.1350770 
H     4.4723054    0.2153813   -1.3012267 
H     2.9583664    1.6347329   -2.6949732 
H     0.9608469    2.4383213   -5.7106336 
H     0.4972353    0.7200810   -5.9421640 
H     0.0572333    1.9363252   -7.1780697 
H    -3.1669040    1.1873127   -5.2969779 
H    -1.8801351   -0.0175771   -5.6179657 
H    -2.3998871    1.1060957   -6.9139641 
H    -1.8506377    3.6505959   -6.6345675 
H    -2.5725793    3.6272443   -4.9986923 
H    -0.8783335    4.1813617   -5.2273158 
H    -4.4012219    3.4832173    4.3626335 
H    -3.6317323   -3.2009446   -1.1305811 
H    -0.5360429    2.3121158    5.9211615 
H    -6.0514121   -1.7363099    2.1452155 
H    -2.6942533    3.5495535    6.1880081 
H    -5.7549276   -3.2741397    0.1952256 
H     5.1131348    1.7050232    3.4274161 
H     0.6277440   -2.7364145   -3.3814952 
H     6.7616341    0.4711077   -0.3809567 
H     3.0509504    0.5162748   -4.8962071 
H     7.0987752    1.2150054    1.9830474 
H     1.8988640   -1.6730644   -5.2566477 
