105
Energy =
C    -0.9853385   -2.6593385    0.3431644 
C    -0.0561596   -2.5307203   -0.7225874 
C     1.3443130   -2.5166795   -0.4998425 
H    -0.4293181   -2.2978258   -1.7280151 
Pd    0.3033266   -0.8171226    0.6010897 
P     2.0717839    0.7343695    0.4442867 
P    -1.2288696    0.5846069    1.6783211 
H    -0.6327117   -3.1478224    1.2643329 
H     1.7252633   -3.0298200    0.3961078 
C    -5.2488012   -2.8207165   -0.2044454 
C    -4.4473879   -2.1908167   -1.1706837 
C    -3.0619853   -2.1117090   -0.9975338 
C    -2.4458425   -2.6641089    0.1508269 
C    -3.2671992   -3.2753883    1.1235543 
C    -4.6529325   -3.3587621    0.9448202 
H    -6.3327641   -2.8845694   -0.3442076 
H    -4.9058299   -1.7573761   -2.0652951 
H    -2.4577711   -1.6090013   -1.7593638 
H    -2.8086649   -3.7013571    2.0222787 
H    -5.2698373   -3.8421164    1.7087716 
C     4.1897213   -1.9687150   -3.6790169 
C     2.9508489   -1.3087955   -3.7269468 
C     2.0262527   -1.4834091   -2.6937332 
C     2.3188572   -2.3119712   -1.5880077 
C     3.5731704   -2.9575391   -1.5449773 
C     4.4959159   -2.7922360   -2.5850051 
H     4.9177607   -1.8335086   -4.4855880 
H     2.7032376   -0.6448169   -4.5613655 
H     1.0760826   -0.9472675   -2.7369088 
H     3.8228872   -3.5962862   -0.6915358 
H     5.4632479   -3.3021783   -2.5356962 
O    -1.7417262    0.2488858   -3.2706029 
O     0.3104383    1.2217017   -3.6490456 
N    -0.7221791    1.3668242   -1.6042855 
C     0.2484319    2.3698109   -1.1172172 
C    -1.6151699    1.9848417    0.4992772 
C    -0.4116192    2.9096492    0.1832372 
C    -1.9982211    1.4109032   -0.8803431 
C     1.6901684    1.8127350   -1.0112516 
C    -0.6453455    0.9639589   -2.9245826 
C    -0.6468669    1.3319326    3.2520830 
C    -2.9006328   -0.0216067    2.1971802 
C     2.5259013    1.8919776    1.8163822 
C     3.7381869    0.0220269    0.1087845 
C    -1.9667868   -0.1606030   -4.6919051 
C    -0.0453253    0.4697239    4.1932836 
C    -2.9933338   -0.8166638    3.3608137 
C    -0.8668606    2.6795153    3.5975446 
C    -4.0869735    0.3045158    1.5090223 
C     2.7617055    1.3469562    3.0934612 
C     4.2233077   -0.9476426    1.0114207 
C     2.7430423    3.2709870    1.6171478 
C     4.5673234    0.4639349   -0.9380212 
C    -2.0280506    1.0943547   -5.5714606 
C    -0.8702403   -1.1382308   -5.1307772 
C    -3.3303489   -0.8549528   -4.6264081 
C     0.2917722    0.9344008    5.4700921 
C    -4.2373009   -1.2354668    3.8458905 
C    -0.4894844    3.1513529    4.8629541 
C    -5.3306265   -0.1284519    1.9916317 
C     0.0750446    2.2789171    5.8048236 
C    -5.4129555   -0.8878424    3.1652279 
C     3.2004017    2.1578973    4.1465496 
C     5.5281062   -1.4393881    0.8917591 
C     3.1700564    4.0843358    2.6764473 
C     5.8681741   -0.0459361   -1.0647817 
C     3.4012470    3.5306130    3.9429461 
C     6.3558871   -0.9851286   -0.1463851 
H     0.3119804    3.1793942   -1.8683538 
H    -2.4514292    2.5557773    0.9361555 
H     0.2983338    2.9799884    1.0209617 
H    -0.7920123    3.9291637    0.0060106 
H    -2.7211994    2.0803243   -1.3888291 
H    -2.4448653    0.4062353   -0.8383982 
H     2.4081160    2.6504142   -1.0379339 
H     1.8828589    1.2108282   -1.9143920 
H     0.1664028   -0.5704529    3.9172657 
H    -2.0907551   -1.0963255    3.9115098 
H    -1.3401803    3.3692794    2.8919441 
H    -4.0700904    0.9065103    0.5977666 
H     2.5983406    0.2794628    3.2688029 
H     3.5736914   -1.3243700    1.8098520 
H     2.5884435    3.7293832    0.6359596 
H     4.2136688    1.2002562   -1.6648219 
H    -2.7976921    1.7889693   -5.1932389 
H    -1.0558981    1.6086807   -5.5974006 
H    -2.3014847    0.8040022   -6.5999673 
H    -0.7970404   -1.9810133   -4.4220307 
H     0.1054103   -0.6363669   -5.1962724 
H    -1.1264009   -1.5486478   -6.1223805 
H    -3.6500617   -1.1405812   -5.6420591 
H    -3.2787178   -1.7689561   -4.0122548 
H    -4.0880208   -0.1779171   -4.1973519 
H     0.7443266    0.2514489    6.1964987 
H    -4.2856527   -1.8363525    4.7598960 
H    -0.6523703    4.2035339    5.1177283 
H    -6.2394008    0.1366764    1.4419601 
H     0.3525432    2.6495014    6.7968488 
H    -6.3871697   -1.2131766    3.5438643 
H     3.3745912    1.7162732    5.1326749 
H     5.8957097   -2.1856909    1.6037186 
H     3.3304000    5.1537774    2.5046515 
H     6.5017396    0.2976149   -1.8888577 
H     3.7381179    4.1661336    4.7681942 
H     7.3753640   -1.3716200   -0.2454123 
