105
Energy =
C    -0.9086135   -2.5870880    1.2726041 
C    -0.0145972   -2.8021907    0.1869310 
C     1.3677748   -2.5367131    0.3018034 
H    -0.4341899   -3.0724989   -0.7900142 
Pd    0.0867804   -0.6508132    0.6763782 
P     1.4933198    1.0453641   -0.1601932 
P    -1.4355761    0.7423176    1.8146531 
H    -0.4980743   -2.6593888    2.2906930 
H     1.7730701   -2.4311785    1.3200990 
C    -5.1036951   -3.4731836    0.9440286 
C    -4.4213912   -2.9194394   -0.1518357 
C    -3.0596070   -2.6119649   -0.0546885 
C    -2.3566055   -2.8442653    1.1513428 
C    -3.0571077   -3.3868913    2.2503153 
C    -4.4156924   -3.7067556    2.1440566 
H    -6.1678474   -3.7185423    0.8635156 
H    -4.9491664   -2.7245944   -1.0913234 
H    -2.5533972   -2.1719523   -0.9214439 
H    -2.5272266   -3.5673764    3.1912833 
H    -4.9403910   -4.1331661    3.0049892 
C     4.3968121   -3.5270195   -2.5760230 
C     4.7390193   -2.9385262   -1.3489353 
C     3.7383641   -2.5951873   -0.4352150 
C     2.3737249   -2.8268205   -0.7275406 
C     2.0439293   -3.4016652   -1.9786486 
C     3.0459457   -3.7538242   -2.8872720 
H     5.1793244   -3.8068939   -3.2886859 
H     5.7885528   -2.7486971   -1.1040461 
H     4.0109262   -2.1458386    0.5263305 
H     0.9987022   -3.5969572   -2.2373727 
H     2.7729686   -4.2137843   -3.8427263 
O    -0.6439764    0.6916072   -3.4791826 
O    -2.3172538   -0.6841132   -2.7108148 
N    -1.6031213    1.1047764   -1.4751637 
C    -0.8802227    2.3823607   -1.3038526 
C    -2.3540990    1.8474366    0.6237055 
C    -1.4757643    2.9617805    0.0086666 
C    -2.7733971    1.0141325   -0.5973678 
C     0.6516694    2.2520214   -1.3221461 
C    -1.5762269    0.2851447   -2.5868783 
C    -2.7878087   -0.0298462    2.8080120 
C    -0.6958736    1.8572424    3.0724399 
C     2.3081950    1.9975499    1.1813528 
C     2.9099060    0.5897087   -1.2521353 
C    -0.5848140    0.0915007   -4.8471687 
C    -2.4630840   -0.5457474    4.0810737 
C    -1.2859361    3.0930887    3.4098339 
C    -4.1228152   -0.1022904    2.3629343 
C     0.4245322    1.4063450    3.7969144 
C     3.1765105    1.2692598    2.0260726 
C     2.5976303   -0.1473978   -2.4132299 
C     2.1358166    3.3751603    1.4042552 
C     4.2356675    1.0150536   -1.0419864 
C     0.5307102    0.9054497   -5.5097919 
C    -0.2214311   -1.3973965   -4.7602501 
C    -1.9295882    0.3198306   -5.5489019 
C    -3.4576068   -1.0898808    4.9028828 
C    -0.7504659    3.8678316    4.4469549 
C    -5.1141399   -0.6502184    3.1896824 
C     0.9417226    2.1726641    4.8496475 
C    -4.7886419   -1.1363477    4.4624925 
C     0.3589262    3.4064442    5.1717548 
C     3.8850394    1.9153145    3.0450937 
C     3.5852372   -0.4256413   -3.3632668 
C     2.8258458    4.0153258    2.4450436 
C     5.2262471    0.7183318   -1.9909461 
C     3.7091237    3.2920333    3.2575823 
C     4.9041747    0.0060808   -3.1538052 
H    -1.1261491    3.0531720   -2.1502543 
H    -3.2271070    2.2622891    1.1531377 
H    -0.6902519    3.3107468    0.6988841 
H    -2.1123960    3.8329035   -0.2179996 
H    -3.6694948    1.4528491   -1.0826144 
H    -2.9958987   -0.0407479   -0.3762876 
H     1.1097082    3.2469437   -1.1811349 
H     0.9533689    1.9087031   -2.3224204 
H    -1.4319248   -0.4980522    4.4471472 
H    -2.1717172    3.4531125    2.8767757 
H    -4.4136933    0.2612571    1.3745041 
H     0.8920661    0.4516995    3.5306624 
H     3.3057356    0.1912114    1.8707690 
H     1.5690101   -0.4839073   -2.5780031 
H     1.4689942    3.9661930    0.7690199 
H     4.4996128    1.5960861   -0.1539118 
H     0.2669532    1.9760756   -5.5295628 
H     1.4803512    0.7879409   -4.9624984 
H     0.6780494    0.5619783   -6.5472479 
H    -1.0128828   -1.9645281   -4.2489929 
H     0.7309309   -1.5419729   -4.2230954 
H    -0.0985004   -1.7967574   -5.7815212 
H    -1.8517050   -0.0060494   -6.5999760 
H    -2.7334213   -0.2510191   -5.0604107 
H    -2.1870849    1.3928103   -5.5390877 
H    -3.1912638   -1.4708866    5.8942777 
H    -1.2110350    4.8286552    4.6991420 
H    -6.1460766   -0.6992989    2.8281400 
H     1.8092930    1.8103982    5.4093631 
H    -5.5675326   -1.5569102    5.1065996 
H     0.7686504    4.0099012    5.9882599 
H     4.5686302    1.3426679    3.6804905 
H     3.3283442   -0.9954683   -4.2615023 
H     2.6760177    5.0864975    2.6132119 
H     6.2525137    1.0610590   -1.8225277 
H     4.2543833    3.7979398    4.0607922 
H     5.6787988   -0.2165528   -3.8946949 
