105
Energy =
C    -0.0532165   -1.9149725    3.1805799 
C     0.9356643   -2.4815451    2.3329367 
C     2.1891875   -1.8396308    2.1582609 
H     0.6915232   -3.3553754    1.7162184 
Pd    0.4796886   -0.4987370    1.4864723 
P     1.7302499    0.7476518   -0.0763930 
P    -1.6419015    0.4766922    1.3956060 
H     0.3121445   -1.2361184    3.9651735 
H     2.5215658   -1.1670137    2.9639649 
C    -3.8919620   -3.6090159    4.1100082 
C    -3.3646557   -2.5624210    4.8800188 
C    -2.1236690   -2.0057215    4.5491157 
C    -1.3834341   -2.4862507    3.4441463 
C    -1.9415392   -3.5238906    2.6613178 
C    -3.1776926   -4.0820493    2.9964544 
H    -4.8584893   -4.0522436    4.3707309 
H    -3.9163744   -2.1839437    5.7466932 
H    -1.7115223   -1.1954739    5.1601271 
H    -1.4069032   -3.8998821    1.7836913 
H    -3.5913751   -4.8879771    2.3824206 
C     5.4073341   -3.3560343   -0.2571240 
C     4.0782576   -3.5734966   -0.6583851 
C     3.0216090   -3.0837949    0.1146888 
C     3.2711448   -2.3537457    1.2990858 
C     4.6113466   -2.1329441    1.6839448 
C     5.6688380   -2.6382958    0.9186689 
H     6.2337928   -3.7432439   -0.8619412 
H     3.8658622   -4.1261729   -1.5793988 
H     1.9922454   -3.2562782   -0.2134273 
H     4.8222774   -1.5558667    2.5902995 
H     6.7009171   -2.4592722    1.2363193 
O    -1.1016885    1.8176939   -3.9341052 
O     0.5585899    3.3530957   -3.4646986 
N    -0.5948475    2.2849305   -1.8041215 
C     0.0379717    3.0633375   -0.7392854 
C    -1.9270625    1.8123636    0.1148961 
C    -1.0115407    3.0361540    0.3912596 
C    -1.6315918    1.3659504   -1.3408502 
C     1.4495760    2.5730013   -0.3597341 
C    -0.3061756    2.5529978   -3.1245212 
C    -2.9564800   -0.7586128    1.0350852 
C    -2.1104703    1.3674908    2.9340023 
C     3.5150856    0.8245607    0.3766612 
C     1.6457730   -0.0065299   -1.7459240 
C    -1.2411612    2.1492385   -5.3775979 
C    -2.7557982   -1.6171381   -0.0697265 
C    -3.3404001    2.0517946    3.0552445 
C    -4.1335768   -0.8909955    1.7968641 
C    -1.1800671    1.4458887    3.9895767 
C     3.8285791    1.3581593    1.6460166 
C     2.2862425    0.5690425   -2.8638951 
C     4.5551308    0.4071564   -0.4723141 
C     0.9398578   -1.2156576   -1.9040981 
C    -2.3262217    1.1672754   -5.8303452 
C    -1.7084347    3.6041809   -5.5152401 
C     0.0795946    1.8916285   -6.1119531 
C    -3.7364069   -2.5463817   -0.4374230 
C    -3.6405443    2.7648255    4.2234007 
C    -5.1070840   -1.8312089    1.4309698 
C    -1.4803423    2.1633338    5.1561855 
C    -4.9201186   -2.6494673    0.3084495 
C    -2.7147971    2.8170711    5.2774439 
C     5.1632988    1.5045128    2.0431165 
C     2.2377216   -0.0753908   -4.1057900 
C     5.8910535    0.5562942   -0.0692658 
C     0.8793344   -1.8495412   -3.1523147 
C     6.1989869    1.1106553    1.1799900 
C     1.5382257   -1.2836564   -4.2527342 
H     0.1776814    4.0921250   -1.1133016 
H    -2.9890988    2.0906302    0.2118061 
H    -0.5432455    3.0012210    1.3905491 
H    -1.6159959    3.9566545    0.3567926 
H    -2.5203935    1.4349776   -1.9874150 
H    -1.2712908    0.3208952   -1.3993575 
H     1.7922240    3.0860112    0.5563658 
H     2.1498396    2.8563210   -1.1650974 
H    -1.8240555   -1.5631367   -0.6425249 
H    -4.0709137    2.0328608    2.2394792 
H    -4.2873163   -0.2823035    2.6912624 
H    -0.2085383    0.9502181    3.8852481 
H     3.0233396    1.6622547    2.3275278 
H     2.8154286    1.5227218   -2.7787074 
H     4.3313753   -0.0520330   -1.4391378 
H     0.4419104   -1.6569748   -1.0315032 
H    -2.0023772    0.1290043   -5.6455394 
H    -3.2658812    1.3458884   -5.2808290 
H    -2.5203506    1.2900585   -6.9089880 
H    -0.9292848    4.3017134   -5.1714702 
H    -2.6274408    3.7676944   -4.9261148 
H    -1.9339041    3.8192416   -6.5736140 
H    -0.0541599    2.1053952   -7.1863211 
H     0.8775213    2.5359575   -5.7142786 
H     0.3750065    0.8358970   -6.0025296 
H    -3.5710534   -3.1963851   -1.3029460 
H    -4.5995645    3.2861315    4.3085751 
H    -6.0130656   -1.9286207    2.0376488 
H    -0.7472470    2.2154545    5.9677508 
H    -5.6866686   -3.3781578    0.0254696 
H    -2.9524556    3.3771513    6.1876337 
H     5.3960473    1.9277690    3.0258463 
H     2.7413168    0.3766878   -4.9655412 
H     6.6929740    0.2240778   -0.7362735 
H     0.3242903   -2.7869066   -3.2629736 
H     7.2431896    1.2273878    1.4876092 
H     1.5010311   -1.7788726   -5.2285995 
