105
Energy =
C     0.2330155   -2.6576677   -0.8583941 
C     0.0535768   -2.9033425    0.5193444 
C    -1.1753579   -2.5939383    1.1776355 
H     0.9155330   -3.2326800    1.1123238 
Pd   -0.2886225   -0.7377723    0.3146823 
P     1.3668299    0.8258908   -0.2881407 
P    -1.8320760    0.7786012    1.2474876 
H    -0.6718385   -2.5186694   -1.4709569 
H    -2.1017558   -2.6773394    0.5952871 
C     3.6855900   -3.8042920   -3.1263898 
C     2.4411584   -3.6356709   -3.7507938 
C     1.3342563   -3.2180723   -3.0028590 
C     1.4481287   -2.9795740   -1.6135704 
C     2.7169533   -3.1269486   -1.0036572 
C     3.8208336   -3.5389390   -1.7522506 
H     4.5533651   -4.1302232   -3.7088663 
H     2.3309932   -3.8325423   -4.8221877 
H     0.3599056   -3.0965087   -3.4881921 
H     2.8425366   -2.9040883    0.0608941 
H     4.7965754   -3.6435030   -1.2681597 
C    -1.6839423   -2.7889635    5.4542732 
C    -0.3910351   -2.7387744    4.9059080 
C    -0.2158978   -2.6804816    3.5199709 
C    -1.3298665   -2.6822841    2.6437263 
C    -2.6221049   -2.7496161    3.2115982 
C    -2.7961687   -2.7962030    4.6001781 
H    -1.8205699   -2.8277697    6.5398297 
H     0.4844422   -2.7390566    5.5640231 
H     0.7999059   -2.6130551    3.1163537 
H    -3.4974216   -2.7616628    2.5547831 
H    -3.8084157   -2.8406198    5.0149084 
O    -0.1242592    1.3418041   -3.8519936 
O    -2.0532386    0.1238220   -3.5390269 
N    -1.3448811    1.6337264   -1.9728016 
C    -0.4869505    2.7320346   -1.4899073 
C    -2.3249026    2.1725329    0.0917810 
C    -1.1948378    3.1937055   -0.1836592 
C    -2.6479177    1.6319032   -1.3067666 
C     0.9890508    2.3379325   -1.3149647 
C    -1.2355000    0.9584784   -3.1733336 
C    -1.3777362    1.6052558    2.8172714 
C    -3.4762639    0.0203610    1.6015595 
C     1.9503322    1.3695782    1.3703049 
C     2.8947514    0.2517173   -1.1388507 
C     0.0545193    0.9797695   -5.2898504 
C    -0.6955020    0.8321648    3.7770174 
C    -4.0683970   -0.8215798    0.6344626 
C    -1.7447431    2.9312842    3.1318188 
C    -4.1583096    0.2616564    2.8104548 
C     2.3442407    0.3468604    2.2644714 
C     2.7644514   -0.1323177   -2.4909144 
C     1.9916728    2.7060139    1.8069473 
C     4.1656022    0.2245757   -0.5326419 
C     1.3495143    1.7138028   -5.6518391 
C     0.2094586   -0.5387618   -5.4432916 
C    -1.1355973    1.5248446   -6.0895353 
C    -0.3905474    1.3706626    5.0326324 
C    -5.3272246   -1.3921739    0.8632722 
C    -1.4201805    3.4717397    4.3840008 
C    -5.4127351   -0.3227605    3.0411494 
C    -0.7464639    2.6926617    5.3368851 
C    -6.0012104   -1.1457579    2.0703133 
C     2.7906916    0.6584616    3.5528670 
C     3.8910017   -0.4969441   -3.2345374 
C     2.4138204    3.0140331    3.1094343 
C     5.2898059   -0.1594206   -1.2799880 
C     2.8202383    1.9950559    3.9808141 
C     5.1580312   -0.5119659   -2.6302046 
H    -0.4933237    3.5579055   -2.2282757 
H    -3.2112683    2.6451385    0.5462086 
H    -0.4875781    3.2787172    0.6572689 
H    -1.6401087    4.1921610   -0.3283887 
H    -3.3575136    2.3107932   -1.8236844 
H    -3.0843181    0.6250617   -1.3373128 
H     1.5624121    3.1938338   -0.9171981 
H     1.4089779    2.1118667   -2.3059513 
H    -0.4147093   -0.1988432    3.5431921 
H    -3.5383849   -1.0495609   -0.2973264 
H    -2.2931677    3.5492952    2.4146496 
H    -3.7059672    0.8944576    3.5799450 
H     2.3029848   -0.7000690    1.9403768 
H     1.7773037   -0.1260598   -2.9633500 
H     1.7011811    3.5225256    1.1386373 
H     4.2890106    0.5244791    0.5122294 
H     1.2346901    2.7995382   -5.4962210 
H     2.1895207    1.3573324   -5.0325238 
H     1.5960481    1.5360527   -6.7118285 
H    -0.7078483   -1.0580965   -5.1294643 
H     1.0578292   -0.9103277   -4.8447565 
H     0.4112834   -0.7748436   -6.5021421 
H    -0.9536077    1.3704075   -7.1665748 
H    -2.0674758    1.0094106   -5.8118866 
H    -1.2513396    2.6076610   -5.9109010 
H     0.1326022    0.7538644    5.7702557 
H    -5.7765989   -2.0383880    0.1022983 
H    -1.7049613    4.5027039    4.6184615 
H    -5.9292153   -0.1342548    3.9880403 
H    -0.5019157    3.1169668    6.3162293 
H    -6.9803595   -1.5996752    2.2541322 
H     3.1023862   -0.1440372    4.2295160 
H     3.7767647   -0.7852167   -4.2842108 
H     2.4293351    4.0577279    3.4389994 
H     6.2759836   -0.1662848   -0.8040300 
H     3.1532600    2.2406530    4.9942047 
H     6.0397773   -0.8018863   -3.2107580 
