105
Energy =
C    -1.0524548   -2.5652041    1.1991722 
C    -0.1803674   -2.8039511    0.0999060 
C     1.2160607   -2.6270407    0.2105360 
H    -0.6223244   -3.0204355   -0.8806033 
Pd    0.0495273   -0.6772618    0.6514781 
P     1.5480874    0.9578796   -0.1499814 
P    -1.3690929    0.7659154    1.8578314 
H    -0.6411038   -2.6954531    2.2111530 
H     1.6333636   -2.5717656    1.2279480 
C    -5.2974170   -3.1727266    0.8741497 
C    -4.5877251   -2.6240965   -0.2068093 
C    -3.2085354   -2.4077996   -0.1098485 
C    -2.5145629   -2.7276831    1.0811769 
C    -3.2415766   -3.2643023    2.1657002 
C    -4.6184688   -3.4931084    2.0592189 
H    -6.3755824   -3.3465673    0.7938339 
H    -5.1073675   -2.3615678   -1.1342824 
H    -2.6808407   -1.9690643   -0.9642985 
H    -2.7187219   -3.5121590    3.0952250 
H    -5.1641118   -3.9163346    2.9086224 
C     4.1646766   -3.7054833   -2.7182788 
C     4.5476026   -3.1661135   -1.4806925 
C     3.5739951   -2.7935090   -0.5494881 
C     2.1966524   -2.9457417   -0.8343901 
C     1.8266324   -3.4719846   -2.0956169 
C     2.8012356   -3.8537552   -3.0219208 
H     4.9254601   -4.0084839   -3.4448646 
H     5.6076835   -3.0379883   -1.2412102 
H     3.8776769   -2.3826860    0.4198994 
H     0.7704426   -3.6066205   -2.3484729 
H     2.4966756   -4.2751243   -3.9855695 
O    -0.6535599    0.8582033   -3.4432754 
O    -2.4122091   -0.4235020   -2.7034437 
N    -1.5578839    1.2617488   -1.4121258 
C    -0.7505821    2.4826757   -1.2071607 
C    -2.2289484    1.9735471    0.7240852 
C    -1.2871489    3.0498644    0.1359229 
C    -2.7199065    1.2167042   -0.5200011 
C     0.7690161    2.2544879   -1.2571395 
C    -1.6024575    0.4852754   -2.5540027 
C    -0.5370637    1.7793224    3.1434300 
C    -2.7556158    0.0462989    2.8432502 
C     2.4421970    1.8104532    1.2080741 
C     2.9161335    0.4502504   -1.2800024 
C    -0.6477875    0.3024393   -4.8309434 
C    -1.0367543    3.0373568    3.5397458 
C    -2.4497078   -0.5332733    4.0933931 
C     0.5637078    1.2270841    3.8268725 
C    -4.0974113    0.0721885    2.4135264 
C     3.2803959    1.0018569    2.0090137 
C     2.5412095   -0.2387672   -2.4519001 
C     2.3559421    3.1866362    1.4836086 
C     4.2673714    0.7957816   -1.0861737 
C    -0.3867880   -1.2098879   -4.7967956 
C    -1.9795473    0.6455336   -5.5102749 
C     0.5153966    1.0600450   -5.4783102 
C    -0.4315850    3.7334850    4.5943212 
C    -3.4670986   -1.0442704    4.9085015 
C     1.1502488    1.9151823    4.8971385 
C    -5.1117762   -0.4426535    3.2335019 
C     0.6575354    3.1713953    5.2778048 
C    -4.8031787   -0.9931021    4.4841618 
C     4.0438435    1.5671107    3.0363067 
C     3.4939738   -0.5484551   -3.4274782 
C     3.1007834    3.7462732    2.5329704 
C     5.2220748    0.4673904   -2.0610628 
C     3.9537429    2.9429727    3.3014659 
C     4.8389102   -0.1971432   -3.2336515 
H    -0.9651601    3.1992370   -2.0242079 
H    -3.0647542    2.4244167    1.2833053 
H    -0.4704367    3.3194534    0.8255428 
H    -1.8671701    3.9692988   -0.0475204 
H    -3.5906791    1.7326263   -0.9743192 
H    -3.0100454    0.1713849   -0.3349931 
H     1.2930134    3.2124377   -1.0918281 
H     1.0321578    1.9257734   -2.2730859 
H    -1.9057360    3.4763129    3.0390500 
H    -1.4136894   -0.5620692    4.4474801 
H     0.9613552    0.2549211    3.5143412 
H    -4.3760748    0.4878812    1.4422714 
H     3.3428719   -0.0753848    1.8127937 
H     1.4921984   -0.5125519   -2.6039833 
H     1.7145971    3.8389019    0.8829626 
H     4.5798335    1.3389584   -0.1898884 
H     0.5577008   -1.4368865   -4.2743081 
H    -1.2112764   -1.7383636   -4.2964672 
H    -0.2994750   -1.5824792   -5.8317485 
H    -2.1628252    1.7325990   -5.4618138 
H    -2.8164874    0.1145308   -5.0326151 
H    -1.9327129    0.3511529   -6.5724138 
H     0.6302307    0.7423123   -6.5280084 
H     0.3256032    2.1462882   -5.4601547 
H     1.4591758    0.8596740   -4.9451228 
H    -0.8217107    4.7121932    4.8923365 
H    -3.2141345   -1.4760905    5.8824093 
H     2.0016007    1.4743342    5.4243919 
H    -6.1486101   -0.4152319    2.8839235 
H     1.1220459    3.7140722    6.1075130 
H    -5.5995747   -1.3875185    5.1233866 
H     4.7034658    0.9323104    3.6370506 
H     3.1888726   -1.0802705   -4.3339399 
H     3.0173820    4.8173535    2.7426207 
H     6.2691000    0.7473284   -1.9047278 
H     4.5422721    3.3859889    4.1112714 
H     5.5860848   -0.4451871   -3.9943817 
