105
Energy =
C     0.3748603   -2.6142965   -0.9309592 
C     0.1829173   -2.9076237    0.4357975 
C    -1.0698661   -2.6753360    1.0802070 
H     1.0491914   -3.2136834    1.0349384 
Pd   -0.2566777   -0.7545240    0.2848630 
P     1.3292068    0.9017092   -0.2516631 
P    -1.8797291    0.6601165    1.2437830 
H    -0.5243839   -2.5019189   -1.5571449 
H    -1.9812529   -2.7820138    0.4782726 
C     3.9226163   -3.5367196   -3.1545928 
C     4.0191616   -3.2909556   -1.7735947 
C     2.8817762   -2.9518060   -1.0387242 
C     1.6180950   -2.8589048   -1.6696353 
C     1.5416948   -3.0767995   -3.0648078 
C     2.6822609   -3.4219542   -3.7990625 
H     4.8166133   -3.8055182   -3.7264935 
H     4.9902410   -3.3534658   -1.2731236 
H     2.9762085   -2.7427884    0.0318548 
H     0.5711400   -2.9974468   -3.5662100 
H     2.6018223   -3.6042136   -4.8756744 
C    -1.6409064   -3.0371172    5.3381069 
C    -0.3429525   -2.9052158    4.8158100 
C    -0.1473865   -2.7916502    3.4360723 
C    -1.2449045   -2.8181516    2.5396903 
C    -2.5416335   -2.9673561    3.0809675 
C    -2.7367631   -3.0696281    4.4637646 
H    -1.7937326   -3.1194471    6.4190602 
H     0.5201592   -2.8850878    5.4897666 
H     0.8705809   -2.6611090    3.0538640 
H    -3.4040099   -2.9996937    2.4079663 
H    -3.7525013   -3.1774465    4.8577878 
O    -0.1515064    1.4429837   -3.8097084 
O    -2.0275722    0.1340053   -3.5484518 
N    -1.4042939    1.6352079   -1.9384389 
C    -0.6007647    2.7561544   -1.4153620 
C    -2.4256941    2.0681721    0.1297819 
C    -1.3397081    3.1459832   -0.1025710 
C    -2.7131002    1.5599215   -1.2881847 
C     0.8900643    2.4247313   -1.2374171 
C    -1.2517146    0.9949593   -3.1533586 
C    -3.4907187   -0.1837610    1.5533702 
C    -1.4787261    1.4552733    2.8441046 
C     1.8708740    1.4208291    1.4286718 
C     2.8920857    0.4294359   -1.1016612 
C     0.0590512    1.1211006   -5.2529194 
C    -4.0339901   -1.0185087    0.5518683 
C    -1.9136463    2.7502684    3.1988874 
C    -4.1952643   -0.0145460    2.7616094 
C    -0.7646965    0.6858925    3.7834068 
C     1.8425225    2.7430383    1.9074944 
C     2.7920483    0.0671908   -2.4621890 
C     2.3090637    0.3908057    2.2933917 
C     4.1585926    0.4608103   -0.4865161 
C     1.3238705    1.9196732   -5.5837669 
C     0.2831283   -0.3853754   -5.4374503 
C    -1.1452425    1.6303670   -6.0549436 
C    -5.2682551   -1.6520297    0.7466728 
C    -1.6249808    3.2642018    4.4708771 
C    -5.4243195   -0.6620602    2.9579915 
C    -0.4954640    1.1967260    5.0585750 
C    -5.9651775   -1.4769869    1.9532059 
C    -0.9195081    2.4883669    5.4032389 
C     2.2396628    3.0298819    3.2226305 
C     3.9417852   -0.2195075   -3.2044305 
C     2.7305690    0.6829222    3.5946949 
C     5.3071510    0.1551517   -1.2329377 
C     2.6904371    2.0050292    4.0648155 
C     5.2037171   -0.1769396   -2.5908117 
H    -0.6388694    3.6027324   -2.1289600 
H    -3.3356027    2.4858505    0.5914366 
H    -0.6445341    3.2356693    0.7479251 
H    -1.8273022    4.1279828   -0.2211142 
H    -3.4439464    2.2264459   -1.7914915 
H    -3.1084824    0.5381449   -1.3552764 
H     1.4200403    3.2935790   -0.8088148 
H     1.3288870    2.2472205   -2.2301767 
H    -3.4845995   -1.1913667   -0.3805302 
H    -2.4871289    3.3637844    2.4976402 
H    -3.7796843    0.6114299    3.5569476 
H    -0.4312484   -0.3214339    3.5177599 
H     1.5166307    3.5650124    1.2626306 
H     1.8090204    0.0290941   -2.9416361 
H     2.3226872   -0.6459608    1.9359332 
H     4.2583041    0.7453500    0.5651958 
H     1.1588507    2.9956714   -5.4070531 
H     2.1720631    1.5880410   -4.9618316 
H     1.5899374    1.7756851   -6.6441826 
H    -0.6131303   -0.9517802   -5.1450179 
H     1.1413146   -0.7322062   -4.8380462 
H     0.5058115   -0.5888180   -6.4989074 
H    -0.9443924    1.5082577   -7.1327802 
H    -2.0561442    1.0679164   -5.7999832 
H    -1.3112201    2.7026953   -5.8541871 
H    -5.6801870   -2.2915992   -0.0406683 
H    -1.9624673    4.2713620    4.7367421 
H    -5.9582550   -0.5292519    3.9046406 
H     0.0531974    0.5827063    5.7797865 
H    -6.9246959   -1.9802335    2.1101143 
H    -0.7031072    2.8915367    6.3980146 
H     2.2008812    4.0620048    3.5850887 
H     3.8505358   -0.4922564   -4.2604791 
H     3.0776184   -0.1242122    4.2482002 
H     6.2891487    0.1932949   -0.7498708 
H     3.0040384    2.2343920    5.0881699 
H     6.1039053   -0.4060630   -3.1702752 
