105
Energy =
C     1.3565011   -1.9401681   -0.9445247 
C     0.2313899   -2.5568465   -0.3131042 
C    -1.0935800   -2.1985767   -0.6283915 
H     0.4116742   -3.2380754    0.5279862 
Pd    0.1730847   -0.3768196    0.0828251 
P     1.7287884    1.3508533   -0.2946431 
P    -1.3783461    0.8182008    1.4021629 
H     1.2549370   -1.6323048   -1.9941569 
H    -1.2648115   -1.5907599   -1.5305616 
C     5.3721463   -2.7932044    0.3663744 
C     5.0967510   -2.5844298   -0.9924660 
C     3.7906941   -2.3051479   -1.4134009 
C     2.7324080   -2.2284294   -0.4839838 
C     3.0229128   -2.4477962    0.8843245 
C     4.3278747   -2.7267711    1.3043799 
H     6.3939675   -3.0080660    0.6956039 
H     5.9028797   -2.6336868   -1.7313812 
H     3.5855904   -2.1401810   -2.4751271 
H     2.2197682   -2.3735343    1.6276413 
H     4.5342790   -2.8889830    2.3677497 
C    -4.6605580   -4.0742242    0.8515675 
C    -3.4064793   -4.6133852    1.1816874 
C    -2.2350231   -3.9982851    0.7320750 
C    -2.2928672   -2.8348181   -0.0724667 
C    -3.5647671   -2.3094807   -0.4019473 
C    -4.7352581   -2.9176698    0.0603468 
H    -5.5765888   -4.5578574    1.2056916 
H    -3.3434654   -5.5222293    1.7889240 
H    -1.2684270   -4.4448962    0.9848595 
H    -3.6247121   -1.4179283   -1.0346674 
H    -5.7094303   -2.4912571   -0.1983902 
O    -1.9796247    0.2601500   -3.0856977 
O    -0.1667131    1.5660226   -3.6336346 
N    -1.3064428    1.8632821   -1.6622086 
C    -0.5149237    3.0295707   -1.2118066 
C    -2.1441306    2.2486090    0.4848909 
C    -1.1285932    3.3701794    0.1737222 
C    -2.5563020    1.7399325   -0.9064880 
C     1.0067597    2.8136847   -1.2159644 
C    -1.0815174    1.2549212   -2.8769591 
C    -2.8269034   -0.1075136    2.0636667 
C    -0.6750550    1.5286066    2.9427594 
C     2.5115144    1.9609047    1.2479874 
C     3.1521487    0.9821939   -1.4169320 
C    -2.0332995   -0.4571934   -4.3951600 
C    -4.1649589    0.3081539    1.9154782 
C    -1.2198281    2.6763457    3.5549740 
C    -2.5494688   -1.2739273    2.8072104 
C     0.3835079    0.8450950    3.5715834 
C     2.3799214    3.2717519    1.7415176 
C     4.4996005    1.0581608   -1.0188296 
C     3.2763921    1.0241905    1.9795737 
C     2.8462482    0.6493984   -2.7559449 
C    -0.7286841   -1.2337139   -4.6201297 
C    -3.2146263   -1.4122868   -4.1982346 
C    -2.3165621    0.5536279   -5.5131233 
C    -5.2006019   -0.4141104    2.5260240 
C    -0.7005593    3.1367212    4.7720322 
C    -3.5843576   -1.9874936    3.4198739 
C     0.8851340    1.2964631    4.7992353 
C    -4.9131855   -1.5569214    3.2835954 
C     0.3479201    2.4449030    5.3978510 
C     3.0073268    3.6416137    2.9407758 
C     5.5228234    0.8030579   -1.9447494 
C     3.9249657    1.4060346    3.1590839 
C     3.8733418    0.4102561   -3.6772661 
C     3.7889539    2.7159036    3.6450042 
C     5.2159807    0.4811085   -3.2733503 
H    -0.6923127    3.8689567   -1.9126558 
H    -3.0022091    2.6309414    1.0594128 
H    -0.3567952    3.4600994    0.9557894 
H    -1.6551389    4.3376788    0.1301938 
H    -3.3540703    2.3756531   -1.3421565 
H    -2.9086471    0.6980136   -0.9126983 
H     1.5049532    3.7298464   -0.8530857 
H     1.3277175    2.6693125   -2.2576125 
H    -4.4200831    1.1978575    1.3324249 
H    -2.0559272    3.2123646    3.0938519 
H    -1.5137502   -1.6190030    2.9103339 
H     0.8182622   -0.0380755    3.0897594 
H     1.7949326    4.0204159    1.1986539 
H     4.7639419    1.3259638    0.0073181 
H     3.3714451   -0.0046607    1.6147782 
H     1.8044753    0.6124328   -3.0942957 
H     0.1231370   -0.5498270   -4.7464052 
H    -0.5308952   -1.9138170   -3.7736597 
H    -0.8271871   -1.8491710   -5.5304497 
H    -4.1299116   -0.8487521   -3.9516263 
H    -3.0120795   -2.1303726   -3.3860342 
H    -3.3923772   -1.9811779   -5.1257169 
H    -2.4756242    0.0126696   -6.4612514 
H    -3.2314028    1.1269764   -5.2854732 
H    -1.4747332    1.2503819   -5.6407481 
H    -6.2359347   -0.0777739    2.4081302 
H    -1.1241544    4.0321420    5.2386329 
H    -3.3549572   -2.8890296    3.9961948 
H     1.7066453    0.7575395    5.2808523 
H    -5.7230494   -2.1176219    3.7611404 
H     0.7464270    2.8029534    6.3526670 
H     2.8895391    4.6621791    3.3186830 
H     6.5667267    0.8654093   -1.6204599 
H     4.5302578    0.6745804    3.7048614 
H     3.6204664    0.1695143   -4.7152270 
H     4.2861524    3.0127574    4.5740905 
H     6.0186270    0.2917178   -3.9935608 
