105
Energy =
C     1.1573599   -2.0472705   -0.9806325 
C     0.0124596   -2.5689963   -0.3016840 
C    -1.2908300   -2.1067946   -0.5697247 
H     0.1706645   -3.2589956    0.5367070 
Pd    0.1431659   -0.3892561    0.0812241 
P     1.8271353    1.2002601   -0.3495832 
P    -1.2673550    0.9385104    1.4324631 
H     1.0381732   -1.7333854   -2.0267237 
H    -1.4462991   -1.4936053   -1.4711638 
C     5.1408727   -3.2199375    0.1699675 
C     4.1487160   -3.0524482    1.1509353 
C     2.8541878   -2.6706068    0.7825980 
C     2.5229848   -2.4462214   -0.5753706 
C     3.5280808   -2.6263488   -1.5484074 
C     4.8235720   -3.0089852   -1.1793790 
H     6.1549343   -3.5149754    0.4585851 
H     4.3881759   -3.2163004    2.2071000 
H     2.0930175   -2.5186424    1.5576777 
H     3.2899331   -2.4606739   -2.6030337 
H     5.5890945   -3.1370933   -1.9512569 
C    -4.9400944   -3.6851196    1.0497981 
C    -3.7203187   -4.3125220    1.3514297 
C    -2.5205726   -3.7942478    0.8567754 
C    -2.5158469   -2.6416233    0.0346991 
C    -3.7543054   -2.0259762   -0.2645521 
C    -4.9522428   -2.5374272    0.2424324 
H    -5.8784183   -4.0930749    1.4391045 
H    -3.7068929   -5.2145884    1.9717552 
H    -1.5828032   -4.3086187    1.0885991 
H    -3.7669459   -1.1413649   -0.9096649 
H    -5.8991643   -2.0422139    0.0061132 
O    -2.0374646    0.3937076   -3.0297036 
O    -0.1330360    1.5311290   -3.6387613 
N    -1.1919822    1.9464977   -1.6433434 
C    -0.2953472    3.0478462   -1.2274831 
C    -1.9366729    2.4196599    0.5200475 
C    -0.8407471    3.4503127    0.1701100 
C    -2.4272326    1.9354828   -0.8544302 
C     1.2028089    2.7080573   -1.2693977 
C    -1.0514765    1.3085321   -2.8556401 
C    -0.4686672    1.6012311    2.9474994 
C    -2.7702561    0.1435412    2.1413173 
C     2.6929455    1.7592737    1.1681410 
C     3.1900102    0.7101540   -1.5005950 
C    -2.1888679   -0.3284919   -4.3286103 
C    -0.9001937    2.7954980    3.5609214 
C    -4.0731059    0.6649385    2.0154501 
C     0.5440507    0.8363225    3.5576863 
C    -2.5717753   -1.0299194    2.8988792 
C     3.3963412    0.7709970    1.8936023 
C     2.8287922    0.4032271   -2.8320201 
C     2.6809327    3.0816882    1.6482685 
C     4.5472823    0.6725482   -1.1313042 
C    -0.9645803   -1.2198909   -4.5771565 
C    -3.4446236   -1.1728232   -4.0902478 
C    -2.4110694    0.6927496   -5.4509004 
C    -0.3144154    3.2202087    4.7605659 
C    -5.1496070    0.0400367    2.6616996 
C     1.1116438    1.2536972    4.7684663 
C    -3.6467287   -1.6461543    3.5471596 
C     0.6873710    2.4477925    5.3682201 
C    -4.9387840   -1.1100942    3.4331623 
C     4.1024536    1.1110674    3.0527203 
C     3.8125126    0.0792682   -3.7745170 
C     3.3649532    3.4116822    2.8280311 
C     5.5255389    0.3325512   -2.0782140 
C     4.0853563    2.4326672    3.5253851 
C     5.1646636    0.0380430   -3.3995905 
H    -0.4230067    3.8925530   -1.9327544 
H    -2.7441390    2.8766250    1.1130149 
H    -0.0431572    3.4820687    0.9303646 
H    -1.2861953    4.4578622    0.1300353 
H    -3.1800665    2.6325205   -1.2761740 
H    -2.8660700    0.9269618   -0.8405290 
H     1.7839731    3.5838287   -0.9311506 
H     1.4823295    2.5272905   -2.3171918 
H    -1.6996727    3.3960881    3.1146963 
H    -4.2685243    1.5630225    1.4223916 
H     0.8915294   -0.0838203    3.0742132 
H    -1.5658691   -1.4576753    2.9851506 
H     3.3987449   -0.2658027    1.5392276 
H     1.7804286    0.4518635   -3.1479300 
H     2.1465738    3.8701990    1.1095927 
H     4.8552306    0.9183298   -0.1118550 
H    -0.0585071   -0.6155338   -4.7286718 
H    -0.8083423   -1.9097611   -3.7298515 
H    -1.1390151   -1.8297775   -5.4798255 
H    -4.2996433   -0.5276404   -3.8279622 
H    -3.2852934   -1.8975642   -3.2743390 
H    -3.6961526   -1.7333371   -5.0056980 
H    -2.6428371    0.1591511   -6.3881611 
H    -3.2650837    1.3473625   -5.2065273 
H    -1.5144910    1.3105338   -5.6083103 
H    -0.6498120    4.1517903    5.2281298 
H    -6.1564558    0.4583903    2.5608156 
H     1.8968920    0.6516275    5.2355903 
H    -3.4780682   -2.5542697    4.1340225 
H     1.1376806    2.7786148    6.3097388 
H    -5.7801649   -1.5945064    3.9388364 
H     4.6593156    0.3385479    3.5934452 
H     3.5182427   -0.1399169   -4.8063346 
H     3.3400471    4.4424887    3.1955521 
H     6.5776541    0.3071856   -1.7762841 
H     4.6272717    2.6975489    4.4389950 
H     5.9331925   -0.2173406   -4.1364683 
