105
Energy =
C    -0.0530808   -1.9150945    3.1791095 
C     0.9412099   -2.4773609    2.3346040 
C     2.1929890   -1.8307469    2.1662356 
H     0.7034015   -3.3518578    1.7162882 
Pd    0.4802295   -0.4964500    1.4872586 
P     1.7300489    0.7466126   -0.0787722 
P    -1.6424716    0.4766327    1.3953512 
H     0.3074734   -1.2366541    3.9662496 
H     2.5186476   -1.1570439    2.9738277 
C    -3.8836013   -3.6327087    4.0980966 
C    -3.1677771   -4.0945395    2.9808191 
C    -1.9347707   -3.5278029    2.6486054 
C    -1.3814044   -2.4926779    3.4381245 
C    -2.1238217   -2.0224458    4.5460168 
C    -3.3616055   -2.5879312    4.8741516 
H    -4.8474286   -4.0829448    4.3568120 
H    -3.5778170   -4.8984027    2.3616446 
H    -1.3986017   -3.8950091    1.7681653 
H    -1.7156539   -1.2137070    5.1617465 
H    -3.9149857   -2.2176927    5.7433265 
C     5.4286883   -3.3386763   -0.2306282 
C     5.6814798   -2.6316106    0.9535679 
C     4.6185403   -2.1282592    1.7125926 
C     3.2814068   -2.3411418    1.3129407 
C     3.0405246   -3.0601890    0.1201534 
C     4.1028485   -3.5474558   -0.6467804 
H     6.2596021   -3.7240032   -0.8305333 
H     6.7111314   -2.4594226    1.2826934 
H     4.8227625   -1.5598761    2.6259429 
H     2.0136968   -3.2249129   -0.2195497 
H     3.8973052   -4.0911966   -1.5746524 
O    -1.1061279    1.8238703   -3.9338345 
O     0.5567069    3.3566812   -3.4649525 
N    -0.5963097    2.2886450   -1.8040268 
C     0.0398000    3.0642305   -0.7390921 
C    -1.9256109    1.8142854    0.1164301 
C    -1.0062327    3.0348878    0.3947025 
C    -1.6324242    1.3693813   -1.3402043 
C     1.4520643    2.5719906   -0.3650829 
C    -0.3087653    2.5574513   -3.1245098 
C    -2.9582860   -0.7574175    1.0350369 
C    -2.1118875    1.3660289    2.9343671 
C     3.5169351    0.8198618    0.3663568 
C     1.6375851   -0.0102808   -1.7469049 
C    -1.2469786    2.1569311   -5.3768636 
C    -4.1299283   -0.8941345    1.8045832 
C    -1.1842000    1.4408279    3.9925387 
C    -2.7646322   -1.6110808   -0.0747225 
C    -3.3407554    2.0526764    3.0534015 
C     4.5514157    0.3914481   -0.4840049 
C     0.9266829   -1.2170052   -1.9015283 
C     3.8382890    1.3611196    1.6304512 
C     2.2763491    0.5617079   -2.8676510 
C     0.0725788    1.8985662   -6.1131292 
C    -2.3336659    1.1765727   -5.8291835 
C    -1.7127859    3.6125345   -5.5125116 
C    -5.1047804   -1.8342596    1.4421215 
C    -1.4858424    2.1577002    5.1591671 
C    -3.7467161   -2.5401639   -0.4389181 
C    -3.6422118    2.7652619    4.2214609 
C    -4.9246511   -2.6481693    0.3153427 
C    -2.7189096    2.8144998    5.2778160 
C     5.8896685    0.5374436   -0.0877967 
C     0.8590290   -1.8515756   -3.1490649 
C     5.1754121    1.5043534    2.0206355 
C     2.2208804   -0.0835270   -4.1088480 
C     6.2055262    1.0997975    1.1559116 
C     1.5159097   -1.2890073   -4.2524058 
H     0.1791171    4.0938207   -1.1111052 
H    -2.9867234    2.0956352    0.2141663 
H    -0.5342723    2.9941272    1.3920966 
H    -1.6083873    3.9570847    0.3667695 
H    -2.5221309    1.4390271   -1.9854321 
H    -1.2720984    0.3244449   -1.4002440 
H     1.7997847    3.0861672    0.5484587 
H     2.1491152    2.8524125   -1.1742206 
H    -4.2783961   -0.2884986    2.7019739 
H    -0.2134507    0.9433259    3.8901346 
H    -1.8374652   -1.5536614   -0.6544875 
H    -4.0697013    2.0352659    2.2361731 
H     4.3214167   -0.0737418   -1.4464701 
H     0.4302221   -1.6559163   -1.0267681 
H     3.0375527    1.6739331    2.3132965 
H     2.8099129    1.5131917   -2.7850459 
H    -0.0622099    2.1141361   -7.1870153 
H     0.8718841    2.5412178   -5.7154976 
H     0.3666232    0.8422349   -6.0057528 
H    -3.2725230    1.3557855   -5.2784892 
H    -2.0107443    0.1378005   -5.6455458 
H    -2.5288368    1.3004366   -6.9075193 
H    -1.9394877    3.8289012   -6.5703584 
H    -2.6307562    3.7765436   -4.9219095 
H    -0.9323175    4.3088142   -5.1691714 
H    -6.0063418   -1.9350195    2.0548047 
H    -0.7546571    2.2072883    5.9726157 
H    -3.5868877   -3.1862066   -1.3084420 
H    -4.6004021    3.2883836    4.3048674 
H    -5.6919053   -3.3773142    0.0354451 
H    -2.9574845    3.3744118    6.1878745 
H     6.6871469    0.1967386   -0.7558367 
H     0.2997412   -2.7867484   -3.2569561 
H     5.4142673    1.9334146    2.9993829 
H     2.7236712    0.3656198   -4.9706020 
H     7.2515826    1.2140991    1.4581048 
H     1.4730442   -1.7847192   -5.2277902 
