105
Energy =
C     0.7180118   -1.9323720   -1.4336445 
C     0.0167318   -2.5946186   -0.4061224 
C    -1.3228236   -2.2146355   -0.0749609 
H     0.5353212   -3.3268626    0.2263095 
Pd    0.0181478   -0.4826112    0.2514922 
P     1.7824123    1.0845344    0.2810169 
P    -1.6308528    0.8779216    1.1990219 
H     0.1217385   -1.3024639   -2.1110328 
H    -1.9504460   -1.8397789   -0.8977567 
C     4.6193810   -2.8873197   -2.9407450 
C     3.9640973   -3.7937418   -2.0914792 
C     2.6997104   -3.4884103   -1.5780779 
C     2.0613974   -2.2720723   -1.9164865 
C     2.7275726   -1.3741691   -2.7844704 
C     3.9972638   -1.6765755   -3.2839426 
H     5.6106777   -3.1277241   -3.3385483 
H     4.4394809   -4.7460240   -1.8344283 
H     2.1932735   -4.2142038   -0.9335557 
H     2.2444340   -0.4298025   -3.0560530 
H     4.5044213   -0.9649492   -3.9428237 
C    -3.4454475   -4.1687271    3.1178586 
C    -2.1050801   -3.7898615    3.3003483 
C    -1.4144075   -3.1362818    2.2744235 
C    -2.0505527   -2.8486326    1.0445018 
C    -3.4035553   -3.2137571    0.8836394 
C    -4.0917790   -3.8745508    1.9085346 
H    -3.9852272   -4.6831536    3.9195933 
H    -1.5988646   -4.0033882    4.2476670 
H    -0.3743132   -2.8238467    2.4289125 
H    -3.9149465   -2.9843020   -0.0570515 
H    -5.1399475   -4.1550347    1.7635669 
O    -1.1880295    0.1972802   -3.5772356 
O     0.7746532    1.3962059   -3.7176093 
N    -0.6786926    1.6495793   -1.9523697 
C     0.0599516    2.7815048   -1.3568960 
C    -2.0011171    2.2016450   -0.0795588 
C    -0.8731396    3.2551998   -0.2080385 
C    -2.0695212    1.5872304   -1.4902855 
C     1.5139737    2.4319251   -0.9750650 
C    -0.2772887    1.1066920   -3.1566156 
C    -3.2924917    0.1777914    1.5867544 
C    -1.2443079    1.7635846    2.7540694 
C     2.1876225    1.9230126    1.8812838 
C     3.4486336    0.4190201   -0.1301366 
C    -1.1770730   -0.3390304   -4.9728715 
C    -3.5075177   -0.3718175    2.8688107 
C    -0.3952945    1.1344682    3.6848791 
C    -4.3507368    0.1675268    0.6540762 
C    -1.8508600    2.9931335    3.0844941 
C     2.8086939    1.1471410    2.8843339 
C     3.7744690   -0.8822378    0.3011029 
C     1.9383189    3.2843516    2.1375053 
C     4.4311655    1.2010763   -0.7693629 
C     0.0904697   -1.1626501   -5.2251534 
C    -2.4260255   -1.2251689   -4.9782278 
C    -1.3116437    0.8370516   -5.9470609 
C    -4.7585881   -0.8947916    3.2151431 
C    -0.1616182    1.7228025    4.9349639 
C    -5.6041737   -0.3530783    1.0094874 
C    -1.5947537    3.5890043    4.3257998 
C    -5.8132811   -0.8803580    2.2905890 
C    -0.7555271    2.9521757    5.2533652 
C     3.1799051    1.7228312    4.1041744 
C     5.0667560   -1.3879923    0.1143559 
C     2.2968637    3.8559343    3.3678514 
C     5.7185782    0.6848950   -0.9695131 
C     2.9224701    3.0800815    4.3517870 
C     6.0399449   -0.6055810   -0.5236947 
H     0.1484714    3.5815075   -2.1171342 
H    -2.9615498    2.6659399    0.1986393 
H    -0.3320045    3.3972612    0.7397772 
H    -1.3209516    4.2285542   -0.4675567 
H    -2.7338743    2.1910636   -2.1416542 
H    -2.4255492    0.5472312   -1.5203889 
H     2.0361316    3.3492572   -0.6519943 
H     2.0097367    2.0785173   -1.8943324 
H    -2.6997902   -0.3796836    3.6065326 
H     0.0810858    0.1830686    3.4231941 
H    -4.2237556    0.5768019   -0.3517673 
H    -2.5317599    3.4861121    2.3827462 
H     3.0216199    0.0880590    2.7060733 
H     3.0042720   -1.5053422    0.7708383 
H     1.4767284    3.9238910    1.3797975 
H     4.2081851    2.2180702   -1.1060579 
H     0.9866110   -0.5263860   -5.2100797 
H     0.1995785   -1.9593911   -4.4704994 
H     0.0129019   -1.6422462   -6.2159041 
H    -3.3251794   -0.6295727   -4.7475659 
H    -2.3312055   -2.0288387   -4.2280178 
H    -2.5550556   -1.6873487   -5.9708747 
H    -1.4126956    0.4517850   -6.9757011 
H    -2.2109521    1.4313145   -5.7105675 
H    -0.4241985    1.4874419   -5.9027407 
H    -4.9070152   -1.3166727    4.2139647 
H     0.4973847    1.2267585    5.6537209 
H    -6.4200261   -0.3387371    0.2792338 
H    -2.0618723    4.5474843    4.5747521 
H    -6.7931188   -1.2831941    2.5663824 
H    -0.5639157    3.4170880    6.2259044 
H     3.6732232    1.1082015    4.8644213 
H     5.3063884   -2.4021036    0.4480136 
H     2.0924732    4.9160673    3.5487948 
H     6.4754572    1.2985375   -1.4689549 
H     3.2098544    3.5304626    5.3072743 
H     7.0477484   -1.0039828   -0.6791084 
