105
Energy =
C     0.3434508   -2.6834337   -0.7273615 
C     0.1245134   -2.8732753    0.6535570 
C    -1.1346376   -2.5737671    1.2568020 
H     0.9752867   -3.1485435    1.2886441 
Pd   -0.2744002   -0.7308175    0.3385369 
P     1.3513260    0.8556978   -0.2841754 
P    -1.8926919    0.7766742    1.1529114 
H    -0.5434297   -2.6011444   -1.3753216 
H    -2.0377396   -2.7112621    0.6486886 
C     3.9065043   -3.8219808   -2.8222053 
C     3.9859210   -3.4871159   -1.4589250 
C     2.8444037   -3.0767495   -0.7680969 
C     1.5933177   -3.0006897   -1.4259101 
C     1.5349010   -3.3090288   -2.8048044 
C     2.6795565   -3.7249159   -3.4946594 
H     4.8037016   -4.1462486   -3.3592790 
H     4.9472099   -3.5360997   -0.9384533 
H     2.9259868   -2.7991129    0.2877474 
H     0.5744486   -3.2434227   -3.3272271 
H     2.6126770   -3.9762867   -4.5581868 
C    -1.7812723   -2.5944432    5.5191978 
C    -0.4727417   -2.5271587    5.0111703 
C    -0.2527728   -2.5250553    3.6304325 
C    -1.3359607   -2.6015247    2.7195972 
C    -2.6439122   -2.6850538    3.2479146 
C    -2.8632827   -2.6754661    4.6308062 
H    -1.9531717   -2.5893707    6.6004044 
H     0.3796406   -2.4700876    5.6965699 
H     0.7735833   -2.4432507    3.2572322 
H    -3.4958428   -2.7544147    2.5644232 
H    -3.8871449   -2.7340042    5.0141394 
O    -0.0427772    1.1552659   -3.9116641 
O    -1.9424348   -0.1072669   -3.5964572 
N    -1.3302382    1.4989132   -2.0864552 
C    -0.5203444    2.6441387   -1.6304437 
C    -2.3896552    2.1015340   -0.0798974 
C    -1.2809761    3.1424862   -0.3679375 
C    -2.6532457    1.4892293   -1.4611055 
C     0.9604825    2.3041798   -1.3943557 
C    -1.1624749    0.7699631   -3.2482477 
C    -1.5154134    1.6875993    2.6963571 
C    -3.5240392   -0.0164606    1.4895548 
C     1.8632817    1.4960680    1.3634085 
C     2.9235236    0.2934715   -1.0585648 
C     0.1913497    0.7307038   -5.3243005 
C    -0.8420274    0.9810788    3.7119224 
C    -4.0589695   -0.9184299    0.5434258 
C    -1.9328538    3.0141157    2.9372368 
C    -4.2522074    0.2566977    2.6643205 
C     1.8533509    2.8528552    1.7341187 
C     2.8497929   -0.1570263   -2.3942827 
C     2.2553315    0.5300385    2.3192610 
C     4.1739812    0.3370495   -0.4123036 
C    -0.9898047    1.1982027   -6.1840799 
C     1.4736379    1.4880413   -5.6836037 
C     0.3977527   -0.7875980   -5.3988829 
C    -0.5954376    1.5852814    4.9502914 
C    -5.3072590   -1.5170556    0.7581093 
C    -1.6666676    3.6207510    4.1726893 
C    -5.4956833   -0.3556211    2.8817232 
C    -1.0015625    2.9075676    5.1815526 
C    -6.0274834   -1.2385325    1.9310312 
C     2.2228309    3.2361391    3.0326274 
C     4.0111373   -0.5179623   -3.0842412 
C     2.6495838    0.9169524    3.6042552 
C     5.3337590   -0.0432513   -1.1052003 
C     2.6276321    2.2730680    3.9661249 
C     5.2575385   -0.4623944   -2.4405864 
H    -0.5287357    3.4349752   -2.4061997 
H    -3.3029937    2.5672351    0.3256858 
H    -0.6025622    3.2852969    0.4887396 
H    -1.7494506    4.1199882   -0.5707354 
H    -3.3643408    2.1235315   -2.0300160 
H    -3.0606077    0.4698583   -1.4589061 
H     1.4966047    3.1953673   -1.0229696 
H     1.4165084    2.0432727   -2.3604812 
H    -0.5224765   -0.0499629    3.5349231 
H    -3.4923496   -1.1709024   -0.3601008 
H    -2.4756707    3.5810081    2.1751046 
H    -3.8442557    0.9367080    3.4181910 
H     1.5632280    3.6269073    1.0169390 
H     1.8789153   -0.2059349   -2.8970527 
H     2.2536872   -0.5322377    2.0464443 
H     4.2532873    0.6890409    0.6205379 
H    -1.9133263    0.6664236   -5.9093556 
H    -1.1446051    2.2839269   -6.0615277 
H    -0.7698579    0.9988703   -7.2465601 
H     2.3047184    1.1894107   -5.0229554 
H     1.3205922    2.5757561   -5.5850461 
H     1.7583222    1.2674423   -6.7258440 
H     0.6377224   -1.0677923   -6.4388706 
H     1.2394631   -1.1023118   -4.7596215 
H    -0.5118385   -1.3205933   -5.0855200 
H    -0.0783833    1.0196209    5.7318824 
H    -5.7122137   -2.2097559    0.0132566 
H    -1.9903113    4.6516699    4.3500049 
H    -6.0481611   -0.1416695    3.8025238 
H    -0.8028169    3.3834146    6.1474876 
H    -6.9982901   -1.7140248    2.1042537 
H     2.1987191    4.2946876    3.3102174 
H     3.9405603   -0.8585267   -4.1220166 
H     2.9603708    0.1577810    4.3295771 
H     6.3035776    0.0051305   -0.5989808 
H     2.9194841    2.5772777    4.9763099 
H     6.1666468   -0.7493293   -2.9788885 
