105
Energy =
C    -0.9238054   -2.4283329    0.8655173 
C     0.0674207   -2.6288918   -0.1395758 
C     1.4420342   -2.4549692    0.1255460 
H    -0.2638036   -2.8124520   -1.1694006 
Pd    0.1899814   -0.5246808    0.5182569 
P     1.7764140    1.1546944    0.0159242 
P    -1.3534119    0.8255007    1.6638857 
H    -0.6339418   -2.6168972    1.9098415 
H     1.7481632   -2.4248175    1.1827329 
C    -5.0968615   -2.9969841   -0.0168018 
C    -4.2733329   -2.3275694   -0.9366735 
C    -2.9185253   -2.1236784   -0.6509386 
C    -2.3626158   -2.5813771    0.5659553 
C    -3.2048953   -3.2341815    1.4901995 
C    -4.5575131   -3.4472326    1.1970092 
H    -6.1558552   -3.1591919   -0.2425502 
H    -4.6892803   -1.9601793   -1.8802458 
H    -2.2878377   -1.5855207   -1.3679388 
H    -2.7918601   -3.5850071    2.4414443 
H    -5.1942557   -3.9611784    1.9241289 
C     4.6938135   -3.3412565   -2.5358776 
C     4.9374058   -2.8191341   -1.2563880 
C     3.8674500   -2.5186466   -0.4091260 
C     2.5298475   -2.7227321   -0.8222496 
C     2.3020596   -3.2416746   -2.1194019 
C     3.3724487   -3.5525251   -2.9621733 
H     5.5304715   -3.5846840   -3.1985403 
H     5.9639168   -2.6459275   -0.9193908 
H     4.0644966   -2.1206802    0.5921749 
H     1.2814829   -3.4293988   -2.4660509 
H     3.1768776   -3.9670070   -3.9564712 
O    -1.7711252    0.2809625   -3.0888154 
O     0.1016749    1.5628085   -3.4591941 
N    -1.1110704    1.7611674   -1.5238276 
C    -0.3350178    2.9196904   -1.0381679 
C    -2.0587354    2.1785484    0.5842647 
C    -1.0451140    3.3075810    0.2834885 
C    -2.3811267    1.6077428   -0.8117625 
C     1.1741534    2.6496430   -0.9368725 
C    -0.8528118    1.2248704   -2.7672934 
C    -2.8552155    0.0538899    2.4108303 
C    -0.6340411    1.6549047    3.1358644 
C     2.5986064    1.7618480    1.5427043 
C     3.1814991    0.6899056   -1.0798326 
C    -1.7166574   -0.3866871   -4.4226859 
C    -2.7226993   -0.6052807    3.6520591 
C    -1.1622184    2.8583503    3.6479183 
C    -4.1247858    0.1129701    1.8017693 
C     0.4018191    1.0024959    3.8331339 
C     3.3510052    0.8185124    2.2782615 
C     2.8526925    0.0869335   -2.3122480 
C     2.5134882    3.0833885    2.0168093 
C     4.5235690    1.0115999   -0.7991746 
C    -0.4036646   -1.1718729   -4.5509696 
C    -2.9199935   -1.3334232   -4.3765991 
C    -1.8896002    0.6637822   -5.5273092 
C    -3.8411511   -1.1637376    4.2832409 
C    -0.6445935    3.4057954    4.8291700 
C    -5.2406340   -0.4488479    2.4382565 
C     0.8984620    1.5394519    5.0282500 
C    -5.1054959   -1.0800904    3.6818308 
C     0.3809701    2.7449250    5.5231444 
C     4.0322982    1.1997946    3.4394367 
C     3.8497391   -0.1646673   -3.2600959 
C     3.1797461    3.4586786    3.1932070 
C     5.5202498    0.7416064   -1.7488091 
C     3.9479728    2.5237834    3.8996895 
C     5.1860251    0.1600689   -2.9797452 
H    -0.4318727    3.7462134   -1.7692822 
H    -2.9628312    2.5637826    1.0834549 
H    -0.3275775    3.4631369    1.1057609 
H    -1.5942967    4.2548597    0.1548667 
H    -3.1886077    2.1969549   -1.2928997 
H    -2.6896460    0.5514902   -0.8066844 
H     1.6891980    3.5451085   -0.5479154 
H     1.5496321    2.4812693   -1.9572793 
H    -1.7459128   -0.6596957    4.1442952 
H    -1.9852457    3.3686435    3.1367785 
H    -4.2661344    0.5927099    0.8301679 
H     0.8196081    0.0715829    3.4331937 
H     3.4118200   -0.2179464    1.9266501 
H     1.8114225   -0.1623797   -2.5386857 
H     1.9316415    3.8357247    1.4760282 
H     4.7942720    1.4877170    0.1479561 
H     0.4575735   -0.4937683   -4.6395770 
H    -0.2633965   -1.8205412   -3.6689221 
H    -0.4473434   -1.8144911   -5.4468244 
H    -3.8429148   -0.7707012   -4.1577976 
H    -2.7856493   -2.1107133   -3.6066492 
H    -3.0374944   -1.8321706   -5.3527577 
H    -1.9554810    0.1558566   -6.5045681 
H    -2.8230752    1.2307742   -5.3700748 
H    -1.0403161    1.3621605   -5.5477253 
H    -3.7237295   -1.6578427    5.2532754 
H    -1.0540891    4.3443943    5.2166885 
H    -6.2196024   -0.3934501    1.9518576 
H     1.6996829    1.0218125    5.5639091 
H    -5.9810663   -1.5110085    4.1779246 
H     0.7756370    3.1707967    6.4513368 
H     4.6265424    0.4623670    3.9890717 
H     3.5823118   -0.6263165   -4.2155048 
H     3.0999655    4.4893539    3.5529586 
H     6.5610956    0.9993945   -1.5266453 
H     4.4748818    2.8229864    4.8114656 
H     5.9662904   -0.0425441   -3.7205962 
