105
Energy =
C    -1.0573680   -2.6320766    0.3352332 
C    -0.1230231   -2.5264043   -0.7286408 
C     1.2767640   -2.5519761   -0.5032932 
H    -0.4876804   -2.2805604   -1.7340827 
Pd    0.2792939   -0.8263911    0.6001366 
P     2.0890425    0.6778780    0.4510526 
P    -1.2169793    0.6137115    1.6765461 
H    -0.7197811   -3.1322883    1.2557225 
H     1.6413743   -3.0774026    0.3923490 
C    -5.3226534   -2.6784065   -0.2197895 
C    -4.5029053   -2.0702468   -1.1845772 
C    -3.1161810   -2.0281876   -1.0088867 
C    -2.5171262   -2.5971968    0.1404051 
C    -3.3563276   -3.1862997    1.1116000 
C    -4.7434937   -3.2322337    0.9305265 
H    -6.4076898   -2.7131555   -0.3614931 
H    -4.9479410   -1.6249231   -2.0801248 
H    -2.4973256   -1.5417819   -1.7695125 
H    -2.9109271   -3.6245669    2.0110120 
H    -5.3745270   -3.6986724    1.6934465 
C     4.1443547   -2.0732882   -3.6736921 
C     4.4253839   -2.9071548   -2.5807661 
C     3.4956291   -3.0501557   -1.5436884 
C     2.2591716   -2.3711030   -1.5885246 
C     1.9919275   -1.5325019   -2.6931222 
C     2.9236763   -1.3804132   -3.7234464 
H     4.8780268   -1.9557411   -4.4779216 
H     5.3785481   -3.4429844   -2.5300635 
H     3.7256434   -3.6975691   -0.6912556 
H     1.0566832   -0.9708910   -2.7376772 
H     2.6961695   -0.7081333   -4.5569388 
O    -1.7274911    0.3017908   -3.2744678 
O     0.3519002    1.2178508   -3.6457144 
N    -0.6818275    1.3880498   -1.6034783 
C     0.3139443    2.3639500   -1.1121499 
C    -1.5633344    2.0256987    0.4989938 
C    -0.3350938    2.9189830    0.1874796 
C    -1.9580102    1.4646334   -0.8825736 
C     1.7401203    1.7684900   -1.0035547 
C    -0.6126104    0.9855021   -2.9242698 
C    -0.6172975    1.3424792    3.2522433 
C    -2.9054602    0.0523888    2.1915026 
C     2.5716840    1.8208716    1.8257846 
C     3.7360655   -0.0794075    0.1185582 
C    -1.9599565   -0.0988556   -4.6971089 
C    -0.0379336    0.4633895    4.1916820 
C    -3.0224307   -0.7382739    3.3559538 
C    -0.8039224    2.6943302    3.6006269 
C    -4.0807735    0.4085418    1.4993200 
C     2.7956432    1.2670540    3.1012427 
C     4.1903758   -1.0663562    1.0184996 
C     2.8213529    3.1948600    1.6300996 
C     4.5813771    0.3441073   -0.9229205 
C    -3.3429760   -0.7540992   -4.6366932 
C    -1.9829080    1.1586971   -5.5747756 
C    -0.8904296   -1.1066869   -5.1343323 
C     0.3102398    0.9167366    5.4696032 
C    -4.2784545   -1.1235111    3.8378299 
C    -0.4154251    3.1538026    4.8671912 
C    -5.3367901    0.0090245    1.9786880 
C     0.1269610    2.2654775    5.8072315 
C    -5.4425353   -0.7462267    3.1530734 
C     3.2548742    2.0644240    4.1559180 
C     5.4813524   -1.5939345    0.9014042 
C     3.2684284    3.9950364    2.6911705 
C     5.8680745   -0.2011384   -1.0469918 
C     3.4880679    3.4325421    3.9558209 
C     6.3256268   -1.1580163   -0.1312942 
H     0.4010237    3.1728507   -1.8616655 
H    -2.3853591    2.6176058    0.9349595 
H     0.3740864    2.9694096    1.0272145 
H    -0.6881852    3.9483629    0.0107411 
H    -2.6618010    2.1538904   -1.3914905 
H    -2.4311411    0.4720469   -0.8437159 
H     2.4801182    2.5868661   -1.0268906 
H     1.9189888    1.1632758   -1.9073373 
H     0.1474103   -0.5812365    3.9134723 
H    -2.1291929   -1.0404459    3.9100174 
H    -1.2596646    3.3971356    2.8963252 
H    -4.0453980    1.0084791    0.5872289 
H     2.6069244    0.2033491    3.2741613 
H     3.5272028   -1.4285523    1.8124983 
H     2.6768830    3.6595001    0.6503214 
H     4.2511412    1.0933185   -1.6475877 
H    -3.3192517   -1.6703143   -4.0241159 
H    -4.0822149   -0.0564269   -4.2085380 
H    -3.6677874   -1.0286522   -5.6537663 
H    -0.9964778    1.6452063   -5.5970544 
H    -2.7336134    1.8743382   -5.1976525 
H    -2.2614914    0.8778274   -6.6045391 
H    -1.1551457   -1.5081385   -6.1273601 
H     0.0993538   -0.6328091   -5.1961718 
H    -0.8433452   -1.9522699   -4.4266960 
H     0.7455331    0.2211688    6.1945949 
H    -4.3453256   -1.7212315    4.7527431 
H    -0.5523055    4.2091077    5.1243406 
H    -6.2366103    0.2970258    1.4258022 
H     0.4134122    2.6268601    6.8001052 
H    -6.4260805   -1.0454128    3.5291396 
H     3.4197547    1.6160382    5.1405991 
H     5.8249703   -2.3539276    1.6108567 
H     3.4535556    5.0609024    2.5221059 
H     6.5143888    0.1285953   -1.8667979 
H     3.8411649    4.0575671    4.7822979 
H     7.3342922   -1.5723992   -0.2282715 
