105
Energy =
C     1.1950468   -2.0258580   -0.9706303 
C     0.0166461   -2.5590178   -0.3616307 
C    -1.2701692   -2.0844148   -0.6826658 
H     0.1316294   -3.2706717    0.4656086 
Pd    0.1367748   -0.3908870    0.0826067 
P     1.8529224    1.1942483   -0.2130513 
P    -1.3429791    0.9180769    1.3780439 
H     1.1270624   -1.6840117   -2.0125796 
H    -1.3779650   -1.4498596   -1.5761375 
C     5.1136345   -3.2568738    0.3309768 
C     4.8567825   -3.0215615   -1.0271904 
C     3.5821216   -2.6197564   -1.4451525 
C     2.5380672   -2.4449377   -0.5132050 
C     2.8078463   -2.6949686    0.8536160 
C     4.0817892   -3.0952464    1.2710358 
H     6.1115573   -3.5664959    0.6580068 
H     5.6536432   -3.1452900   -1.7674033 
H     3.3909118   -2.4352866   -2.5061779 
H     2.0144995   -2.5491210    1.5970069 
H     4.2739929   -3.2784913    2.3336620 
C    -5.0021858   -3.6877915    0.7073243 
C    -3.8006922   -4.3216899    1.0638546 
C    -2.5756629   -3.7956790    0.6451470 
C    -2.5258944   -2.6283367   -0.1542869 
C    -3.7461229   -2.0057252   -0.5089016 
C    -4.9700788   -2.5253022   -0.0779986 
H    -5.9604225   -4.1019856    1.0369434 
H    -3.8212264   -5.2347699    1.6676646 
H    -1.6520189   -4.3149621    0.9189030 
H    -3.7235024   -1.1088926   -1.1366655 
H    -5.9026146   -2.0248582   -0.3567329 
O    -1.8571219    0.4602854   -3.1325690 
O     0.0942958    1.5838131   -3.6027551 
N    -1.0821168    1.9788528   -1.6697255 
C    -0.2060314    3.0675107   -1.1823265 
C    -1.9506573    2.4187430    0.4541402 
C    -0.8312926    3.4490450    0.1874812 
C    -2.3620499    1.9625085   -0.9554521 
C     1.2906170    2.7209276   -1.1412860 
C    -0.8734124    1.3596112   -2.8818622 
C    -0.6354390    1.5507092    2.9501739 
C    -2.8890793    0.1189221    1.9821034 
C     2.6235432    1.7217681    1.3661711 
C     3.2850921    0.7210798   -1.2847993 
C    -1.9383401   -0.2366728   -4.4514663 
C     0.3312738    0.7678569    3.6100343 
C    -4.1794926    0.6513475    1.7910259 
C    -1.0966422    2.7381214    3.5552673 
C    -2.7414113   -1.0694857    2.7278922 
C     3.2719930    0.7163866    2.1187573 
C     3.0117915    0.4563231   -2.6459815 
C     2.5921196    3.0367630    1.8653976 
C     4.6137268    0.6556444   -0.8259365 
C    -3.2179358   -1.0661093   -4.3056734 
C    -2.0771722    0.8074390   -5.5661652 
C    -0.7134754   -1.1415117   -4.6410269 
C     0.8239670    1.1607803    4.8611503 
C    -5.2950609    0.0221976    2.3626054 
C    -0.5851809    3.1383901    4.7965871 
C    -3.8555222   -1.6900278    3.3016772 
C     0.3707758    2.3481463    5.4531337 
C    -5.1356893   -1.1430675    3.1236377 
C     3.9070151    1.0323991    3.3248354 
C     4.0541045    0.1482997   -3.5290503 
C     3.2031800    3.3425679    3.0908551 
C     5.6503896    0.3312605   -1.7142540 
C     3.8707043    2.3466947    3.8163274 
C     5.3771770    0.0802585   -3.0652895 
H    -0.2881751    3.9249516   -1.8790033 
H    -2.7893203    2.8698523    1.0069174 
H    -0.0799709    3.4634400    0.9939646 
H    -1.2690399    4.4596071    0.1387110 
H    -3.0844021    2.6723382   -1.4080171 
H    -2.8071049    0.9571098   -0.9861048 
H     1.8537505    3.5879201   -0.7535651 
H     1.6314405    2.5575510   -2.1736357 
H     0.7018371   -0.1472020    3.1342235 
H    -4.3351877    1.5615853    1.2048112 
H    -1.8620650    3.3523797    3.0697306 
H    -1.7446459   -1.5054149    2.8643616 
H     3.2881073   -0.3147466    1.7485991 
H     1.9875763    0.5245661   -3.0303637 
H     2.0992378    3.8382180    1.3066576 
H     4.8546434    0.8683391    0.2186094 
H    -3.1194678   -1.8055225   -3.4932898 
H    -4.0788123   -0.4126602   -4.0864989 
H    -3.4193826   -1.6087072   -5.2440050 
H    -1.1637599    1.4136368   -5.6579777 
H    -2.9346905    1.4711293   -5.3616851 
H    -2.2597832    0.2939897   -6.5253122 
H    -0.8379637   -1.7289531   -5.5665552 
H     0.2090389   -0.5481991   -4.7205886 
H    -0.6222372   -1.8519870   -3.8013335 
H     1.5738686    0.5448769    5.3667652 
H    -6.2919872    0.4491729    2.2116880 
H    -0.9433599    4.0646372    5.2577985 
H    -3.7261640   -2.6096848    3.8804765 
H     0.7628025    2.6597474    6.4267265 
H    -6.0075917   -1.6306557    3.5712372 
H     4.4226521    0.2469080    3.8872992 
H     3.8282514   -0.0374576   -4.5844171 
H     3.1631457    4.3677569    3.4724815 
H     6.6791864    0.2840344   -1.3426185 
H     4.3562041    2.5927283    4.7662011 
H     6.1913341   -0.1626460   -3.7559137 
