105
Energy =
C     1.3891342   -1.9109281   -0.9437528 
C     0.2913655   -2.5508720   -0.2881321 
C    -1.0473777   -2.2308390   -0.5864101 
H     0.5036390   -3.2190647    0.5560092 
Pd    0.1821605   -0.3682055    0.0889836 
P     1.6951203    1.3890446   -0.3161109 
P    -1.3909424    0.8072197    1.4007330 
H     1.2606835   -1.6140503   -1.9937052 
H    -1.2474451   -1.6379272   -1.4925659 
C     5.4478169   -2.6563760    0.2969981 
C     5.1389598   -2.4857416   -1.0599866 
C     3.8187857   -2.2417639   -1.4581982 
C     2.7800943   -2.1626635   -0.5073146 
C     3.1040108   -2.3448485    0.8586508 
C     4.4231124   -2.5884240    1.2561420 
H     6.4806745   -2.8431752    0.6084189 
H     5.9297966   -2.5370567   -1.8150824 
H     3.5870169   -2.1070943   -2.5186881 
H     2.3148966   -2.2695912    1.6168380 
H     4.6558243   -2.7216796    2.3181039 
C    -4.5431464   -4.1891115    0.9549380 
C    -4.6592441   -3.0468443    0.1481215 
C    -3.5114646   -2.4107515   -0.3331741 
C    -2.2215542   -2.8932538   -0.0080556 
C    -2.1219997   -4.0421923    0.8130583 
C    -3.2706440   -4.6853418    1.2819409 
H    -5.4411996   -4.6949655    1.3237781 
H    -5.6479069   -2.6535074   -0.1080192 
H    -3.6036258   -1.5304879   -0.9777423 
H    -1.1403302   -4.4557047    1.0640669 
H    -3.1752383   -5.5825767    1.9020817 
O    -1.9992018    0.1565295   -3.0754705 
O    -0.2132072    1.4881192   -3.6491519 
N    -1.3573889    1.7980972   -1.6820359 
C    -0.5941894    2.9920926   -1.2554513 
C    -2.1973045    2.2004397    0.4610503 
C    -1.2123947    3.3422757    0.1257008 
C    -2.6013841    1.6571929   -0.9195372 
C     0.9326074    2.8158463   -1.2607046 
C    -1.1209225    1.1725261   -2.8857904 
C    -2.8121178   -0.1453247    2.0835867 
C    -0.7043637    1.5631075    2.9272384 
C     2.4598774    2.0452455    1.2167023 
C     3.1296569    1.0427640   -1.4315233 
C    -2.0414697   -0.5848928   -4.3718969 
C    -2.5013411   -1.2939005    2.8415270 
C    -1.2737029    2.7104090    3.5175306 
C    -4.1609233    0.2351342    1.9383022 
C     0.3671803    0.9135384    3.5698014 
C     2.2995954    3.3624026    1.6841293 
C     2.8362834    0.6972333   -2.7701450 
C     3.2441034    1.1401064    1.9672754 
C     4.4736536    1.1458081   -1.0276739 
C    -3.2062170   -1.5562098   -4.1565162 
C    -2.3427376    0.4006794   -5.5076015 
C    -0.7238954   -1.3427836   -4.5840471 
C    -3.5145461   -2.0242960    3.4704050 
C    -0.7658492    3.2038553    4.7264614 
C    -5.1747184   -0.5041513    2.5649631 
C     0.8575033    1.3977073    4.7894699 
C    -4.8544900   -1.6289676    3.3361973 
C     0.2957324    2.5456106    5.3662021 
C     2.9171098    3.7692465    2.8765349 
C     3.8721892    0.4741627   -3.6856876 
C     3.8831067    1.5590490    3.1393837 
C     5.5057519    0.9062802   -1.9477582 
C     3.7178197    2.8748315    3.5994811 
C     5.2112543    0.5731628   -3.2763758 
H    -0.7952511    3.8137156   -1.9708063 
H    -3.0628132    2.5707097    1.0323084 
H    -0.4407544    3.4670810    0.9031377 
H    -1.7643767    4.2946070    0.0660112 
H    -3.4160649    2.2652407   -1.3632154 
H    -2.9278825    0.6069672   -0.9061609 
H     1.4074154    3.7512603   -0.9159731 
H     1.2543887    2.6616794   -2.3006246 
H    -1.4567955   -1.6117677    2.9428083 
H    -2.1201153    3.2204898    3.0459542 
H    -4.4415213    1.1101493    1.3447802 
H     0.8208544    0.0308743    3.1048533 
H     1.6997867    4.0875591    1.1257872 
H     1.7969355    0.6364222   -3.1127656 
H     3.3622091    0.1068918    1.6220939 
H     4.7283670    1.4241990   -0.0019731 
H    -2.9915064   -2.2543966   -3.3302285 
H    -4.1312354   -1.0038580   -3.9211825 
H    -3.3736365   -2.1462585   -5.0726449 
H    -1.5123756    1.1082592   -5.6499335 
H    -3.2661205    0.9635506   -5.2884763 
H    -2.4951183   -0.1602037   -6.4451770 
H    -0.8099040   -1.9708664   -5.4869801 
H     0.1169559   -0.6465741   -4.7168136 
H    -0.5173681   -2.0092879   -3.7289599 
H    -3.2593813   -2.9118422    4.0574826 
H    -1.2086239    4.0987672    5.1759050 
H    -6.2187693   -0.1951791    2.4490373 
H     1.6892108    0.8848423    5.2819583 
H    -5.6473692   -2.2031613    3.8260371 
H     0.6852157    2.9292869    6.3147622 
H     2.7767220    4.7942454    3.2341791 
H     3.6287209    0.2237407   -4.7236157 
H     4.5037080    0.8520218    3.6999561 
H     6.5467403    0.9899953   -1.6189807 
H     4.2070434    3.2005743    4.5230881 
H     6.0206773    0.3961127   -3.9921289 
