105
Energy =
C    -0.0116257   -1.9201121    3.1524921 
C     0.8963978   -2.5141812    2.2395657 
C     2.1566567   -1.9191664    1.9651618 
H     0.5706423   -3.3744300    1.6426381 
Pd    0.4590206   -0.5034484    1.4330426 
P     1.7078170    0.8416672   -0.0433752 
P    -1.6600272    0.4641141    1.3878175 
H     0.4211138   -1.2369844    3.8988149 
H     2.5806290   -1.2602441    2.7376514 
C    -3.8478572   -3.4628979    4.3295816 
C    -3.2627703   -2.3919013    5.0204185 
C    -2.0205238   -1.8913522    4.6137395 
C    -1.3385497   -2.4485382    3.5071305 
C    -1.9520203   -3.5147099    2.8083088 
C    -3.1880999   -4.0188777    3.2207031 
H    -4.8153254   -3.8628063    4.6500599 
H    -3.7695969   -1.9507342    5.8848252 
H    -1.5634752   -1.0631921    5.1652407 
H    -1.4610674   -3.9577898    1.9368099 
H    -3.6441626   -4.8479415    2.6708948 
C     5.1033077   -3.4991188   -0.7425789 
C     3.7534481   -3.8567926   -0.9020544 
C     2.7836378   -3.3483813   -0.0344788 
C     3.1389777   -2.4644042    1.0117644 
C     4.4993932   -2.1137237    1.1583771 
C     5.4717807   -2.6292381    0.2930085 
H     5.8617037   -3.8998797   -1.4229215 
H     3.4576818   -4.5340624   -1.7098652 
H     1.7370788   -3.6364510   -0.1783725 
H     4.7922272   -1.4265810    1.9595513 
H     6.5203418   -2.3444070    0.4268165 
O    -1.0541246    1.6816769   -3.9546462 
O     0.5115199    3.3120532   -3.4818472 
N    -0.6232298    2.2189740   -1.8242507 
C    -0.0726867    3.0672966   -0.7665510 
C    -1.9989916    1.7483750    0.0669822 
C    -1.1732708    3.0391708    0.3134083 
C    -1.6409842    1.2742217   -1.3667886 
C     1.3394612    2.6541847   -0.3023056 
C    -0.3176693    2.4742832   -3.1441542 
C    -2.9438270   -0.8135049    1.0663124 
C    -2.1253758    1.3796232    2.9103290 
C     3.4376182    1.0090575    0.5722864 
C     1.7990027    0.1264300   -1.7269092 
C    -1.1647901    1.9670928   -5.4107586 
C    -2.7013659   -1.7175312    0.0069589 
C    -3.3609082    2.0528388    3.0351666 
C    -4.1357023   -0.9312544    1.8064633 
C    -1.1803366    1.4890286    3.9502579 
C     3.5974765    1.4224573    1.9134951 
C     2.4723457    0.7672974   -2.7892732 
C     4.5777451    0.7632444   -0.2131211 
C     1.1973411   -1.1278762   -1.9484830 
C    -1.7021511    3.3911781   -5.6033183 
C     0.1903716    1.7590124   -6.0961250 
C    -2.1829321    0.9178664   -5.8680548 
C    -3.6565863   -2.6813496   -0.3386215 
C    -3.6524265    2.7848414    4.1938083 
C    -5.0836908   -1.9055279    1.4630228 
C    -1.4720600    2.2257620    5.1068690 
C    -4.8554722   -2.7714284    0.3845298 
C    -2.7123659    2.8676452    5.2331493 
C     4.8769112    1.6057146    2.4521337 
C     2.5649911    0.1392448   -4.0368831 
C     5.8585533    0.9546029    0.3289991 
C     1.2796042   -1.7462787   -3.2027620 
C     6.0121922    1.3761932    1.6563239 
C     1.9756141   -1.1180815   -4.2445105 
H     0.0388820    4.0853398   -1.1769161 
H    -3.0793517    1.9573488    0.1341306 
H    -0.7593449    3.0956339    1.3349081 
H    -1.8300224    3.9152710    0.1884088 
H    -2.5105574    1.2934821   -2.0425052 
H    -1.2419815    0.2411271   -1.3833968 
H     1.5933578    3.1631016    0.6443711 
H     2.0742770    2.9931361   -1.0536904 
H    -1.7551740   -1.6721680   -0.5442050 
H    -4.1010871    2.0128147    2.2289683 
H    -4.3199293   -0.2853988    2.6685599 
H    -0.2058994    0.9995790    3.8413221 
H     2.7131877    1.5983683    2.5403204 
H     2.9140839    1.7594020   -2.6581731 
H     4.4751491    0.4024933   -1.2401908 
H     0.6702660   -1.6166351   -1.1204887 
H    -2.6479762    3.5210291   -5.0493410 
H    -0.9722725    4.1373630   -5.2538301 
H    -1.9023862    3.5666659   -6.6740437 
H     0.5426495    0.7278079   -5.9341222 
H     0.9378442    2.4630365   -5.7018524 
H     0.0775662    1.9227807   -7.1816345 
H    -2.3511432    1.0036405   -6.9546037 
H    -1.8109797   -0.0969865   -5.6471950 
H    -3.1465932    1.0600118   -5.3503253 
H    -3.4599484   -3.3680536   -1.1685383 
H    -4.6156944    3.2976071    4.2828230 
H    -6.0019456   -1.9921399    2.0527093 
H    -0.7284589    2.3019237    5.9069179 
H    -5.6020936   -3.5268263    0.1187828 
H    -2.9435294    3.4425672    6.1357290 
H     4.9897544    1.9288337    3.4922270 
H     3.0900230    0.6420342   -4.8547935 
H     6.7393666    0.7584584   -0.2910087 
H     0.8090137   -2.7219023   -3.3624765 
H     7.0132567    1.5211657    2.0751442 
H     2.0511370   -1.6018804   -5.2238914 
