105
Energy =
C    -0.7827298   -2.2930963    1.2278594 
C     0.1824697   -2.6300765    0.2509788 
C     1.5532443   -2.3015085    0.3980748 
H    -0.1461195   -3.0894608   -0.6876853 
Pd    0.2598023   -0.4105562    0.3808442 
P     2.0182034    1.0840065   -0.1186858 
P    -1.3266892    1.1938877    1.0993340 
H    -0.4073211   -2.0793812    2.2391679 
H     1.9152249   -2.1085961    1.4189033 
C    -4.8994620   -3.5390810    1.1870111 
C    -4.1085875   -3.7207452    0.0405587 
C    -2.7772422   -3.2951490    0.0272954 
C    -2.1985252   -2.6876343    1.1674724 
C    -3.0119013   -2.5071702    2.3101839 
C    -4.3463179   -2.9251186    2.3206101 
H    -5.9420665   -3.8726503    1.1948281 
H    -4.5329171   -4.1992695   -0.8482746 
H    -2.1820196   -3.4486910   -0.8779584 
H    -2.5875007   -2.0351266    3.2027108 
H    -4.9567610   -2.7711368    3.2157377 
C     4.6139318   -3.7622364   -2.2355456 
C     4.9225823   -3.3699098   -0.9248374 
C     3.9239855   -2.8524574   -0.0929604 
C     2.5931452   -2.7260518   -0.5514068 
C     2.3041207   -3.0961115   -1.8862615 
C     3.3019523   -3.6145246   -2.7154205 
H     5.3942894   -4.1710049   -2.8855697 
H     5.9460393   -3.4652158   -0.5490963 
H     4.1694138   -2.5551852    0.9322153 
H     1.2922747   -2.9717608   -2.2813098 
H     3.0578064   -3.9018738   -3.7433979 
O    -1.7534525    0.3592791   -2.9737718 
O     0.4684317    0.7605552   -3.4048688 
N    -0.7398821    2.0589333   -1.9300341 
C     0.3133802    2.9990532   -1.4987145 
C    -1.5511432    2.7877556    0.1201315 
C    -0.2434578    3.5650600   -0.1523197 
C    -2.0050583    2.4429321   -1.3056906 
C     1.7214961    2.4126443   -1.3922780 
C    -0.5827001    1.0344805   -2.8321543 
C    -0.9419240    1.7319392    2.8143723 
C    -3.0801554    0.6531559    1.1910183 
C     2.4948844    1.9316969    1.4483980 
C     3.6198802    0.4505296   -0.7605709 
C    -1.9033594   -0.7226542   -3.9776357 
C    -0.8262427    0.7206086    3.7937196 
C    -3.6037220   -0.0845446    0.1083069 
C    -0.7658443    3.0750827    3.2001041 
C    -3.9308838    1.0407199    2.2455634 
C     2.3328926    1.2245712    2.6575532 
C     3.6603322   -0.0430680   -2.0835574 
C     3.0658051    3.2208104    1.4843759 
C     4.8017898    0.4959115    0.0044181 
C    -1.6892423   -0.1456013   -5.3822577 
C    -0.9336825   -1.8667832   -3.6559075 
C    -3.3566685   -1.1648050   -3.7698261 
C    -0.5526519    1.0433282    5.1270051 
C    -4.9689321   -0.3896174    0.0598444 
C    -0.4707183    3.3946938    4.5344301 
C    -5.2935124    0.7124300    2.2009490 
C    -0.3673350    2.3844369    5.4997688 
C    -5.8153464    0.0081144    1.1058047 
C     2.7266820    1.7921118    3.8760847 
C     4.8812004   -0.4380304   -2.6419107 
C     3.4437933    3.7943416    2.7061150 
C     6.0194008    0.0928693   -0.5637331 
C     3.2761377    3.0816537    3.9031170 
C     6.0630339   -0.3635130   -1.8879615 
H     0.3750657    3.8189684   -2.2419625 
H    -2.3031785    3.3831845    0.6652661 
H     0.4949885    3.4733468    0.6598235 
H    -0.4778687    4.6379867   -0.2553773 
H    -2.4254582    3.3473223   -1.7923996 
H    -2.7479062    1.6420072   -1.3860145 
H     2.4347717    3.2304798   -1.1916031 
H     2.0017618    1.9639078   -2.3549670 
H    -0.9604066   -0.3268877    3.5058154 
H    -2.9381776   -0.4151335   -0.6965119 
H    -0.8603426    3.8863809    2.4740400 
H    -3.5332667    1.6026074    3.0971154 
H     1.8821904    0.2254443    2.6406185 
H     2.7419699   -0.1035727   -2.6790411 
H     3.2263225    3.7864579    0.5610718 
H     4.7798918    0.8655587    1.0344052 
H    -2.3817141    0.6949602   -5.5584515 
H    -0.6539334    0.2062980   -5.5065111 
H    -1.8919467   -0.9254851   -6.1359705 
H    -1.0474254   -2.1562085   -2.5974393 
H     0.1074591   -1.5623429   -3.8332037 
H    -1.1697246   -2.7420904   -4.2847747 
H    -3.6220507   -1.9403167   -4.5074405 
H    -3.4966473   -1.5839718   -2.7583487 
H    -4.0416813   -0.3098880   -3.8951592 
H    -0.4787999    0.2477182    5.8757212 
H    -5.3672208   -0.9560937   -0.7874014 
H    -0.3284910    4.4424321    4.8180514 
H    -5.9505445    1.0161736    3.0226160 
H    -0.1439397    2.6398333    6.5406448 
H    -6.8811910   -0.2400464    1.0721050 
H     2.5888448    1.2310073    4.8051350 
H     4.9070099   -0.8135115   -3.6695628 
H     3.8792739    4.7988626    2.7206060 
H     6.9368994    0.1450511    0.0317875 
H     3.5741539    3.5320267    4.8554870 
H     7.0157612   -0.6706633   -2.3314330 
