105
Energy =
C     1.1250199   -2.1231114   -0.8400562 
C    -0.0817070   -2.5750542   -0.2201982 
C    -1.3442703   -2.0676864   -0.5836378 
H    -0.0060200   -3.2440613    0.6462822 
Pd    0.1224083   -0.3910768    0.1050077 
P     1.8946390    1.1119868   -0.2741884 
P    -1.3068776    1.0404335    1.3234430 
H     1.0854370   -1.8401043   -1.9008192 
H    -1.4168051   -1.4769162   -1.5101335 
C     4.9726469   -3.4258864    0.5976078 
C     3.9304454   -3.1813639    1.5079383 
C     2.6798670   -2.7567755    1.0463009 
C     2.4438903   -2.5654139   -0.3364068 
C     3.4981983   -2.8218525   -1.2375176 
C     4.7495558   -3.2476059   -0.7751128 
H     5.9521750   -3.7553074    0.9590974 
H     4.0963940   -3.3186065    2.5818696 
H     1.8796862   -2.5456485    1.7662380 
H     3.3337877   -2.6820969   -2.3098469 
H     5.5548404   -3.4352611   -1.4924277 
C    -5.1534679   -3.4348210    0.8486727 
C    -3.9843652   -4.1067520    1.2413823 
C    -2.7342392   -3.6569477    0.8081795 
C    -2.6267874   -2.5303826   -0.0424091 
C    -3.8152383   -1.8697092   -0.4341122 
C    -5.0639057   -2.3119498    0.0118005 
H    -6.1314507   -3.7891793    1.1899038 
H    -4.0501180   -4.9899465    1.8850812 
H    -1.8368351   -4.2052123    1.1112950 
H    -3.7479536   -1.0053816   -1.1028502 
H    -5.9709315   -1.7821792   -0.2954716 
O    -1.8358011    0.3659383   -3.1606320 
O     0.1497249    1.4012515   -3.6869824 
N    -1.0087725    1.9303095   -1.7758367 
C    -0.0927501    3.0093192   -1.3437530 
C    -1.8597849    2.5114455    0.3210865 
C    -0.7038737    3.4852264    0.0025239 
C    -2.2878275    1.9967887   -1.0631698 
C     1.3896885    2.6086797   -1.2813496 
C    -0.8232728    1.2446763   -2.9555198 
C    -0.5736152    1.7289851    2.8599889 
C    -2.8793904    0.3290604    1.9667992 
C     2.6910356    1.6905339    1.2736980 
C     3.3021796    0.5261873   -1.3221329 
C    -1.9383700   -0.3956762   -4.4418501 
C     0.3661312    0.9479180    3.5598893 
C    -2.7734572   -0.8316205    2.7616298 
C    -0.9892791    2.9632587    3.4009320 
C    -4.1493202    0.9023209    1.7577876 
C     2.7101445    3.0293746    1.7054389 
C     4.6311345    0.4429083   -0.8671646 
C     3.3043811    0.7008401    2.0750241 
C     3.0097893    0.1884425   -2.6629858 
C    -0.7400945   -1.3438819   -4.5846410 
C    -3.2407760   -1.1799395   -4.2540952 
C    -2.0486854    0.5930881   -5.6089599 
C     0.8773089    1.3895045    4.7871226 
C    -3.9076776   -1.3844883    3.3644964 
C    -0.4593450    3.4108347    4.6181516 
C    -5.2854351    0.3404513    2.3582014 
C     0.4696655    2.6228248    5.3148361 
C    -5.1670107   -0.7974150    3.1667395 
C     3.3369515    3.3738247    2.9125565 
C     5.6492166    0.0275602   -1.7390184 
C     3.9549785    1.0536590    3.2624527 
C     4.0338697   -0.2108678   -3.5305912 
C     3.9695020    2.3916749    3.6865228 
C     5.3571110   -0.2977286   -3.0700952 
H    -0.1416204    3.8315640   -2.0845248 
H    -2.6814607    3.0213702    0.8476622 
H     0.0474774    3.5156710    0.8085977 
H    -1.1050532    4.5067788   -0.1007382 
H    -2.9850148    2.7068600   -1.5532311 
H    -2.7683624    1.0075787   -1.0410909 
H     1.9854313    3.4727021   -0.9382415 
H     1.7237737    2.3790340   -2.3033402 
H     0.7016649   -0.0044275    3.1337773 
H    -1.7933493   -1.2996499    2.9120218 
H    -1.7332865    3.5781685    2.8839447 
H    -4.2727826    1.7925956    1.1343217 
H     2.2449617    3.8190917    1.1076610 
H     4.8867380    0.7106739    0.1611810 
H     3.2803605   -0.3477954    1.7581288 
H     1.9860387    0.2707812   -3.0455341 
H     0.1983717   -0.7824793   -4.6998409 
H    -0.6648839   -2.0088459   -3.7069523 
H    -0.8855895   -1.9780626   -5.4756700 
H    -4.0822212   -0.4920779   -4.0670267 
H    -3.1619294   -1.8808664   -3.4062360 
H    -3.4595379   -1.7623477   -5.1642661 
H    -2.2447332    0.0360790   -6.5407429 
H    -2.8878977    1.2894828   -5.4404727 
H    -1.1190064    1.1686239   -5.7301595 
H     1.6062983    0.7748896    5.3239170 
H    -3.8107542   -2.2831997    3.9813162 
H    -0.7819208    4.3730965    5.0291534 
H    -6.2660727    0.7985543    2.1925687 
H     0.8762505    2.9719548    6.2695341 
H    -6.0548779   -1.2327906    3.6361943 
H     3.3368494    4.4178520    3.2415879 
H     6.6785573   -0.0326200   -1.3707685 
H     4.4431506    0.2788810    3.8630036 
H     3.7939564   -0.4530851   -4.5712970 
H     4.4672663    2.6672674    4.6218315 
H     6.1569153   -0.6127024   -3.7482817 
