105
Energy =
C    -0.0824467   -1.9329652    3.1725062 
C     0.8719667   -2.5350745    2.3098585 
C     2.1480830   -1.9430593    2.1230169 
H     0.5860277   -3.3955655    1.6921877 
Pd    0.4875904   -0.5327384    1.4758724 
P     1.7611952    0.6564619   -0.1115993 
P    -1.5893952    0.5388224    1.4293945 
H     0.3205210   -1.2749191    3.9563197 
H     2.5166847   -1.2885802    2.9279662 
C    -3.9728225   -3.4777752    4.1451449 
C    -3.2968174   -3.9663713    3.0144679 
C    -2.0443737   -3.4552946    2.6649056 
C    -1.4315430   -2.4506787    3.4499794 
C    -2.1338550   -1.9524748    4.5717747 
C    -3.3909374   -2.4622069    4.9174311 
H    -4.9522729   -3.8843107    4.4171785 
H    -3.7533358   -4.7472792    2.3984537 
H    -1.5396838   -3.8422204    1.7743776 
H    -1.6791308   -1.1663843    5.1842247 
H    -3.9125849   -2.0716410    5.7972633 
C     5.2721241   -3.5952216   -0.3263445 
C     5.5754974   -2.9152960    0.8619026 
C     4.5495980   -2.3630052    1.6377126 
C     3.1987993   -2.4997586    1.2512123 
C     2.9065040   -3.1909939    0.0535758 
C     3.9326876   -3.7266978   -0.7302269 
H     6.0745346   -4.0187550   -0.9391456 
H     6.6164552   -2.8027219    1.1811410 
H     4.7939822   -1.8164810    2.5545235 
H     1.8686136   -3.2951616   -0.2763867 
H     3.6882130   -4.2477836   -1.6616733 
O    -1.1077047    1.9310452   -3.8961526 
O     0.6524413    3.3568258   -3.4457545 
N    -0.5228092    2.3332357   -1.7725583 
C     0.1746737    3.0625289   -0.7133320 
C    -1.8335702    1.9039583    0.1713538 
C    -0.8477127    3.0733261    0.4422499 
C    -1.5960798    1.4639049   -1.2968101 
C     1.5680358    2.4959964   -0.3754007 
C    -0.2503397    2.6042502   -3.0958443 
C    -2.9672453   -0.6296163    1.0825319 
C    -1.9855987    1.4327511    2.9862831 
C     3.5609592    0.6345350    0.2842277 
C     1.5889698   -0.0801613   -1.7824374 
C    -1.2560398    2.2893008   -5.3324024 
C    -2.8310434   -1.4805591   -0.0378267 
C    -3.1829603    2.1660108    3.1420483 
C    -4.1305556   -0.7214899    1.8710772 
C    -1.0285736    1.4633062    4.0202809 
C     3.9480276    1.1622944    1.5354364 
C     2.2269289    0.4704942   -2.9142171 
C     4.5450900    0.1439266   -0.5920025 
C     0.8176556   -1.2502502   -1.9283200 
C    -1.6304504    3.7730976   -5.4443536 
C     0.0295022    1.9550477   -6.0975978 
C    -2.4123440    1.3858230   -5.7720109 
C    -3.8597393   -2.3613013   -0.3931553 
C    -3.4265889    2.8794690    4.3230577 
C    -5.1524997   -1.6136650    1.5173066 
C    -1.2718602    2.1815345    5.1996404 
C    -5.0283837   -2.4238220    0.3803694 
C    -2.4754090    2.8837903    5.3555625 
C     5.3017375    1.2319457    1.8866500 
C     2.1089742   -0.1595640   -4.1588138 
C     5.9000947    0.2158374   -0.2345401 
C     0.6885461   -1.8694806   -3.1787767 
C     6.2824139    0.7659450    0.9959054 
C     1.3432558   -1.3283836   -4.2940942 
H     0.3584697    4.0881100   -1.0770518 
H    -2.8766486    2.2368133    0.2974592 
H    -0.3579799    2.9978689    1.4289881 
H    -1.4027754    4.0250335    0.4361691 
H    -2.4947911    1.5895220   -1.9207138 
H    -1.2932472    0.4023383   -1.3781887 
H     1.9606688    2.9830756    0.5346970 
H     2.2601480    2.7497538   -1.1974067 
H    -1.9122690   -1.4591441   -0.6330909 
H    -3.9321254    2.1851506    2.3433492 
H    -4.2363463   -0.1192322    2.7766383 
H    -0.0806713    0.9297698    3.8886439 
H     3.1862607    1.5225911    2.2390028 
H     2.8087385    1.3937073   -2.8370728 
H     4.2618849   -0.3114681   -1.5448863 
H     0.3232300   -1.6734360   -1.0446868 
H    -2.5235464    3.9888980   -4.8326299 
H    -0.8002616    4.4147243   -5.1115474 
H    -1.8651021    4.0143544   -6.4950406 
H     0.2572554    0.8809978   -6.0058301 
H     0.8758686    2.5412608   -5.7102338 
H    -0.1119564    2.1901629   -7.1665063 
H    -2.6207692    1.5343852   -6.8447146 
H    -2.1534715    0.3263790   -5.6057605 
H    -3.3264471    1.6186005   -5.2000765 
H    -3.7436971   -3.0054353   -1.2710073 
H    -4.3612162    3.4386010    4.4352268 
H    -6.0468977   -1.6802488    2.1449787 
H    -0.5184240    2.1963413    5.9939139 
H    -5.8322633   -3.1151126    0.1073278 
H    -2.6689137    3.4442285    6.2759385 
H     5.5921587    1.6517748    2.8554175 
H     2.6112381    0.2727695   -5.0294032 
H     6.6576986   -0.1730820   -0.9223623 
H     0.0830353   -2.7762282   -3.2797716 
H     7.3414375    0.8227795    1.2676857 
H     1.2520511   -1.8123611   -5.2720499 
