105
Energy =
C     1.1956056   -2.2175297   -0.8769580 
C     0.2957380   -2.6280743    0.1439840 
C    -1.0977147   -2.4106733    0.0858612 
H     0.7239471   -3.0437953    1.0644393 
Pd    0.1230233   -0.4318533   -0.0202413 
P     1.8770064    1.0917356   -0.4968757 
P    -1.4169640    0.9920548    1.0888123 
H     0.8074944   -2.1106327   -1.9004440 
H    -1.5504087   -2.2361867   -0.9006051 
C     5.3643425   -3.2261789   -0.5680601 
C     4.7249473   -3.2083148   -1.8159975 
C     3.3780453   -2.8387060   -1.9130474 
C     2.6415635   -2.4928770   -0.7602001 
C     3.3058943   -2.4888874    0.4886615 
C     4.6516928   -2.8549225    0.5838900 
H     6.4179690   -3.5142710   -0.4938483 
H     5.2784530   -3.4786716   -2.7207208 
H     2.8835958   -2.8301853   -2.8898348 
H     2.7676133   -2.1778112    1.3905059 
H     5.1501733   -2.8446550    1.5587658 
C    -3.8908418   -3.6953493    3.0998810 
C    -2.5266957   -3.5877403    3.4188328 
C    -1.6075290   -3.1729109    2.4508418 
C    -2.0298725   -2.8486484    1.1386728 
C    -3.4002553   -2.9928038    0.8287880 
C    -4.3216870   -3.4052192    1.7977415 
H    -4.6098199   -4.0154422    3.8608571 
H    -2.1788840   -3.8313100    4.4281694 
H    -0.5480890   -3.1046583    2.7200388 
H    -3.7416285   -2.7837781   -0.1889250 
H    -5.3794587   -3.4999866    1.5334358 
O    -2.1102842    0.9310032   -2.9899842 
O     0.0594008    1.4495470   -3.5275580 
N    -1.0131335    2.4460243   -1.7496988 
C     0.0888111    3.2713424   -1.2155941 
C    -1.6641428    2.7483116    0.4605132 
C    -0.3250383    3.5021353    0.2752237 
C    -2.2168316    2.7307267   -0.9719989 
C     1.4951000    2.6989397   -1.3787226 
C    -0.9377789    1.5989384   -2.8267637 
C    -0.9299901    1.2089739    2.8471662 
C    -3.1639467    0.4139900    1.1603776 
C     2.6413332    1.5812695    1.1070787 
C     3.2998347    0.5484904   -1.5334503 
C    -2.3154120    0.0240988   -4.1513548 
C    -0.7226937    2.4559656    3.4687053 
C    -3.7807561    0.0232600   -0.0475184 
C    -0.7384408    0.0295535    3.5991554 
C    -3.9221422    0.4335934    2.3473216 
C     3.5183922    2.6818045    1.2189654 
C     3.0926534    0.3796078   -2.9207351 
C     2.3624886    0.8111753    2.2532722 
C     4.5800483    0.3330578   -0.9893312 
C    -1.3407858   -1.1583488   -4.0647883 
C    -3.7610438   -0.4455850   -3.9521674 
C    -2.1695599    0.8172667   -5.4562505 
C    -0.3167909    2.5163512    4.8109243 
C    -5.1475873   -0.2824634   -0.0779030 
C    -0.3521589    0.0936521    4.9421102 
C    -5.2813478    0.0889768    2.3169319 
C    -0.1313911    1.3403917    5.5501847 
C    -5.9005715   -0.2513910    1.1051875 
C     4.0825476    3.0119865    2.4580173 
C     4.1692381    0.0468881   -3.7528036 
C     2.9307387    1.1396824    3.4914321 
C     5.6487419   -0.0089610   -1.8304928 
C     3.7870775    2.2443699    3.5963768 
C     5.4504651   -0.1398399   -3.2118105 
H     0.0809517    4.2430100   -1.7489023 
H    -2.3528074    3.2457647    1.1641526 
H     0.4626808    3.1539309    0.9653146 
H    -0.4718358    4.5772879    0.4718417 
H    -2.6140785    3.7349580   -1.2274725 
H    -3.0059648    1.9979904   -1.1698277 
H     2.2162837    3.4478596   -1.0094385 
H     1.7080377    2.5268078   -2.4417282 
H    -0.8742771    3.3915605    2.9243670 
H    -3.1881842   -0.0403692   -0.9672569 
H    -0.9140904   -0.9419414    3.1273855 
H    -3.4554343    0.7190807    3.2952174 
H     3.7792065    3.2783034    0.3379892 
H     2.0957268    0.5293485   -3.3503971 
H     1.6801083   -0.0426738    2.1704396 
H     4.7491121    0.4359372    0.0863625 
H    -0.3002982   -0.8249342   -4.1884828 
H    -1.4455031   -1.6624681   -3.0886991 
H    -1.5800744   -1.8901629   -4.8548684 
H    -4.4451015    0.4179794   -3.9064208 
H    -3.8603670   -1.0256140   -3.0186756 
H    -4.0641802   -1.0915107   -4.7926342 
H    -2.4383771    0.1705203   -6.3086577 
H    -2.8514895    1.6846029   -5.4517950 
H    -1.1367538    1.1705456   -5.5905335 
H    -0.1519790    3.4916925    5.2800529 
H    -5.6190652   -0.5640198   -1.0255055 
H    -0.2225607   -0.8308432    5.5147897 
H    -5.8608824    0.0989143    3.2458265 
H     0.1793103    1.3942965    6.5986507 
H    -6.9662852   -0.5017348    1.0851950 
H     4.7597895    3.8690171    2.5338547 
H     4.0042969   -0.0644533   -4.8296986 
H     2.6916313    0.5375212    4.3730449 
H     6.6409090   -0.1741303   -1.3983300 
H     4.2282334    2.5079949    4.5632492 
H     6.2910121   -0.3965712   -3.8648478 
