105
Energy =
C     1.2073425   -2.0750044   -0.8454787 
C     0.0168494   -2.5748822   -0.2315502 
C    -1.2628883   -2.1141508   -0.5976173 
H     0.1151969   -3.2443993    0.6322118 
Pd    0.1350866   -0.3867081    0.1038913 
P     1.8549094    1.1820954   -0.2533363 
P    -1.3573900    0.9864644    1.3147771 
H     1.1595099   -1.7872918   -1.9046555 
H    -1.3540395   -1.5237853   -1.5226683 
C     5.0978826   -3.2401090    0.5942298 
C     4.8699535   -3.0676431   -0.7784442 
C     3.6044379   -2.6868242   -1.2414793 
C     2.5406442   -2.4704616   -0.3410517 
C     2.7816456   -2.6563399    1.0414408 
C     4.0463589   -3.0359649    1.5037544 
H     6.0885402   -3.5336536    0.9562944 
H     5.6823142   -3.2245906   -1.4951486 
H     3.4360257   -2.5514533   -2.3137372 
H     1.9731902   -2.4764173    1.7606343 
H     4.2159232   -3.1696345    2.5775714 
C    -5.0220486   -3.6342838    0.8126725 
C    -4.9731111   -2.5095867   -0.0251119 
C    -3.7407192   -2.0167238   -0.4632439 
C    -2.5287671   -2.6279455   -0.0633302 
C    -2.5955684   -3.7570365    0.7880922 
C    -3.8289521   -4.2572048    1.2139300 
H    -5.9868576   -4.0279543    1.1482343 
H    -5.8991119   -2.0180522   -0.3392727 
H    -3.7046766   -1.1506425   -1.1321564 
H    -1.6784706   -4.2676136    1.0978996 
H    -3.8625756   -5.1415195    1.8585703 
O    -1.8195915    0.3050767   -3.1740667 
O     0.1339590    1.4096379   -3.6788139 
N    -1.0624352    1.8954353   -1.7792758 
C    -0.1912023    3.0067303   -1.3364254 
C    -1.9538836    2.4394035    0.3108644 
C    -0.8313533    3.4555302    0.0057458 
C    -2.3498701    1.9133865   -1.0787380 
C     1.3045235    2.6618212   -1.2615680 
C    -0.8405246    1.2183324   -2.9576513 
C    -0.6652457    1.6966827    2.8605350 
C    -2.9098768    0.2177617    1.9410511 
C     2.6115325    1.7855034    1.3050884 
C     3.2959616    0.6543642   -1.2867474 
C    -1.8839438   -0.4568122   -4.4575752 
C     0.2942575    0.9477317    3.5686223 
C    -2.7705056   -0.9368331    2.7396406 
C    -1.1307646    2.9136401    3.4001655 
C    -4.1976687    0.7432162    1.7160759 
C     3.2513600    0.8169160    2.1114440 
C     4.6210277    0.6157584   -0.8147207 
C     2.5773645    3.1231234    1.7396146 
C     3.0335458    0.3160814   -2.6336604 
C    -2.0157751    0.5300407   -5.6240539 
C    -0.6532294   -1.3640418   -4.5899810 
C    -3.1611664   -1.2845531   -4.2840291 
C     0.7757347    1.4034966    4.8026977 
C    -3.8904526   -1.5300258    3.3307167 
C    -0.6305253    3.3762193    4.6243203 
C    -5.3190976    0.1412284    2.3051287 
C     0.3184085    2.6198229    5.3291535 
C    -5.1681443   -0.9898051    3.1177785 
C     3.8756354    1.1902388    3.3066922 
C     5.6648679    0.2446235   -1.6759489 
C     3.1776750    3.4872145    2.9544247 
C     4.0828476   -0.0387670   -3.4904351 
C     3.8369376    2.5268947    3.7334678 
C     5.4022999   -0.0803464   -3.0132538 
H    -0.2646570    3.8287363   -2.0754381 
H    -2.7985221    2.9173898    0.8309986 
H    -0.0888693    3.5103405    0.8187632 
H    -1.2682402    4.4622864   -0.0978733 
H    -3.0676573    2.5990724   -1.5737588 
H    -2.7941918    0.9072886   -1.0639491 
H     1.8643043    3.5465045   -0.9106037 
H     1.6566452    2.4477664   -2.2808442 
H     0.6683740    0.0093237    3.1437148 
H    -1.7756721   -1.3679966    2.9029309 
H    -1.8907374    3.5030217    2.8767219 
H    -4.3468438    1.6270144    1.0890555 
H     3.2688845   -0.2310896    1.7921020 
H     4.8534547    0.8847633    0.2187565 
H     2.0908559    3.8969302    1.1380473 
H     2.0124462    0.3631624   -3.0291669 
H    -2.8791960    1.1978984   -5.4625053 
H    -1.1045929    1.1363511   -5.7354273 
H    -2.1843169   -0.0313766   -6.5585685 
H    -0.5659094   -2.0296497   -3.7139483 
H     0.2672457   -0.7711443   -4.6922842 
H    -0.7672211   -1.9990999   -5.4849375 
H    -3.3507673   -1.8730440   -5.1968216 
H    -3.0675674   -1.9832711   -3.4358204 
H    -4.0271527   -0.6255647   -4.1052782 
H     1.5201650    0.8136340    5.3460408 
H    -3.7676028   -2.4236471    3.9502938 
H    -0.9919064    4.3250159    5.0343241 
H    -6.3139713    0.5625501    2.1272309 
H     0.7017558    2.9803384    6.2892196 
H    -6.0446566   -1.4562777    3.5786605 
H     4.3847046    0.4322504    3.9112960 
H     6.6907819    0.2189592   -1.2943488 
H     3.1358378    4.5297384    3.2855737 
H     3.8654219   -0.2819036   -4.5358645 
H     4.3141105    2.8182089    4.6747198 
H     6.2219466   -0.3598909   -3.6832159 
