90
Energy =
C     1.4099450   -1.5875347   -2.3389118 
C     1.5630285   -0.2362882   -2.7673560 
C     2.3657536    0.6631372   -2.0147364 
H     0.9265730    0.1545559   -3.5713361 
Pd    0.7389862   -0.2029394   -0.7349040 
P     0.3125314    1.5200917    0.8144589 
P    -0.5771737   -1.6658279    0.5566028 
H     2.2397748   -2.0269482   -1.7642621 
H     3.1735425    0.2180553   -1.4126703 
C    -1.3092834   -4.5114352   -3.9458772 
C    -1.4983173   -3.1507315   -4.2438959 
C    -0.6189598   -2.1895519   -3.7380840 
C     0.4738845   -2.5664749   -2.9218050 
C     0.6507648   -3.9378339   -2.6301985 
C    -0.2308800   -4.8998380   -3.1386953 
H    -1.9996810   -5.2621168   -4.3438325 
H    -2.3385787   -2.8400323   -4.8735650 
H    -0.7901819   -1.1331197   -3.9722013 
H     1.4850767   -4.2477655   -1.9910975 
H    -0.0744999   -5.9566770   -2.8992402 
C     2.8676146    4.8894705   -2.6402568 
C     1.7124054    4.2498216   -3.1231697 
C     1.5395702    2.8751790   -2.9409199 
C     2.5133444    2.1083210   -2.2593709 
C     3.6666363    2.7660086   -1.7737850 
C     3.8467461    4.1407725   -1.9714672 
H     3.0013247    5.9660559   -2.7875350 
H     0.9409254    4.8290468   -3.6407646 
H     0.6296470    2.3959260   -3.3150290 
H     4.4268008    2.1893716   -1.2357048 
H     4.7514435    4.6291360   -1.5947540 
C    -1.2644971   -1.1338688    3.5358039 
C    -1.5327430    1.1110891    3.2981654 
C    -0.4717138   -0.8103456    2.2103717 
C    -0.8948931    0.6641481    1.9386598 
C    -2.4490685   -0.1365635    3.4823222 
C    -0.3995324   -0.4463961    4.5938763 
C    -0.5429359    0.8862521    4.4331178 
C    -2.3418627   -1.8182251    0.1224476 
C     0.1089447   -3.3459701    0.7631815 
C     1.7369620    2.2444965    1.6955227 
C    -0.6648937    2.9207076    0.1562920 
C    -3.2518008   -2.5308686    0.9349370 
C     1.4471891   -3.4548158    1.2049546 
C     2.3243496    1.5947697    2.8033490 
C    -0.8387392    4.1170890    0.8834037 
C    -2.8065478   -1.1703641   -1.0393572 
C    -0.5951502   -4.5097775    0.3974486 
C     2.3469495    3.4056072    1.1716377 
C    -1.3273195    2.7531015   -1.0757948 
C    -4.6064801   -2.5869054    0.5840516 
C     2.0572217   -4.7102838    1.3072360 
C     3.4821992    2.1175188    3.3934040 
C    -1.6553426    5.1337803    0.3705384 
C    -4.1635021   -1.2295685   -1.3859615 
C     0.0220727   -5.7654233    0.5031708 
C     3.5070635    3.9197940    1.7669794 
C    -2.1478201    3.7702010   -1.5820727 
C    -5.0626687   -1.9365743   -0.5747184 
C     1.3433139   -5.8696051    0.9587427 
C     4.0751815    3.2815714    2.8788213 
C    -2.3079177    4.9628604   -0.8611509 
H    -1.4864935   -2.1981812    3.7016695 
H    -2.0243386    2.0937646    3.2510699 
H     0.6107196   -0.8805816    2.4268737 
H    -1.7442442    0.6319979    1.2235735 
H    -3.1438926   -0.3009492    2.6401769 
H    -3.0111172   -0.1117365    4.4298240 
H     0.2914004   -0.9673738    5.2636476 
H    -0.0045441    1.6793524    4.9586059 
H    -2.9024214   -3.0434930    1.8371837 
H     2.0195689   -2.5533853    1.4565214 
H     1.8700830    0.6914622    3.2195281 
H    -0.3311230    4.2561211    1.8439530 
H    -2.0939262   -0.6269610   -1.6692457 
H    -1.6166378   -4.4394950    0.0128048 
H     1.9186171    3.9094721    0.2998056 
H    -1.1910419    1.8185161   -1.6335744 
H    -5.3093632   -3.1388184    1.2164999 
H     3.0927875   -4.7856063    1.6545767 
H     3.9217609    1.6139507    4.2606568 
H    -1.7847375    6.0625652    0.9356718 
H    -4.5177489   -0.7258592   -2.2910852 
H    -0.5334106   -6.6644194    0.2167874 
H     3.9671184    4.8231656    1.3535167 
H    -2.6568464    3.6347022   -2.5419950 
H    -6.1227069   -1.9839722   -0.8446604 
H     1.8218772   -6.8511457    1.0368227 
H     4.9790830    3.6881998    3.3438250 
H    -2.9432039    5.7614428   -1.2580499 
