90
Energy =
C     1.2037396   -1.3722777   -2.6104918 
C     1.0389827   -0.0218894   -3.0292041 
C     1.8591202    1.0060165   -2.4835564 
H     0.1722741    0.2548603   -3.6422625 
Pd    0.7375909   -0.0689021   -0.8631053 
P     0.3626565    1.5749623    0.7864900 
P    -0.3886648   -1.6314698    0.4879535 
H     2.2109699   -1.6620965   -2.2733769 
H     2.8588204    0.7095950   -2.1288121 
C    -1.3063687   -4.7220928   -3.6115125 
C    -0.0410177   -4.9192573   -3.0395259 
C     0.7654189   -3.8192074   -2.7247333 
C     0.3240474   -2.4991873   -2.9724812 
C    -0.9606773   -2.3169506   -3.5352960 
C    -1.7615833   -3.4163944   -3.8569888 
H    -1.9383270   -5.5804134   -3.8613402 
H     0.3231365   -5.9331827   -2.8441582 
H     1.7556786   -3.9814379   -2.2855166 
H    -1.3433354   -1.3076400   -3.7167977 
H    -2.7527719   -3.2543451   -4.2916677 
C     1.5200705    5.1731510   -3.4865660 
C     2.7472185    4.6353836   -3.0728028 
C     2.8367886    3.2838947   -2.7165148 
C     1.7046237    2.4403540   -2.7828865 
C     0.4663936    3.0061925   -3.1683828 
C     0.3783170    4.3548440   -3.5223162 
H     1.4480887    6.2287450   -3.7678196 
H     3.6398154    5.2683828   -3.0328614 
H     3.8011813    2.8645826   -2.4076929 
H    -0.4368432    2.3864409   -3.1788599 
H    -0.5878321    4.7759453   -3.8176022 
C    -1.7696755   -0.9032865    3.1862050 
C    -2.0049118    1.3199329    2.7871223 
C    -0.7485219   -0.6260632    2.0139406 
C    -1.1373979    0.8174367    1.5810951 
C    -2.9306183    0.0680283    2.8676045 
C    -1.1096243   -0.1531090    4.3435821 
C    -1.2260100    1.1663017    4.0870006 
C    -1.9492283   -2.2496217   -0.2436320 
C     0.5673027   -3.0584896    1.1160280 
C     1.6382894    1.7290276    2.0873154 
C    -0.0804056    3.2692380    0.2817537 
C    -2.8086428   -1.3080335   -0.8556803 
C     0.0453708   -3.9380455    2.0903411 
C     1.6057790    2.7669168    3.0427191 
C    -1.4136227    3.6083464   -0.0348893 
C    -2.2982880   -3.6138542   -0.2714871 
C     1.8930050   -3.2326783    0.6713626 
C     2.6353581    0.7354523    2.1714097 
C     0.9342049    4.2393574    0.1311368 
C    -4.0205963   -1.7161231   -1.4245268 
C     0.8355610   -4.9803643    2.5925602 
C     2.5565659    2.8002892    4.0704311 
C    -1.7287181    4.9059208   -0.4596431 
C    -3.5056736   -4.0191033   -0.8578633 
C     2.6816363   -4.2752596    1.1777422 
C     3.5789343    0.7682174    3.2080384 
C     0.6110441    5.5339085   -0.2914352 
C    -4.3749082   -3.0742353   -1.4204428 
C     2.1519727   -5.1518982    2.1356193 
C     3.5394199    1.8003418    4.1568883 
C    -0.7190625    5.8717818   -0.5825867 
H    -2.0208409   -1.9591219    3.3583267 
H    -2.4865807    2.2928550    2.6106133 
H     0.2678307   -0.6138841    2.4558438 
H    -1.8315101    0.7474942    0.7226674 
H    -3.4565826   -0.1574761    1.9224281 
H    -3.6575483    0.1327083    3.6932098 
H    -0.5368649   -0.6272385    5.1459495 
H    -0.7881896    1.9897073    4.6558319 
H    -2.5138728   -0.2536355   -0.9124116 
H    -0.9782529   -3.8131159    2.4576065 
H     0.8410506    3.5482535    2.9779048 
H    -2.2141623    2.8670897    0.0557737 
H    -1.6224358   -4.3663973    0.1435131 
H     2.3057317   -2.5401747   -0.0701594 
H     2.6664994   -0.0647011    1.4208241 
H     1.9754266    3.9846772    0.3529353 
H    -4.6810000   -0.9756536   -1.8875337 
H     0.4228479   -5.6596461    3.3455666 
H     2.5299038    3.6081858    4.8090459 
H    -2.7677298    5.1633665   -0.6898703 
H    -3.7625061   -5.0830862   -0.8790376 
H     3.7105181   -4.4013109    0.8252584 
H     4.3483455   -0.0081518    3.2696413 
H     1.4046767    6.2790851   -0.4020432 
H    -5.3187149   -3.3963408   -1.8721802 
H     2.7660318   -5.9674647    2.5312164 
H     4.2798064    1.8309965    4.9629680 
H    -0.9679277    6.8860416   -0.9109098 
