95
Energy =
C    -0.6183659    2.4942259   -1.9129935 
C    -1.8760694    1.8580023   -1.8095597 
C    -2.5500380    1.7998761   -0.5468774 
H    -2.2495858    1.2656099   -2.6541316 
Pd   -0.5797410    0.8104479   -0.3728457 
P    -0.7494524   -0.0532392    1.7926125 
P     1.4174022   -0.2661099   -0.9184546 
H    -0.3540183    3.1971670   -1.1065499 
H    -2.4197313    2.6523754    0.1339421 
C     1.9393375    2.8829069   -5.3395766 
C     2.3263204    3.3949118   -4.0918152 
C     1.4796036    3.2556011   -2.9878417 
C     0.2329119    2.5959031   -3.1045375 
C    -0.1387047    2.0778185   -4.3663365 
C     0.7053621    2.2251820   -5.4706227 
H     2.5950756    2.9972357   -6.2088332 
H     3.2859296    3.9100391   -3.9808539 
H     1.7826823    3.6611026   -2.0165304 
H    -1.0988668    1.5691674   -4.4917091 
H     0.3993400    1.8240540   -6.4418071 
C    -5.9739815   -0.6592399    0.3306083 
C    -5.6677336    0.4535650    1.1271314 
C    -4.5623952    1.2570968    0.8216994 
C    -3.7363181    0.9623448   -0.2861989 
C    -4.0591200   -0.1633028   -1.0825966 
C    -5.1656638   -0.9615718   -0.7788688 
H    -6.8374732   -1.2884307    0.5693612 
H    -6.2915528    0.6991658    1.9928313 
H    -4.3273092    2.1225043    1.4505755 
H    -3.4264641   -0.4282215   -1.9375715 
H    -5.3989789   -1.8284535   -1.4061295 
C     1.9277840   -0.9215363    2.1585168 
C     1.6702456   -2.0799829    1.2389717 
C     0.9246946   -0.0020178    2.5749763 
C     1.4967962   -1.9517655   -0.1661339 
C     3.2264893   -0.7923797    2.6892483 
C     1.6627121   -3.3688928    1.8069400 
C     1.2549499    1.0034677    3.5062682 
C     1.3207608   -3.1105985   -0.9490948 
C    -1.8275944    1.0064789    2.8388134 
C    -1.3418897   -1.7670224    2.0150007 
C     1.4473571   -0.5683356   -2.7288895 
C     3.0001489    0.5186756   -0.4459081 
C     3.5505654    0.2286515    3.5903392 
C     1.4585425   -4.5113723    1.0242331 
C     2.5581724    1.1250472    4.0056074 
C     1.2914788   -4.3808567   -0.3596496 
C    -2.8588841    0.4820435    3.6404740 
C    -1.9381821   -2.4326574    0.9289095 
C     2.5623289   -0.3030589   -3.5439711 
C     2.9794429    1.8041391    0.1269520 
C    -1.6582000    2.4078148    2.7630764 
C    -1.1938597   -2.4279369    3.2528720 
C     0.2698061   -1.0903232   -3.3125052 
C     4.2228906   -0.1736950   -0.5711551 
C    -3.6909843    1.3452592    4.3702512 
C    -2.3861638   -3.7524763    1.0784775 
C     2.5113601   -0.5941446   -4.9153989 
C     4.1712152    2.3991305    0.5626175 
C    -2.4846209    3.2645601    3.4999412 
C    -1.6486535   -3.7439648    3.3975516 
C     0.2323233   -1.3975401   -4.6777578 
C     5.4123392    0.4283923   -0.1420233 
C    -3.5049999    2.7328446    4.3065849 
C    -2.2427843   -4.4068083    2.3105518 
C     1.3580961   -1.1556643   -5.4806273 
C     5.3871611    1.7132942    0.4249614 
H     3.9936242   -1.5043332    2.3687194 
H     1.8016372   -3.4634981    2.8885829 
H     0.4840673    1.6946560    3.8579408 
H     1.2142212   -3.0246073   -2.0337807 
H     4.5725472    0.3151543    3.9725103 
H     1.4375077   -5.4989983    1.4955828 
H     2.7902746    1.9159853    4.7260768 
H     1.1476363   -5.2659493   -0.9876396 
H    -3.0278411   -0.5975084    3.6850619 
H    -2.0438497   -1.9139091   -0.0296154 
H     3.4674387    0.1363749   -3.1149644 
H     2.0211271    2.3203169    0.2557312 
H    -0.8769755    2.8279459    2.1174310 
H    -0.7106274   -1.9167113    4.0931256 
H    -0.6141718   -1.2663524   -2.6860039 
H     4.2388298   -1.1878815   -0.9855683 
H    -4.4931543    0.9261854    4.9864013 
H    -2.8463709   -4.2700201    0.2306502 
H     3.3814489   -0.3785406   -5.5438007 
H     4.1494465    3.3940501    1.0189091 
H    -2.3386171    4.3480027    3.4394980 
H    -1.5335784   -4.2574519    4.3577871 
H    -0.6780788   -1.8183444   -5.1172200 
H     6.3610672   -0.1093301   -0.2411260 
H    -4.1568321    3.4019670    4.8774995 
H    -2.5917387   -5.4383316    2.4256202 
H     1.3296240   -1.3901786   -6.5496937 
H     6.3180923    2.1768049    0.7677432 
