95
Energy =
C    -0.5634376    2.5470730   -1.8578145 
C    -1.8384986    1.9464567   -1.7523686 
C    -2.5004161    1.8856728   -0.4835194 
H    -2.2390918    1.3815511   -2.6033485 
Pd   -0.5590284    0.8338953   -0.3500946 
P    -0.7375688   -0.0722895    1.7967012 
P     1.4023430   -0.2864926   -0.9362823 
H    -0.2704498    3.2262976   -1.0409942 
H    -2.3357429    2.7211705    0.2108561 
C     1.9674491    2.9314130   -5.3046893 
C     2.3825094    3.4066249   -4.0514169 
C     1.5441893    3.2690537   -2.9408474 
C     0.2777940    2.6477823   -3.0565109 
C    -0.1222239    2.1663131   -4.3240997 
C     0.7137112    2.3120040   -5.4347738 
H     2.6168336    3.0444523   -6.1788707 
H     3.3576650    3.8918566   -3.9411795 
H     1.8692389    3.6460439   -1.9651577 
H    -1.0980316    1.6881068   -4.4486378 
H     0.3856810    1.9398289   -6.4102952 
C    -5.9968032   -0.4726697    0.3842860 
C    -5.6520281    0.6213705    1.1908910 
C    -4.5222484    1.3917637    0.8894892 
C    -3.7106697    1.0825142   -0.2250226 
C    -4.0721323   -0.0240678   -1.0313459 
C    -5.2022890   -0.7898282   -0.7310283 
H    -6.8793331   -1.0761018    0.6199124 
H    -6.2643989    0.8780012    2.0615448 
H    -4.2566585    2.2421654    1.5266357 
H    -3.4512057   -0.3001581   -1.8914294 
H    -5.4650833   -1.6429246   -1.3654922 
C     1.9184677   -1.0182822    2.1224196 
C     1.6235850   -2.1503658    1.1814838 
C     0.9433837   -0.0817185    2.5666503 
C     1.4439902   -1.9888878   -0.2193601 
C     3.2244798   -0.9342898    2.6443298 
C     1.5863538   -3.4500883    1.7230939 
C     1.3075509    0.8944569    3.5163189 
C     1.2335666   -3.1264948   -1.0246395 
C    -1.7803441    0.9913848    2.8742018 
C    -1.3712247   -1.7753612    1.9856148 
C     1.4096258   -0.5522450   -2.7526595 
C     3.0091366    0.4464385   -0.4614947 
C     3.5828676    0.0589677    3.5632964 
C     1.3485459   -4.5706900    0.9185592 
C     2.6177270    0.9717258    4.0062557 
C     1.1762141   -4.4075566   -0.4611925 
C    -2.8234141    0.4772344    3.6671899 
C    -1.9808767   -2.4065580    0.8864428 
C     2.5245327   -0.2993421   -3.5717287 
C     3.0274123    1.7201628    0.1370398 
C    -1.5701337    2.3886661    2.8333124 
C    -1.2385642   -2.4636782    3.2102605 
C     0.2144863   -1.0322405   -3.3365159 
C     4.2118570   -0.2755546   -0.6110204 
C    -3.6262138    1.3455093    4.4233234 
C    -2.4570305   -3.7192117    1.0096600 
C     2.4554466   -0.5623313   -4.9480367 
C     4.2382192    2.2744302    0.5739840 
C    -2.3672088    3.2500786    3.5965897 
C    -1.7222354   -3.7719989    3.3289807 
C     0.1584694   -1.3117496   -4.7070885 
C     5.4204219    0.2858892   -0.1802303 
C    -3.3990352    2.7280778    4.3949677 
C    -2.3293134   -4.4004658    2.2288118 
C     1.2838451   -1.0832784   -5.5144075 
C     5.4342024    1.5593749    0.4123259 
H     3.9698400   -1.6593206    2.3024845 
H     1.7291417   -3.5703679    2.8016672 
H     0.5579693    1.5973719    3.8900763 
H     1.1219267   -3.0155758   -2.1065793 
H     4.6100339    0.1109224    3.9377783 
H     1.3058644   -5.5670058    1.3697414 
H     2.8764295    1.7410301    4.7409407 
H     1.0061931   -5.2755893   -1.1062126 
H    -3.0243461   -0.5975884    3.6849013 
H    -2.0735444   -1.8672675   -0.0620906 
H     3.4438965    0.1085928   -3.1419174 
H     2.0843376    2.2589103    0.2843211 
H    -0.7798101    2.8023264    2.1946033 
H    -0.7447105   -1.9799404    4.0605425 
H    -0.6688821   -1.1978158   -2.7063462 
H     4.1974031   -1.2812296   -1.0458148 
H    -4.4379828    0.9344791    5.0322675 
H    -2.9267075   -4.2102725    0.1513374 
H     3.3258735   -0.3567702   -5.5793308 
H     4.2467948    3.2604179    1.0496965 
H    -2.1893359    4.3299237    3.5631989 
H    -1.6195982   -4.3064133    4.2791515 
H    -0.7658903   -1.7004363   -5.1469787 
H     6.3535584   -0.2748449   -0.2980816 
H    -4.0278637    3.4011428    4.9866752 
H    -2.7004910   -5.4262971    2.3233222 
H     1.2411121   -1.2962214   -6.5875079 
H     6.3799202    1.9909524    0.7563186 
