95
Energy =
C    -2.7901850    1.1194031   -1.3428133 
C    -1.8930555    2.2092255   -1.4052673 
C    -0.7908005    2.2131168   -2.3156375 
H    -1.9589568    2.9978840   -0.6446809 
Pd   -0.6351722    0.4660890   -0.9449761 
P     1.6425501   -0.0169151   -0.9944747 
P    -1.0173190   -0.9937863    0.8697012 
H    -2.8531507    0.4709821   -2.2310381 
H    -0.9259070    1.6992523   -3.2786919 
C    -6.1521237    0.7075173    1.3034096 
C    -6.0973123   -0.0003804    0.0940056 
C    -4.9880426    0.1342026   -0.7480471 
C    -3.9177457    0.9912504   -0.4061449 
C    -3.9856588    1.6963411    0.8179974 
C    -5.0890213    1.5524933    1.6637015 
H    -7.0171311    0.5998735    1.9659722 
H    -6.9179150   -0.6656105   -0.1922822 
H    -4.9472526   -0.4265204   -1.6877424 
H    -3.1668940    2.3552321    1.1198120 
H    -5.1211001    2.1029859    2.6095963 
C     2.3092986    5.2039587   -2.2472091 
C     1.6241556    4.8784567   -1.0644085 
C     0.6130999    3.9126385   -1.0799113 
C     0.2563374    3.2537270   -2.2807456 
C     0.9476877    3.6000765   -3.4615227 
C     1.9650715    4.5619262   -3.4449662 
H     3.1061529    5.9544466   -2.2330719 
H     1.8865760    5.3751850   -0.1241034 
H     0.1127410    3.6458513   -0.1421473 
H     0.6823901    3.1067236   -4.4020811 
H     2.4936107    4.8073383   -4.3714848 
C     2.0033999   -0.5443985    1.7928375 
C     1.5487978   -1.9631528    1.6237499 
C     2.1405961    0.3868173    0.7270762 
C     0.2195819   -2.3152386    1.2543643 
C     2.2948786   -0.1115404    3.1041795 
C     2.4630345   -2.9929277    1.9162062 
C     2.4743884    1.7290546    1.0173478 
C    -0.1397289   -3.6748198    1.1781843 
C     2.1199714   -1.7528491   -1.3682634 
C     2.7661559    0.8545959   -2.1613636 
C    -1.0359733   -0.0341082    2.4371834 
C    -2.6123341   -1.8911521    0.7346948 
C     2.6570553    1.2116410    3.3769918 
C     2.1000056   -4.3418954    1.8201753 
C     2.7317450    2.1401756    2.3294549 
C     0.7936230   -4.6832267    1.4510562 
C     1.1716877   -2.6459037   -1.8959130 
C     2.3930922    0.7799078   -3.5197555 
C    -1.1013313   -0.6947872    3.6825180 
C    -2.8675310   -2.5625878   -0.4814294 
C     3.4628963   -2.1581554   -1.2295407 
C     4.0036457    1.4304664   -1.8159194 
C    -0.8923920    1.3650151    2.4010631 
C    -3.5694086   -1.9394996    1.7644004 
C     1.5570336   -3.9408973   -2.2713186 
C     3.2426292    1.2716685   -4.5167918 
C    -1.0588619    0.0459449    4.8705765 
C    -4.0379159   -3.3137766   -0.6439039 
C     3.8428006   -3.4524182   -1.6009703 
C     4.8408380    1.9434042   -2.8180824 
C    -0.8409900    2.1021406    3.5916267 
C    -4.7476525   -2.6805251    1.5900710 
C     2.8911343   -4.3446446   -2.1225592 
C     4.4655737    1.8635882   -4.1664461 
C    -0.9320023    1.4441058    4.8266751 
C    -4.9778536   -3.3790995    0.3969010 
H     2.1960320   -0.8310868    3.9230846 
H     3.4836663   -2.7196921    2.2035168 
H     2.5211618    2.4624220    0.2071041 
H    -1.1624282   -3.9528557    0.9086105 
H     2.8605083    1.5195681    4.4073504 
H     2.8371410   -5.1218758    2.0357628 
H     2.9901032    3.1851174    2.5296549 
H     0.4931196   -5.7334300    1.3803286 
H     0.1299302   -2.3228191   -2.0069716 
H     1.4347346    0.3224038   -3.7941721 
H    -1.1641917   -1.7878177    3.7215114 
H    -2.1422693   -2.4979558   -1.3013441 
H     4.2088027   -1.4607543   -0.8323551 
H     4.3298178    1.4681053   -0.7726072 
H    -0.7857213    1.8659383    1.4320517 
H    -3.4095399   -1.3885255    2.6951773 
H     0.8139703   -4.6337558   -2.6793383 
H     2.9452608    1.2016113   -5.5682251 
H    -1.1143868   -0.4702619    5.8346397 
H    -4.2202587   -3.8418694   -1.5856084 
H     4.8857839   -3.7660227   -1.4882987 
H     5.7986211    2.3953890   -2.5401399 
H    -0.7174822    3.1893610    3.5541998 
H    -5.4914764   -2.7042881    2.3928600 
H     3.1929549   -5.3552482   -2.4165539 
H     5.1277991    2.2574619   -4.9442683 
H    -0.8909905    2.0186275    5.7579251 
H    -5.8961795   -3.9616337    0.2702804 
