95
Energy =
C    -1.0118047    2.6033022   -1.7423891 
C    -2.0320186    1.6383571   -1.8987597 
C    -2.9125959    1.3058254   -0.8229185 
H    -2.0564579    1.0325036   -2.8137375 
Pd   -0.8047516    0.8980279   -0.2317793 
P    -1.0539342   -0.6959045    1.4493327 
P     1.5285639    0.5716784   -0.3604785 
H    -1.1401270    3.3421512   -0.9354742 
H    -3.1686999    2.1040513   -0.1108185 
C     1.8586086    3.8021223   -4.7091909 
C     1.2583764    2.5350797   -4.8009011 
C     0.3259141    2.1263806   -3.8433235 
C    -0.0225170    2.9747502   -2.7665514 
C     0.6003682    4.2403232   -2.6798518 
C     1.5253352    4.6529775   -3.6452830 
H     2.5858108    4.1214728   -5.4628303 
H     1.5187292    1.8620118   -5.6242847 
H    -0.1252187    1.1342055   -3.9302993 
H     0.3492480    4.9062750   -1.8476591 
H     1.9922544    5.6393784   -3.5622147 
C    -5.7031856   -1.9716386   -0.9945366 
C    -5.9782217   -0.8420765   -0.2111487 
C    -5.0721239    0.2245579   -0.1703155 
C    -3.8685071    0.1834974   -0.9062835 
C    -3.6059934   -0.9623538   -1.6946779 
C    -4.5140327   -2.0247166   -1.7411251 
H    -6.4101331   -2.8069419   -1.0250282 
H    -6.9009694   -0.7917020    0.3753868 
H    -5.2964274    1.1043981    0.4410894 
H    -2.6674467   -1.0348089   -2.2555286 
H    -4.2910851   -2.9034831   -2.3558137 
C     1.1084500   -2.4064100    0.6998541 
C     2.0909301   -1.5528865    1.4450363 
C    -0.2937818   -2.1736420    0.6661453 
C     2.4143858   -0.2217930    1.0568000 
C     1.6253883   -3.4989697   -0.0286555 
C     2.7781918   -2.1242516    2.5326055 
C    -1.1109633   -2.9788844   -0.1590421 
C     3.3999389    0.4869802    1.7708670 
C    -0.2114438   -0.3716828    3.0516454 
C    -2.7227982   -1.1424742    2.0813630 
C     1.9155600   -0.5812924   -1.7383580 
C     2.4471139    2.1333511   -0.6517263 
C     0.8026750   -4.3115193   -0.8157405 
C     3.7421593   -1.4034078    3.2482649 
C    -0.5702962   -4.0397403   -0.8934494 
C     4.0557265   -0.0944713    2.8636863 
C     0.3178228    0.9004096    3.3284499 
C    -3.4888551   -0.0591932    2.5610970 
C     3.2317318   -1.0525128   -1.9311660 
C     3.4048807    2.2971751   -1.6687513 
C    -0.1875272   -1.3718597    4.0449016 
C    -3.2002167   -2.4555360    2.2549461 
C     0.8778901   -1.0691578   -2.5535683 
C     2.1572681    3.2151501    0.2088810 
C     0.8811829    1.1700716    4.5840230 
C    -4.7108643   -0.2840861    3.2042952 
C     3.5030198   -1.9726305   -2.9517806 
C     4.0874991    3.5159309   -1.7969376 
C     0.3782086   -1.1001232    5.2952677 
C    -4.4375079   -2.6737503    2.8795801 
C     1.1513313   -1.9963596   -3.5679009 
C     2.8536085    4.4237257    0.0868973 
C     0.9127840    0.1705448    5.5662972 
C    -5.1923971   -1.5932151    3.3567212 
C     2.4648466   -2.4427195   -3.7727209 
C     3.8264621    4.5729959   -0.9142286 
H     2.7041293   -3.6817402    0.0038763 
H     2.5296023   -3.1488489    2.8278808 
H    -2.1806553   -2.7639865   -0.2363082 
H     3.6641361    1.5042920    1.4690176 
H     1.2371964   -5.1413747   -1.3817554 
H     4.2474633   -1.8668977    4.1014863 
H    -1.2234785   -4.6510756   -1.5246003 
H     4.8144645    0.4773031    3.4074078 
H     0.2917056    1.6757333    2.5539477 
H    -3.1160009    0.9649830    2.4380205 
H     4.0377980   -0.7155265   -1.2702046 
H     3.6093313    1.4858156   -2.3725241 
H    -0.6124830   -2.3604944    3.8390947 
H    -2.6082087   -3.3132792    1.9232736 
H    -0.1506006   -0.7419856   -2.3622094 
H     1.3841162    3.1058825    0.9788848 
H     1.2959216    2.1614423    4.7932830 
H    -5.2928926    0.5644283    3.5786176 
H     4.5264878   -2.3321313   -3.1008762 
H     4.8238938    3.6379638   -2.5976817 
H     0.3986438   -1.8799360    6.0636192 
H    -4.8038933   -3.6979601    3.0045786 
H     0.3358988   -2.3792103   -4.1901535 
H     2.6311987    5.2519926    0.7676665 
H     1.3511367    0.3811366    6.5472880 
H    -6.1525954   -1.7709320    3.8517812 
H     2.6799284   -3.1679959   -4.5643823 
H     4.3683945    5.5189342   -1.0152334 
