95
Energy =
C     0.1459260    2.9237288    1.1433142 
C     0.6642848    3.1507996   -0.1652621 
C    -0.1375780    2.9745346   -1.3152917 
H     1.7430407    3.3070308   -0.2945993 
Pd   -0.0557322    1.0570553   -0.0684410 
P    -0.0287155   -0.6621097   -1.6610871 
P    -0.6148122   -0.3684739    1.7059555 
H    -0.9213990    3.1287887    1.3060372 
H    -1.2303359    2.9533618   -1.1736829 
C     2.5075137    2.9427001    4.7433835 
C     3.1208369    2.6613870    3.5104022 
C     2.3661559    2.6552225    2.3342317 
C     0.9782846    2.9313580    2.3619536 
C     0.3768877    3.2141646    3.6080256 
C     1.1340712    3.2207639    4.7859970 
H     3.1000484    2.9445887    5.6639933 
H     4.1926098    2.4405918    3.4696137 
H     2.8573469    2.4158190    1.3841937 
H    -0.6965218    3.4282871    3.6487144 
H     0.6461235    3.4419800    5.7408679 
C     1.0957284    3.6218950   -5.3782499 
C    -0.0639083    2.8832088   -5.0933807 
C    -0.4583236    2.6824524   -3.7679400 
C     0.3081641    3.2003500   -2.6983260 
C     1.4719785    3.9446288   -2.9997939 
C     1.8570601    4.1571774   -4.3277998 
H     1.4008238    3.7855787   -6.4168035 
H    -0.6595556    2.4601709   -5.9082887 
H    -1.3581549    2.0964239   -3.5486794 
H     2.0629888    4.3890624   -2.1924239 
H     2.7518270    4.7496270   -4.5451537 
C    -1.2281376   -2.8305584    0.4363601 
C     0.2092071   -2.9574528    0.0291170 
C    -1.7367765   -1.7519497    1.2107554 
C     0.8421395   -2.1232835   -0.9338570 
C    -2.1029455   -3.8751073    0.0779162 
C     0.9544470   -4.0044329    0.6093117 
C    -3.0980406   -1.7448430    1.5758686 
C     2.1934183   -2.3554356   -1.2648762 
C     0.7757970   -1.2121443    2.5435297 
C    -1.5547798    0.5389735    2.9995897 
C    -1.6490953   -1.2777485   -2.2497080 
C     0.9351803   -0.2658301   -3.1749230 
C    -3.4573938   -3.8495818    0.4298426 
C     2.3005723   -4.2114068    0.2891175 
C    -3.9568011   -2.7779243    1.1796856 
C     2.9221221   -3.3824902   -0.6531048 
C     0.5359902   -2.2397207    3.4808650 
C    -1.2457712    0.4618339    4.3699164 
C    -1.7715400   -2.5299753   -2.8877807 
C     2.0828642    0.5423061   -3.0265456 
C     2.0960871   -0.8656904    2.2053813 
C    -2.6088695    1.3794098    2.5752490 
C    -2.7893415   -0.4708128   -2.0744828 
C     0.5813197   -0.7330986   -4.4557354 
C     1.6145516   -2.8979720    4.0837207 
C    -1.9952873    1.1967399    5.3018661 
C    -3.0190765   -2.9558358   -3.3596355 
C     2.8824614    0.8469552   -4.1339873 
C     3.1718509   -1.5337472    2.8059258 
C    -3.3574039    2.1063661    3.5089026 
C    -4.0379599   -0.9043019   -2.5425145 
C     1.3804604   -0.4172913   -5.5632204 
C     2.9320881   -2.5457693    3.7465134 
C    -3.0514753    2.0141107    4.8773316 
C    -4.1519535   -2.1438575   -3.1887125 
C     2.5326697    0.3658110   -5.4046938 
H    -1.7054570   -4.7099534   -0.5083575 
H     0.4620168   -4.6477541    1.3453834 
H    -3.4934779   -0.9329996    2.1919899 
H     2.6822397   -1.7315290   -2.0185149 
H    -4.1172855   -4.6666943    0.1215685 
H     2.8584902   -5.0194635    0.7725713 
H    -5.0113656   -2.7477570    1.4718229 
H     3.9714918   -3.5376066   -0.9235933 
H    -0.4914637   -2.5347810    3.7214542 
H    -0.4102158   -0.1539544    4.7136647 
H    -0.8931350   -3.1760348   -2.9967855 
H     2.3413242    0.9394404   -2.0371443 
H     2.2729547   -0.0856790    1.4578239 
H    -2.8425162    1.4619888    1.5061716 
H    -2.6954887    0.4912087   -1.5565052 
H    -0.3208423   -1.3349837   -4.5960027 
H     1.4279721   -3.6942141    4.8118928 
H    -1.7421219    1.1341413    6.3651785 
H    -3.1102187   -3.9284196   -3.8543659 
H     3.7677266    1.4777404   -4.0083365 
H     4.1980843   -1.2666056    2.5341786 
H    -4.1763360    2.7490074    3.1695783 
H    -4.9226667   -0.2756678   -2.3986170 
H     1.0971783   -0.7835516   -6.5554121 
H     3.7730291   -3.0683651    4.2142571 
H    -3.6323628    2.5859930    5.6081536 
H    -5.1271054   -2.4825696   -3.5536991 
H     3.1523096    0.6126657   -6.2728237 
