95
Energy =
C    -0.6769851    3.0667206    0.4336773 
C     0.1843631    3.1147112   -0.7096715 
C    -0.2297537    2.5430339   -1.9342032 
H     1.2258844    3.4395284   -0.5932284 
Pd   -0.2441568    1.0065423   -0.2473286 
P     0.7763789   -0.8176299   -1.2839792 
P    -1.2472935   -0.2093406    1.4772952 
H    -1.7590486    3.1255355    0.2523362 
H    -1.3116119    2.3733915   -2.0575031 
C     0.4969985    4.0176977    4.4655650 
C    -0.8531048    4.0426119    4.0876998 
C    -1.2223661    3.7477474    2.7696231 
C    -0.2481282    3.4190244    1.8006574 
C     1.1113347    3.3991089    2.1964883 
C     1.4783835    3.6972238    3.5117641 
H     0.7862479    4.2470491    5.4962202 
H    -1.6258214    4.2918320    4.8224078 
H    -2.2792949    3.7647630    2.4829031 
H     1.8881974    3.1287438    1.4718587 
H     2.5348918    3.6754635    3.7993579 
C     1.9182140    2.2484769   -5.6403868 
C     2.5168087    2.8922646   -4.5450787 
C     1.8401690    2.9908633   -3.3259656 
C     0.5411729    2.4523127   -3.1801518 
C    -0.0489447    1.8063880   -4.2926465 
C     0.6327189    1.7015334   -5.5090111 
H     2.4524282    2.1763052   -6.5933005 
H     3.5191519    3.3206116   -4.6427418 
H     2.3210534    3.5036182   -2.4879210 
H    -1.0543931    1.3827355   -4.1956389 
H     0.1579295    1.1991439   -6.3579825 
C    -1.0880179   -2.8131120    0.3585029 
C     0.3838205   -2.8428780    0.6528679 
C    -1.9558759   -1.7585169    0.7586396 
C     1.3465315   -2.0645984   -0.0456796 
C    -1.6411811   -3.9359531   -0.2883560 
C     0.8292153   -3.7438483    1.6397529 
C    -3.3380928   -1.8693425    0.5043984 
C     2.7130482   -2.2124255    0.2666876 
C    -0.2214315   -0.7503045    2.8889263 
C    -2.6674885    0.7135853    2.1924599 
C    -0.1829613   -1.7918255   -2.4984944 
C     2.3181777   -0.2431862   -2.0979821 
C    -3.0109723   -4.0207880   -0.5640100 
C     2.1863618   -3.8629551    1.9618365 
C    -3.8630928   -2.9862989   -0.1584365 
C     3.1314910   -3.0971020    1.2688062 
C    -0.7027676   -1.7093721    3.8052338 
C    -2.8368034    0.8899709    3.5786551 
C     0.3108379   -3.0117166   -3.0067092 
C     2.6894689   -0.6024549   -3.4059905 
C     1.0688906   -0.2130641    3.0458992 
C    -3.5713094    1.3382721    1.3029001 
C    -1.4693902   -1.3516872   -2.8625561 
C     3.1594682    0.6104471   -1.3475873 
C     0.1043899   -2.1172222    4.8737770 
C    -3.9052417    1.6594733    4.0650037 
C    -0.4730880   -3.7692772   -3.8859794 
C     3.9044777   -0.1457861   -3.9384974 
C     1.8750827   -0.6309346    4.1138037 
C    -4.6415948    2.0962086    1.7927895 
C    -2.2536608   -2.1175458   -3.7358533 
C     4.3796684    1.0466050   -1.8772921 
C     1.3935076   -1.5800217    5.0270546 
C    -4.8102842    2.2584068    3.1783848 
C    -1.7544796   -3.3235052   -4.2501100 
C     4.7571315    0.6620510   -3.1735194 
H    -0.9701148   -4.7461506   -0.5905599 
H     0.0851008   -4.3445469    2.1723406 
H    -4.0184577   -1.0811743    0.8383296 
H     3.4631273   -1.6381145   -0.2835214 
H    -3.4097450   -4.8972636   -1.0843619 
H     2.5018501   -4.5576223    2.7466618 
H    -4.9398738   -3.0473756   -0.3465063 
H     4.1980055   -3.1911051    1.4972202 
H    -1.6997218   -2.1440639    3.6712797 
H    -2.1281780    0.4438546    4.2819897 
H     1.2975924   -3.3748715   -2.6985451 
H     2.0318386   -1.2306288   -4.0137981 
H     1.4369105    0.5255895    2.3260514 
H    -3.4305097    1.2337055    0.2198451 
H    -1.8616309   -0.4227086   -2.4332408 
H     2.8570120    0.9207677   -0.3391206 
H    -0.2688840   -2.8612993    5.5851304 
H    -4.0229576    1.7945572    5.1451068 
H    -0.0880334   -4.7149712   -4.2814180 
H     4.1829257   -0.4251859   -4.9596763 
H     2.8811261   -0.2154953    4.2307519 
H    -5.3401252    2.5678210    1.0939040 
H    -3.2585078   -1.7780122   -4.0069286 
H     5.0326538    1.6932113   -1.2817944 
H     2.0247412   -1.9063720    5.8601827 
H    -5.6419342    2.8577799    3.5625967 
H    -2.3680561   -3.9234587   -4.9302836 
H     5.7085862    1.0058242   -3.5920764 
