95
Energy =
C     0.1933261    3.1321032    1.0245682 
C     1.4402074    2.8694499    0.3764183 
C     1.5236551    2.7341821   -1.0276040 
H     2.3180567    2.6258987    0.9887028 
Pd    0.0672998    1.2248930   -0.1165747 
P     0.6897377   -0.6873976   -1.3512285 
P    -1.6512493    0.0922483    0.9733834 
H    -0.5438921    3.7398445    0.4794549 
H     0.7196326    3.1945496   -1.6234439 
C    -0.3028891    3.0405633    5.3030113 
C     0.6839421    2.2459426    4.6954069 
C     0.8547283    2.2748227    3.3078508 
C     0.0476208    3.1049712    2.4937398 
C    -0.9319477    3.9041569    3.1213382 
C    -1.1077542    3.8704427    4.5100621 
H    -0.4415465    3.0117162    6.3885368 
H     1.3171588    1.5944179    5.3072559 
H     1.6056519    1.6232152    2.8469104 
H    -1.5619987    4.5582175    2.5100716 
H    -1.8799563    4.4924710    4.9735847 
C     5.0522078    1.8579638   -3.3208049 
C     3.9522888    2.4987898   -3.9093439 
C     2.8062675    2.7633771   -3.1514637 
C     2.7416848    2.4066397   -1.7855266 
C     3.8576072    1.7586452   -1.2065106 
C     4.9976110    1.4849239   -1.9673412 
H     5.9479556    1.6457718   -3.9135540 
H     3.9832522    2.7878208   -4.9645082 
H     1.9478426    3.2576553   -3.6182370 
H     3.8339814    1.4551625   -0.1563236 
H     5.8493754    0.9778858   -1.5023729 
C    -0.4714941   -2.5133747    0.9937592 
C    -0.9671797   -2.7925886   -0.3933207 
C    -0.7470969   -1.3221892    1.7195966 
C    -0.5109220   -2.0829149   -1.5401977 
C     0.3348376   -3.4990337    1.6022546 
C    -1.8726363   -3.8553514   -0.5735834 
C    -0.1398010   -1.1219305    2.9799806 
C    -0.9859855   -2.4494253   -2.8143127 
C    -2.6471086    0.9198453    2.2799626 
C    -3.0183230   -0.5501129   -0.0752298 
C     1.1953163   -0.2900706   -3.0699580 
C     2.1016418   -1.5213846   -0.5210866 
C     0.9046375   -3.3047871    2.8648020 
C    -2.3513701   -4.2005689   -1.8433920 
C     0.6782808   -2.1030735    3.5501481 
C    -1.9056563   -3.4949970   -2.9672222 
C    -3.2558365    2.1316450    1.8914010 
C    -3.1613401   -0.0978640   -1.3982560 
C     0.3092336    0.5054299   -3.8294086 
C     2.5675094   -2.7721073   -0.9796635 
C    -2.9549211    0.3645368    3.5366240 
C    -3.9876742   -1.4098641    0.4798939 
C     2.3961527   -0.7345255   -3.6521072 
C     2.6649454   -0.9535173    0.6362977 
C    -4.1574926    2.7778839    2.7440943 
C    -4.2581628   -0.5103893   -2.1684983 
C     0.5959714    0.8061454   -5.1664963 
C     3.6076836   -3.4221558   -0.3032511 
C    -3.8414962    1.0291371    4.3972316 
C    -5.0781317   -1.8231788   -0.2931446 
C     2.6860067   -0.4164113   -4.9871847 
C     3.6992298   -1.6107024    1.3157974 
C    -4.4450542    2.2318562    4.0042034 
C    -5.2151229   -1.3736171   -1.6171394 
C     1.7842005    0.3384404   -5.7498194 
C     4.1763779   -2.8415042    0.8423243 
H     0.5405539   -4.4186068    1.0453633 
H    -2.2190846   -4.4023630    0.3094293 
H    -0.3006709   -0.1815143    3.5150425 
H    -0.6300134   -1.9178599   -3.7012425 
H     1.5390218   -4.0821355    3.3020091 
H    -3.0691946   -5.0198476   -1.9516119 
H     1.1363582   -1.9259498    4.5286539 
H    -2.2650518   -3.7586972   -3.9669820 
H    -3.0276202    2.5621849    0.9088289 
H    -2.4072532    0.5755851   -1.8225212 
H    -0.6103501    0.8863567   -3.3693318 
H     2.1023585   -3.2453289   -1.8512880 
H    -2.5226071   -0.5914757    3.8454353 
H    -3.8883616   -1.7539025    1.5154520 
H     3.1149192   -1.3130074   -3.0654652 
H     2.2603997   -0.0093432    1.0184200 
H    -4.6290490    3.7142841    2.4284199 
H    -4.3635478   -0.1574132   -3.1995025 
H    -0.1039488    1.4123238   -5.7509703 
H     3.9689686   -4.3904819   -0.6648782 
H    -4.0701156    0.5934815    5.3754069 
H    -5.8270866   -2.4949004    0.1389655 
H     3.6274873   -0.7580900   -5.4290041 
H     4.1236517   -1.1668636    2.2221894 
H    -5.1430926    2.7407360    4.6768553 
H    -6.0723439   -1.6953028   -2.2176043 
H     2.0130950    0.5766514   -6.7936447 
H     4.9835010   -3.3571445    1.3730178 
