95
Energy =
C    -0.7663287    3.0165603    0.4495366 
C     0.2027675    3.1650256   -0.5853681 
C    -0.0226703    2.6569810   -1.8845518 
H     1.2049626    3.5337695   -0.3314816 
Pd   -0.1806713    0.9991751   -0.3148074 
P     0.7469176   -0.8788911   -1.3657353 
P    -1.1997936   -0.2482675    1.3874223 
H    -1.8243147    3.0034320    0.1527577 
H    -1.0617012    2.4167427   -2.1627469 
C    -0.1098612    4.0495004    4.5774758 
C    -1.4051336    4.0289295    4.0415117 
C    -1.6060012    3.6946833    2.6965475 
C    -0.5147612    3.3763191    1.8585849 
C     0.7872604    3.4052338    2.4126376 
C     0.9866376    3.7377171    3.7552289 
H     0.0481111    4.3068214    5.6298304 
H    -2.2663976    4.2709807    4.6727295 
H    -2.6210129    3.6754966    2.2853199 
H     1.6517620    3.1471642    1.7905264 
H     2.0010420    3.7489484    4.1674518 
C     2.6628225    2.9871155   -5.2205966 
C     2.8351459    3.8209210   -4.1049430 
C     1.9736008    3.7156937   -3.0077159 
C     0.9135891    2.7798593   -3.0120274 
C     0.7419617    1.9590484   -4.1507041 
C     1.6126728    2.0551310   -5.2394812 
H     3.3407025    3.0675696   -6.0764586 
H     3.6408685    4.5622223   -4.0931698 
H     2.1062415    4.3895693   -2.1551168 
H    -0.0701734    1.2231793   -4.1641181 
H     1.4758567    1.3995214   -6.1050944 
C    -0.8759276   -2.9391332    0.5483286 
C     0.6044201   -2.8041543    0.7446561 
C    -1.8074161   -1.9006797    0.8233100 
C     1.4470472   -1.9960254   -0.0681206 
C    -1.3663638   -4.1905283    0.1258849 
C     1.1914084   -3.5711156    1.7719609 
C    -3.1844276   -2.1419215    0.6443965 
C     2.8341955   -1.9732944    0.1861575 
C    -0.1614962   -0.6384437    2.8422938 
C    -2.7062264    0.6029101    2.0090594 
C    -0.3800332   -1.9146273   -2.3698168 
C     2.1772456   -0.4956981   -2.4541741 
C    -2.7345741   -4.4144292   -0.0661524 
C     2.5659136   -3.5235139    2.0288137 
C    -3.6466968   -3.3841636    0.1919262 
C     3.3907482   -2.7210779    1.2308041 
C    -0.6082648   -1.5481648    3.8245192 
C    -2.9733256    0.7893568    3.3776655 
C    -1.5974508   -1.3646274   -2.8141332 
C     2.4515912   -1.2035002   -3.6406615 
C     1.1184679   -0.0655802    2.9478609 
C    -3.6074475    1.1221656    1.0521693 
C    -0.0448979   -3.2402550   -2.7171974 
C     3.0318027    0.5579582   -2.0643963 
C     0.2179650   -1.8619841    4.9103616 
C    -4.1360447    1.4642557    3.7812560 
C    -2.4669011   -2.1267001   -3.6074655 
C     3.5785807   -0.8771200   -4.4076950 
C     1.9446865   -0.3899799    4.0324704 
C    -4.7688550    1.7898772    1.4594221 
C    -0.9129752   -3.9952480   -3.5151737 
C     4.1608661    0.8736419   -2.8287219 
C     1.4940390   -1.2835647    5.0147137 
C    -5.0358739    1.9605454    2.8284520 
C    -2.1229511   -3.4394888   -3.9614513 
C     4.4364634    0.1550787   -4.0019503 
H    -0.6475033   -4.9918801   -0.0735502 
H     0.5403540   -4.1958231    2.3916111 
H    -3.9103756   -1.3581168    0.8763973 
H     3.4918804   -1.3707375   -0.4467334 
H    -3.0845632   -5.3921091   -0.4122458 
H     2.9888451   -4.1147682    2.8470577 
H    -4.7209156   -3.5458283    0.0568133 
H     4.4699401   -2.6816195    1.4102195 
H    -1.5910312   -2.0227082    3.7272155 
H    -2.2688523    0.4283841    4.1319327 
H    -1.8661514   -0.3423637   -2.5222380 
H     1.7846166   -2.0027770   -3.9755778 
H     1.4679465    0.6177255    2.1670756 
H    -3.3955600    1.0003466   -0.0176953 
H     0.8860007   -3.6837160   -2.3463351 
H     2.8011544    1.1363500   -1.1614014 
H    -0.1298317   -2.5666876    5.6728958 
H    -4.3307597    1.6089923    4.8488639 
H    -3.4152370   -1.6965248   -3.9453447 
H     3.7834631   -1.4318249   -5.3291818 
H     2.9434681    0.0519530    4.1065197 
H    -5.4637366    2.1817794    0.7095334 
H    -0.6496255   -5.0238932   -3.7825870 
H     4.8144949    1.6948715   -2.5193751 
H     2.1404792   -1.5374550    5.8612916 
H    -5.9408861    2.4869568    3.1484408 
H    -2.8023011   -4.0347971   -4.5803109 
H     5.3132941    0.4093475   -4.6061077 
