95
Energy =
C    -0.2486671    3.1015985    0.5973819 
C     0.7971910    3.0756457   -0.3810154 
C     0.5204318    2.6611176   -1.7036506 
H     1.8395853    3.2119831   -0.0671990 
Pd   -0.0295574    1.0457521   -0.1882036 
P     0.8534039   -0.8582537   -1.2093530 
P    -1.5034018   -0.0869722    1.2294096 
H    -1.2592536    3.3535667    0.2474685 
H    -0.5359429    2.6853522   -2.0163318 
C     0.3264891    3.5839402    4.8370591 
C    -0.9157852    3.8567370    4.2467277 
C    -1.0866723    3.7131140    2.8644326 
C    -0.0183015    3.2901814    2.0423406 
C     1.2308432    3.0200834    2.6522073 
C     1.4006472    3.1677810    4.0317031 
H     0.4605557    3.6949773    5.9179322 
H    -1.7591024    4.1825017    4.8644728 
H    -2.0610011    3.9239929    2.4107157 
H     2.0733184    2.6725209    2.0430389 
H     2.3738981    2.9529863    4.4856385 
C     3.2104693    2.2467843   -5.0244439 
C     1.8510640    1.9249766   -5.1558750 
C     0.9922566    2.0649772   -4.0613590 
C     1.4737316    2.5212893   -2.8111111 
C     2.8475510    2.8333000   -2.6924934 
C     3.7028898    2.7007567   -3.7899838 
H     3.8851704    2.1469041   -5.8808970 
H     1.4584561    1.5715253   -6.1147487 
H    -0.0695783    1.8184193   -4.1693995 
H     3.2498773    3.1960463   -1.7422069 
H     4.7624405    2.9530414   -3.6828112 
C    -1.5593083   -2.6063683   -0.0768697 
C    -0.1847846   -2.9027750    0.4491982 
C    -2.3081710   -1.4469440    0.2699080 
C     0.9953365   -2.2580170   -0.0117179 
C    -2.1591526   -3.5773478   -0.9030432 
C    -0.0660589   -3.9240246    1.4120347 
C    -3.6246861   -1.3065885   -0.2144611 
C     2.2455495   -2.6538878    0.5051307 
C    -0.8395911   -0.8772225    2.7370055 
C    -2.8659764    1.0176262    1.7802198 
C    -0.0250619   -1.5747649   -2.6441816 
C     2.5832254   -0.5088595   -1.7142446 
C    -3.4555355   -3.4118852   -1.4045538 
C     1.1778643   -4.2905265    1.9393258 
C    -4.1933246   -2.2752870   -1.0515788 
C     2.3379072   -3.6553543    1.4800533 
C     0.4695756   -0.5722037    3.1510372 
C    -3.2507988    1.1327951    3.1292547 
C    -1.1388689   -0.8944002   -3.1710662 
C     3.1079531   -0.8415870   -2.9758933 
C    -1.6160977   -1.7970713    3.4732203 
C    -3.4876504    1.8409104    0.8136469 
C     0.3451339   -2.8291842   -3.1729451 
C     3.4115906    0.1348954   -0.7660658 
C     1.0009887   -1.1820858    4.2958261 
C    -4.2555081    2.0402951    3.4996252 
C    -1.8723834   -1.4564939   -4.2247063 
C     4.4532580   -0.5708218   -3.2674399 
C    -1.0823340   -2.3973047    4.6197389 
C    -4.4959091    2.7378847    1.1863074 
C    -0.3861875   -3.3831359   -4.2311041 
C     4.7583371    0.3840554   -1.0558184 
C     0.2262784   -2.0918884    5.0298615 
C    -4.8821350    2.8391133    2.5336015 
C    -1.4944721   -2.6983731   -4.7564163 
C     5.2831690    0.0238460   -2.3069514 
H    -1.5804780   -4.4692342   -1.1634686 
H    -0.9768340   -4.4208194    1.7610215 
H    -4.2215662   -0.4370005    0.0739709 
H     3.1612019   -2.1829423    0.1377235 
H    -3.8887109   -4.1741117   -2.0598220 
H     1.2380324   -5.0745532    2.7007159 
H    -5.2165367   -2.1415293   -1.4171493 
H     3.3196984   -3.9420185    1.8703662 
H     1.0674580    0.1377818    2.5699093 
H    -2.7577948    0.5296817    3.8967474 
H    -1.4433875    0.0614876   -2.7298222 
H     2.4699513   -1.3045982   -3.7341670 
H    -2.6283280   -2.0516003    3.1392255 
H    -3.1746382    1.7808812   -0.2362162 
H     1.1910535   -3.3772705   -2.7433350 
H     2.9964514    0.4282317    0.2067956 
H     2.0221357   -0.9471965    4.6128498 
H    -4.5423603    2.1248797    4.5528529 
H    -2.7451342   -0.9297262   -4.6238641 
H     4.8520804   -0.8276837   -4.2540456 
H    -1.6848350   -3.1107553    5.1915843 
H    -4.9755469    3.3644754    0.4272676 
H    -0.0972546   -4.3562339   -4.6417432 
H     5.3966654    0.8666485   -0.3083650 
H     0.6430028   -2.5687328    5.9231705 
H    -5.6648925    3.5457908    2.8275570 
H    -2.0694933   -3.1394732   -5.5772758 
H     6.3348823    0.2219760   -2.5378674 
