95
Energy =
C     0.0716112    2.9512282    1.1522542 
C     0.4123472    3.1648937   -0.2225491 
C    -0.5366798    2.9044026   -1.2369515 
H     1.4545595    3.3645597   -0.5007279 
Pd   -0.1460444    1.0525328    0.0374214 
P     0.0753898   -0.5923989   -1.6022716 
P    -0.5942216   -0.4103607    1.8042194 
H    -0.9690274    3.1415769    1.4490934 
H    -1.5922481    2.8589814   -0.9239196 
C     2.8654659    2.9032597    4.4279638 
C     3.3313898    2.7308649    3.1131695 
C     2.4367460    2.7579800    2.0395623 
C     1.0523067    2.9640341    2.2542911 
C     0.6003251    3.1426916    3.5810563 
C     1.4974026    3.1104388    4.6556157 
H     3.5674179    2.8775756    5.2677045 
H     4.3985746    2.5694313    2.9274251 
H     2.8153103    2.5987373    1.0233063 
H    -0.4673435    3.3014937    3.7667841 
H     1.1237015    3.2470968    5.6757276 
C    -0.0945242    3.2172054   -5.4963346 
C    -1.2958061    2.7649447   -4.9295225 
C    -1.4183469    2.6681755   -3.5400016 
C    -0.3421188    3.0130074   -2.6879176 
C     0.8644990    3.4585556   -3.2746373 
C     0.9823044    3.5627115   -4.6635499 
H     0.0030742    3.3031807   -6.5834469 
H    -2.1406971    2.4947289   -5.5711437 
H    -2.3594567    2.3197781   -3.1009791 
H     1.7123360    3.7405021   -2.6436620 
H     1.9210685    3.9163257   -5.1010967 
C    -1.3038899   -2.7251282    0.3226502 
C     0.1416804   -2.9389338   -0.0213609 
C    -1.7664700   -1.7077551    1.2037450 
C     0.8712114   -2.1143844   -0.9206800 
C    -2.2378496   -3.6368116   -0.2081400 
C     0.7829997   -4.0599248    0.5409354 
C    -3.1379324   -1.6441578    1.5238191 
C     2.2100882   -2.4363674   -1.2218570 
C     0.7911322   -1.3189683    2.5738400 
C    -1.4624448    0.4607529    3.1708485 
C    -1.4274068   -1.2027856   -2.4466980 
C     1.2487065    0.0066893   -2.8806691 
C    -3.6019520   -3.5450756    0.0924305 
C     2.1217790   -4.3547493    0.2572571 
C    -4.0516340   -2.5489656    0.9678973 
C     2.8358310   -3.5415049   -0.6309768 
C     0.5494414   -2.4117573    3.4331168 
C    -1.0635846    0.3493826    4.5161547 
C    -1.3792965   -2.3238695   -3.3017359 
C     1.0142101   -0.0976633   -4.2634349 
C     2.1113358   -0.9255537    2.2902399 
C    -2.5175486    1.3396049    2.8352626 
C    -2.6623195   -0.5875102   -2.1681563 
C     2.4438138    0.6084084   -2.4231808 
C     1.6267929   -3.0968130    4.0072342 
C    -1.7239951    1.0892439    5.5095089 
C    -2.5574444   -2.8071390   -3.8847833 
C     1.9807633    0.3568140   -5.1731181 
C     3.1860101   -1.6199186    2.8629372 
C    -3.1797131    2.0682843    3.8305373 
C    -3.8397349   -1.0799921   -2.7472193 
C     3.4128816    1.0416742   -3.3357860 
C     2.9445764   -2.7026090    3.7209388 
C    -2.7823133    1.9439793    5.1726438 
C    -3.7868102   -2.1865585   -3.6078119 
C     3.1846450    0.9092077   -4.7145149 
H    -1.8765740   -4.4199450   -0.8821245 
H     0.2158947   -4.6953324    1.2285505 
H    -3.4989773   -0.8875461    2.2258424 
H     2.7711973   -1.8243016   -1.9329850 
H    -4.3071194   -4.2563249   -0.3490423 
H     2.6004755   -5.2211384    0.7244096 
H    -5.1121998   -2.4770913    1.2297902 
H     3.8784585   -3.7683313   -0.8758325 
H    -0.4785318   -2.7316708    3.6376430 
H    -0.2275472   -0.2995318    4.7914521 
H    -0.4250142   -2.8270433   -3.4934577 
H     0.0779166   -0.5248582   -4.6339520 
H     2.2899044   -0.0794211    1.6184022 
H    -2.8164528    1.4564150    1.7860738 
H    -2.6968466    0.2583648   -1.4719852 
H     2.6149938    0.7236289   -1.3451701 
H     1.4397284   -3.9448666    4.6742029 
H    -1.4012655    0.9988920    6.5518235 
H    -2.5188951   -3.6761403   -4.5499190 
H     1.7874987    0.2774073   -6.2477306 
H     4.2128132   -1.3151242    2.6366812 
H    -4.0007101    2.7399304    3.5591572 
H    -4.7998382   -0.6062518   -2.5186002 
H     4.3430989    1.4900349   -2.9714646 
H     3.7848922   -3.2446124    4.1672356 
H    -3.2938418    2.5193792    5.9509668 
H    -4.7068708   -2.5733139   -4.0582725 
H     3.9389379    1.2515126   -5.4304523 
