95
Energy =
C    -0.3560904    3.1061656    0.5170510 
C     0.6885295    3.0900687   -0.4628017 
C     0.4239024    2.6326605   -1.7737111 
H     1.7262499    3.2688601   -0.1550026 
Pd   -0.0694732    1.0393260   -0.2167321 
P     0.8791458   -0.8578175   -1.1895332 
P    -1.4982922   -0.1069936    1.2348932 
H    -1.3751948    3.3152285    0.1634793 
H    -0.6331136    2.6133692   -2.0846060 
C     0.2110467    3.7179720    4.7410502 
C    -1.0403396    3.9356589    4.1471228 
C    -1.2093031    3.7497733    2.7696262 
C    -0.1295860    3.3393191    1.9561318 
C     1.1285586    3.1248435    2.5695249 
C     1.2962321    3.3143447    3.9441449 
H     0.3436602    3.8620592    5.8181873 
H    -1.8923008    4.2511273    4.7582898 
H    -2.1907287    3.9173448    2.3131864 
H     1.9803721    2.7876986    1.9674929 
H     2.2765773    3.1423027    4.4009949 
C     3.1217179    2.2253629   -5.0890685 
C     1.7750425    1.8495478   -5.2076102 
C     0.9136016    1.9878165   -4.1149661 
C     1.3799432    2.4966098   -2.8793578 
C     2.7414311    2.8623975   -2.7732220 
C     3.5991744    2.7312108   -3.8690168 
H     3.7979559    2.1274883   -5.9445334 
H     1.3941112    1.4553270   -6.1552279 
H    -0.1382988    1.6983897   -4.2128723 
H     3.1317265    3.2660338   -1.8344950 
H     4.6487566    3.0256889   -3.7718806 
C    -1.4705478   -2.6584324   -0.0087331 
C    -0.0859277   -2.8947631    0.5212255 
C    -2.2581104   -1.5170555    0.3114466 
C     1.0707742   -2.2210888    0.0427322 
C    -2.0383155   -3.6694391   -0.8091865 
C     0.0690382   -3.8880687    1.5078365 
C    -3.5795063   -1.4336778   -0.1727470 
C     2.3344782   -2.5609320    0.5666178 
C    -0.8045177   -0.8374024    2.7590810 
C    -2.8960471    0.9640076    1.7634346 
C     0.0276605   -1.6427791   -2.6048311 
C     2.5958092   -0.4595067   -1.7032193 
C    -3.3408532   -3.5611538   -1.3104135 
C     1.3253950   -4.1985065    2.0415472 
C    -4.1164619   -2.4420401   -0.9835725 
C     2.4623452   -3.5348173    1.5651812 
C     0.4948163   -0.4794359    3.1614925 
C    -3.2790675    1.1010409    3.1109370 
C    -1.1112178   -1.0185911   -3.1475292 
C     3.1340772   -0.8063410   -2.9552915 
C    -1.5485737   -1.7641681    3.5197223 
C    -3.5494142    1.7402239    0.7789851 
C     0.4444197   -2.8957903   -3.1013586 
C     3.3988420    0.2389340   -0.7721018 
C     1.0487070   -1.0435928    4.3190216 
C    -4.3131979    1.9825711    3.4626080 
C    -1.8232939   -1.6348279   -4.1855366 
C     4.4688327   -0.4939185   -3.2536129 
C    -0.9925993   -2.3186359    4.6786527 
C    -4.5869058    2.6109341    1.1332341 
C    -0.2657397   -3.5039390   -4.1441168 
C     4.7357601    0.5300315   -1.0681269 
C     0.3061791   -1.9604319    5.0771545 
C    -4.9712404    2.7335490    2.4792739 
C    -1.3989726   -2.8748843   -4.6856942 
C     5.2750029    0.1564446   -2.3091631 
H    -1.4298158   -4.5469902   -1.0494578 
H    -0.8235871   -4.4078065    1.8700266 
H    -4.2049354   -0.5776721    0.0950381 
H     3.2328799   -2.0676004    0.1862138 
H    -3.7492783   -4.3541173   -1.9447549 
H     1.4133598   -4.9613570    2.8215154 
H    -5.1445108   -2.3526489   -1.3491112 
H     3.4537867   -3.7779170    1.9605880 
H     1.0677082    0.2352393    2.5612600 
H    -2.7622039    0.5357257    3.8913904 
H    -1.4514547   -0.0639480   -2.7303889 
H     2.5145871   -1.3126400   -3.7011378 
H    -2.5526007   -2.0597806    3.1950669 
H    -3.2381635    1.6644537   -0.2703441 
H     1.3101766   -3.4006280   -2.6585076 
H     2.9721440    0.5416963    0.1928662 
H     2.0621836   -0.7674386    4.6272272 
H    -4.5983324    2.0848540    4.5147220 
H    -2.7153517   -1.1517766   -4.5970765 
H     4.8781133   -0.7621105   -4.2328833 
H    -1.5698565   -3.0375635    5.2693560 
H    -5.0911629    3.2004536    0.3605822 
H     0.0593540   -4.4758567   -4.5297109 
H     5.3549585    1.0554671   -0.3335915 
H     0.7404624   -2.4014794    5.9804217 
H    -5.7770851    3.4199070    2.7586090 
H    -1.9570056   -3.3581434   -5.4944364 
H     6.3189883    0.3869764   -2.5449708 
