95
Energy =
C    -0.4414818    3.1638893    0.7927409 
C     0.2645828    3.1878002   -0.4308680 
C    -0.3656828    2.8228882   -1.6608606 
H     1.3501218    3.3493664   -0.4159452 
Pd   -0.4507464    1.1188157   -0.2295863 
P    -0.6818508   -0.7150018   -1.6470518 
P    -0.0361287   -0.2407459    1.6543114 
H    -1.5398230    3.2285290    0.7390745 
H    -1.4374925    3.0454717   -1.7685236 
C     1.1334999    4.1129780    4.6780147 
C    -0.2414433    4.2042955    4.4171334 
C    -0.7387872    3.8765276    3.1510015 
C     0.1298530    3.4656100    2.1148207 
C     1.5134577    3.3747088    2.3938244 
C     2.0078588    3.6918357    3.6620585 
H     1.5238864    4.3647315    5.6694515 
H    -0.9310441    4.5253492    5.2040588 
H    -1.8141139    3.9431422    2.9550892 
H     2.2104874    3.0436231    1.6191341 
H     3.0816719    3.6107368    3.8599015 
C     1.7925797    2.3381953   -5.3577036 
C     2.4432384    2.1143458   -4.1326253 
C     1.7507668    2.2750677   -2.9284604 
C     0.3919981    2.6714204   -2.9191755 
C    -0.2432762    2.9018355   -4.1583163 
C     0.4477701    2.7340845   -5.3644177 
H     2.3328788    2.2046631   -6.3003958 
H     3.4938358    1.8048243   -4.1179914 
H     2.2635257    2.0633125   -1.9834032 
H    -1.2920580    3.2151722   -4.1727029 
H    -0.0686275    2.9095408   -6.3133779 
C     0.0242071   -2.9054083    0.6605377 
C     1.1018554   -2.4925917   -0.2971232 
C    -0.5436062   -2.0196176    1.6198362 
C     0.9118407   -1.5880554   -1.3775691 
C    -0.3889974   -4.2511022    0.6571965 
C     2.3904756   -3.0291306   -0.0893045 
C    -1.5038306   -2.5066781    2.5276806 
C     2.0254529   -1.1847995   -2.1485642 
C     1.7758832   -0.3721496    1.9324304 
C    -0.7987155    0.4192948    3.1872606 
C    -2.0645757   -1.8782718   -1.3044693 
C    -0.9407972   -0.4780445   -3.4530374 
C    -1.3592274   -4.7200730    1.5513904 
C     3.4796721   -2.6502101   -0.8808764 
C    -1.9161005   -3.8449450    2.4913748 
C     3.2987245   -1.7107506   -1.9053644 
C     2.6631572    0.3400275    1.1049172 
C    -2.1705627    0.7501130    3.1279113 
C    -3.0864048   -1.5186522   -0.4092764 
C    -2.0512069    0.3219744   -3.7959542 
C     2.2899446   -1.2498339    2.9106601 
C    -0.0946546    0.6058168    4.3905618 
C    -2.1550079   -3.0886846   -2.0215168 
C    -0.2279097   -1.1410910   -4.4699397 
C     4.0479954    0.2007255    1.2666700 
C    -2.8386111    1.2094248    4.2694901 
C    -4.1863723   -2.3675079   -0.2193532 
C    -2.4434139    0.4563316   -5.1322183 
C     3.6747901   -1.3801812    3.0754368 
C    -0.7653693    1.0821089    5.5268235 
C    -3.2520299   -3.9347561   -1.8266024 
C    -0.6110335   -0.9833941   -5.8105215 
C     4.5547061   -0.6533034    2.2567917 
C    -2.1362515    1.3696207    5.4744858 
C    -4.2687334   -3.5752101   -0.9261824 
C    -1.7171812   -0.1896690   -6.1443282 
H     0.0507487   -4.9310283   -0.0797959 
H     2.5341262   -3.7308772    0.7383608 
H    -1.9334488   -1.8359156    3.2770060 
H     1.8955070   -0.4408742   -2.9399096 
H    -1.6750860   -5.7674262    1.5134045 
H     4.4698247   -3.0727675   -0.6838014 
H    -2.6681347   -4.1999363    3.2031909 
H     4.1461175   -1.3847702   -2.5172259 
H     2.2577276    0.9769226    0.3104423 
H    -2.7159482    0.6428755    2.1825673 
H    -3.0132284   -0.5735792    0.1414180 
H    -2.6164256    0.8318595   -3.0062791 
H     1.6075619   -1.8451588    3.5273059 
H     0.9775881    0.3983211    4.4424473 
H    -1.3687390   -3.3661396   -2.7323205 
H     0.6142372   -1.7949820   -4.2263220 
H     4.7309165    0.7502601    0.6106249 
H    -3.9054750    1.4501578    4.2167759 
H    -4.9783136   -2.0843438    0.4816131 
H    -3.3115221    1.0739303   -5.3847994 
H     4.0692968   -2.0592540    3.8384794 
H    -0.2072799    1.2338420    6.4562434 
H    -3.3178878   -4.8759417   -2.3822002 
H    -0.0465112   -1.4973795   -6.5953895 
H     5.6366677   -0.7640539    2.3836047 
H    -2.6551831    1.7340664    6.3670005 
H    -5.1281315   -4.2376125   -0.7793471 
H    -2.0165741   -0.0785345   -7.1915582 
