95
Energy =
C    -0.7789138    3.1594490    0.1098667 
C     0.6254053    3.1618876   -0.0453649 
C     1.2459405    2.6185661   -1.2084298 
H     1.2490707    3.4386224    0.8144170 
Pd    0.0178633    1.0372497   -0.2171703 
P     0.8395752   -0.7713446   -1.4608141 
P    -1.3304341   -0.2995296    1.1565718 
H    -1.3902590    3.0094201   -0.7948487 
H     0.6921488    2.6880684   -2.1550188 
C    -2.9503940    4.7493130    3.4571366 
C    -1.6125087    5.1227464    3.2566947 
C    -0.8911613    4.6042238    2.1760524 
C    -1.5009357    3.7092103    1.2669820 
C    -2.8550356    3.3566739    1.4716984 
C    -3.5694310    3.8638919    2.5602355 
H    -3.5120740    5.1526181    4.3058740 
H    -1.1310041    5.8274298    3.9425636 
H     0.1443696    4.9234573    2.0197910 
H    -3.3378814    2.6575401    0.7793177 
H    -4.6114810    3.5664733    2.7133791 
C     5.4928596    2.0984459   -1.6889823 
C     4.9373559    2.1306796   -0.3983318 
C     3.5608505    2.3021135   -0.2289004 
C     2.7051720    2.4462107   -1.3469459 
C     3.2783129    2.4132441   -2.6371720 
C     4.6579132    2.2424157   -2.8059269 
H     6.5712700    1.9620235   -1.8197057 
H     5.5827769    2.0156661    0.4787692 
H     3.1421600    2.3064022    0.7839028 
H     2.6308759    2.5207187   -3.5141202 
H     5.0801409    2.2190917   -3.8158792 
C    -0.1471026   -2.8678640    0.7359463 
C    -0.7714701   -2.9520108   -0.6247621 
C    -0.3654710   -1.7988999    1.6487185 
C    -0.4085822   -2.1116915   -1.7128632 
C     0.6665931   -3.9456768    1.1409970 
C    -1.7266911   -3.9641277   -0.8434551 
C     0.2482601   -1.8396315    2.9179405 
C    -1.0258598   -2.2983783   -2.9661044 
C    -1.7857393    0.4916915    2.7517503 
C    -2.8964997   -0.9213022    0.4408630 
C     1.2919522   -0.2424418   -3.1625431 
C     2.2885173   -1.6455322   -0.7657643 
C     1.2876404   -3.9648205    2.3945747 
C    -2.3484728   -4.1284127   -2.0866067 
C     1.0764254   -2.9064489    3.2869676 
C    -1.9972541   -3.2901506   -3.1515050 
C    -3.0216977    0.2771069    3.3923317 
C    -3.4242480   -0.2880466   -0.7004052 
C     2.5161917   -0.5761431   -3.7700704 
C     2.9286018   -1.1205964    0.3709863 
C    -0.8371846    1.3489811    3.3496260 
C    -3.5858699   -2.0091636    1.0169503 
C     0.3718295    0.5700192   -3.8630151 
C     2.7324617   -2.8635144   -1.3237961 
C    -3.2895086    0.8904876    4.6239120 
C    -4.6350646   -0.7282330   -1.2538969 
C     2.8034042   -0.1234333   -5.0672785 
C     4.0121655   -1.8012923    0.9425947 
C    -1.1058445    1.9518536    4.5837069 
C    -4.7985337   -2.4402674    0.4656693 
C     0.6600891    1.0143868   -5.1590873 
C     3.8205060   -3.5350419   -0.7534322 
C    -2.3330624    1.7219584    5.2236647 
C    -5.3242707   -1.8002436   -0.6684132 
C     1.8789566    0.6654562   -5.7650166 
C     4.4602387   -3.0047826    0.3794121 
H     0.8275918   -4.7690622    0.4379710 
H    -1.9954809   -4.6169717   -0.0067256 
H     0.0697889   -1.0314737    3.6330398 
H    -0.7356038   -1.6744164   -3.8155668 
H     1.9309738   -4.8057609    2.6718779 
H    -3.1011704   -4.9116576   -2.2213557 
H     1.5455826   -2.9112270    4.2760287 
H    -2.4660935   -3.4124237   -4.1331051 
H    -3.7823906   -0.3584155    2.9304866 
H    -2.8730936    0.5405000   -1.1610353 
H     3.2566433   -1.1718946   -3.2293826 
H     2.5604669   -0.1893427    0.8134062 
H     0.1117996    1.5483010    2.8365751 
H    -3.1615819   -2.5279297    1.8839155 
H    -0.5756194    0.8537249   -3.3876316 
H     2.2147146   -3.2923456   -2.1890504 
H    -4.2534174    0.7189921    5.1140873 
H    -5.0378757   -0.2365635   -2.1452708 
H     3.7617017   -0.3840542   -5.5281205 
H     4.5028218   -1.3932515    1.8320519 
H    -0.3649438    2.6180124    5.0361625 
H    -5.3311108   -3.2843271    0.9161200 
H    -0.0634477    1.6369490   -5.6954534 
H     4.1653615   -4.4793199   -1.1874661 
H    -2.5477312    2.2018236    6.1839586 
H    -6.2697362   -2.1438844   -1.1006694 
H     2.1079999    1.0162423   -6.7764684 
H     5.3058967   -3.5369955    0.8273825 
