95
Energy =
C    -0.3383634    3.1454070    0.9203520 
C     0.9225418    3.0823914    0.2499982 
C     1.0033838    2.9157390   -1.1507956 
H     1.8409072    3.0174591    0.8478182 
Pd   -0.1497727    1.2073155   -0.1616010 
P     0.7799274   -0.6059167   -1.3511025 
P    -1.6278585   -0.1612157    1.0090800 
H    -1.1815639    3.5957329    0.3762514 
H     0.1210515    3.2076348   -1.7421163 
C    -0.7245399    3.1102120    5.2109342 
C    -1.6794146    3.7584260    4.4150241 
C    -1.5405022    3.7762375    3.0218858 
C    -0.4480067    3.1414113    2.3928776 
C     0.5089310    2.4931412    3.2097435 
C     0.3742807    2.4813359    4.6015587 
H    -0.8336361    3.0940610    6.3000979 
H    -2.5398302    4.2499570    4.8798497 
H    -2.2884760    4.2884109    2.4082705 
H     1.3529583    1.9680439    2.7486089 
H     1.1247473    1.9719949    5.2157060 
C     4.5946337    2.6025718   -3.4923033 
C     4.6270496    2.2642408   -2.1290183 
C     3.4684991    2.3560606   -1.3525871 
C     2.2476633    2.7828813   -1.9251772 
C     2.2276840    3.1062855   -3.3007210 
C     3.3905505    3.0243762   -4.0746010 
H     5.5044567    2.5332611   -4.0974273 
H     5.5614771    1.9270700   -1.6686639 
H     3.5143314    2.0824146   -0.2949285 
H     1.2888872    3.4298715   -3.7623374 
H     3.3541617    3.2841795   -5.1371721 
C    -0.0213963   -2.5215042    1.0704455 
C    -0.4916807   -2.9214027   -0.2964345 
C    -0.4767090   -1.3720767    1.7728322 
C    -0.1669526   -2.1903965   -1.4743482 
C     0.9537166   -3.3387809    1.6808842 
C    -1.2233091   -4.1172177   -0.4249200 
C     0.1193652   -1.0331824    3.0084311 
C    -0.5888515   -2.6749646   -2.7276210 
C    -2.7208309    0.5413961    2.3118408 
C    -2.8891337   -1.0782737    0.0340219 
C     1.1817867   -0.1818145   -3.0905976 
C     2.3279473   -1.1550503   -0.5267030 
C     1.5121885   -3.0134511    2.9213531 
C    -1.6558225   -4.5788875   -1.6742156 
C     1.1040704   -1.8456981    3.5804526 
C    -1.3339259   -3.8567786   -2.8294376 
C    -3.5512104    1.5989771    1.8841675 
C    -3.1158851   -0.7550107   -1.3146458 
C     2.4329662   -0.4270766   -3.6845021 
C     2.9982153   -2.3189932   -0.9595533 
C    -2.8866034    0.0146473    3.6067341 
C    -3.7005569   -2.0396718    0.6702899 
C     0.1583770    0.4224436   -3.8537041 
C     2.8017460   -0.4612450    0.6017227 
C    -4.5312533    2.1205861    2.7354789 
C    -4.1366553   -1.3975919   -2.0299785 
C     2.6421570   -0.1042705   -5.0335068 
C     4.1473122   -2.7551709   -0.2878924 
C    -3.8550429    0.5576747    4.4647124 
C    -4.7159832   -2.6808210   -0.0474664 
C     0.3672235    0.7268004   -5.2042703 
C     3.9462952   -0.9055081    1.2767606 
C    -4.6788909    1.6061810    4.0326489 
C    -4.9352277   -2.3606850   -1.3977592 
C     1.6101968    0.4567279   -5.7983849 
C     4.6242522   -2.0479490    0.8278876 
H     1.2981185   -4.2274433    1.1425583 
H    -1.4706267   -4.6787120    0.4819350 
H    -0.1823661   -0.1155972    3.5215945 
H    -0.3301168   -2.1268598   -3.6378674 
H     2.2781877   -3.6600749    3.3605978 
H    -2.2396974   -5.5022740   -1.7421382 
H     1.5499979   -1.5637558    4.5398096 
H    -1.6556807   -4.2116437   -3.8137087 
H    -3.4335393    2.0053407    0.8721386 
H    -2.4848915   -0.0031625   -1.8026921 
H     3.2509370   -0.8526087   -3.0968607 
H     2.6090883   -2.8935879   -1.8072535 
H    -2.2794668   -0.8282658    3.9487829 
H    -3.5378086   -2.2837137    1.7259167 
H    -0.8064257    0.6515220   -3.3853647 
H     2.2444636    0.4093581    0.9665586 
H    -5.1745297    2.9361331    2.3892084 
H    -4.3064530   -1.1454494   -3.0817643 
H     3.6223061   -0.2888100   -5.4847236 
H     4.6672046   -3.6561475   -0.6298853 
H    -3.9723595    0.1461098    5.4725277 
H    -5.3423493   -3.4297182    0.4482225 
H    -0.4370412    1.1826820   -5.7909755 
H     4.3009898   -0.3657671    2.1608172 
H    -5.4390239    2.0189249    4.7038690 
H    -5.7332570   -2.8614949   -1.9556102 
H     1.7779541    0.6990782   -6.8528220 
H     5.5183316   -2.3970149    1.3549023 
