45
Energy =
C     0.5148484   -0.1936263   -2.3271857 
C     1.2258199    0.8152845   -1.6157025 
C     2.2739264    0.4390293   -0.7294172 
H     0.8355820    1.8391620   -1.5925234 
Pd    0.3733745   -0.5848469   -0.1356078 
P     0.4031393   -0.6822600    2.1785636 
P    -1.6332531   -1.7132084    0.0978499 
H     1.0567782   -1.1306067   -2.5345444 
H     2.7875764   -0.5132799   -0.9384725 
C    -3.2023674    0.1573521   -4.4337925 
C    -2.7205997    1.2561409   -3.7012415 
C    -1.5038695    1.1694018   -3.0211630 
C    -0.7390886   -0.0208222   -3.0700355 
C    -1.2344478   -1.1185424   -3.8151331 
C    -2.4558190   -1.0301031   -4.4891678 
H    -4.1589153    0.2287251   -4.9612731 
H    -3.3023706    2.1822196   -3.6577194 
H    -1.1543922    2.0286707   -2.4399501 
H    -0.6536951   -2.0468531   -3.8562925 
H    -2.8263843   -1.8864719   -5.0611337 
C     4.2152246    2.8548907    2.2349754 
C     4.5910980    1.5159670    2.0409696 
C     3.9639372    0.7509777    1.0537249 
C     2.9415041    1.3082235    0.2478050 
C     2.5722552    2.6584101    0.4551261 
C     3.2088605    3.4235525    1.4358846 
H     4.7083892    3.4569198    3.0048560 
H     5.3773307    1.0705692    2.6585158 
H     4.2555519   -0.2950764    0.9061122 
H     1.7846236    3.1173986   -0.1507499 
H     2.9196814    4.4691851    1.5811662 
Cl    1.5628350   -2.0751385    3.2470530 
Cl    0.7501614    1.0978875    3.1581295 
Cl   -3.4280647   -0.7932811   -0.4888918 
Cl   -1.7640654   -3.5781065   -0.7762015 
N    -1.2438629   -0.9907652    2.5327455 
N    -1.6932375   -2.0922712    1.7639143 
C    -2.1636322   -0.4070888    3.5156051 
C    -2.2246571   -3.2605841    2.4757774 
H    -1.7185459    0.5216806    3.8990966 
H    -2.3447408   -1.0957486    4.3595187 
H    -3.1139767   -0.1717332    3.0078022 
H    -2.3803256   -4.0694073    1.7479371 
H    -3.1835919   -3.0295924    2.9716614 
H    -1.4785947   -3.5822341    3.2214087 
