96
Energy =
C     1.9677073    0.0049269    2.4358027 
C     0.6559296   -0.2559417    2.9065452 
C     0.0409439   -1.5247153    2.7535374 
H     0.0601425    0.5720043    3.3088012 
Pd    0.5450151   -0.5805629    0.7397055 
P    -1.3612068   -1.3733165   -0.4440876 
P     1.5547270    0.8522879   -0.8621563 
H     2.6324760   -0.8600967    2.2967763 
H     0.7098840   -2.3916085    2.6471134 
C     4.0588673    3.7202388    3.0376246 
C     2.6654587    3.6713164    3.2012445 
C     1.9673095    2.4817997    2.9720273 
C     2.6521731    1.3000461    2.6040522 
C     4.0568279    1.3647395    2.4504619 
C     4.7515876    2.5615353    2.6533946 
H     4.6016450    4.6550556    3.2118741 
H     2.1153241    4.5710442    3.4947856 
H     0.8769418    2.4803307    3.0693257 
H     4.6086558    0.4609729    2.1765821 
H     5.8384770    2.5855419    2.5246893 
C    -3.8571503   -2.4823354    4.3041666 
C    -3.5516717   -1.1559886    3.9605530 
C    -2.2992535   -0.8336497    3.4280089 
C    -1.3137332   -1.8312807    3.2484734 
C    -1.6357013   -3.1619319    3.6014693 
C    -2.8941709   -3.4861965    4.1181928 
H    -4.8408680   -2.7320645    4.7148906 
H    -4.3000544   -0.3681503    4.0928918 
H    -2.0954750    0.1999058    3.1274664 
H    -0.8823849   -3.9464891    3.4786273 
H    -3.1217014   -4.5236468    4.3834532 
O    -1.1747141    1.4800375   -0.7865854 
N    -2.5758630    3.5342339    0.3015448 
C    -2.3380782    1.1781051   -0.0938134 
C    -0.4683233    2.5742595   -0.3092512 
C    -3.1098604    2.2396645    0.4162056 
C    -1.1827162    3.6751422    0.1943350 
C    -2.6800423   -0.1726920    0.0505869 
C     0.9296203    2.5133483   -0.3688943 
C    -4.3379429    1.9195749    1.0199833 
C    -0.4419796    4.8109719    0.5676118 
C    -3.9131561   -0.4696682    0.6715038 
C     1.6545727    3.6579029    0.0221339 
C    -1.4419043   -1.4730663   -2.2860646 
C    -1.9509791   -3.0630370   -0.0313475 
C     3.3889915    0.8745874   -0.8856393 
C     1.2162911    0.7708676   -2.6690642 
C    -4.7330591    0.5748902    1.1203812 
C     0.9591465    4.7953808    0.4586358 
C    -0.9608361   -2.6522132   -2.8964462 
C    -1.0503983   -3.9721683    0.5525507 
C     4.1176505    1.9213075   -1.4881238 
C     1.5651652   -0.4137176   -3.3475723 
C    -1.9972094   -0.4579457   -3.0877952 
C    -3.2234843   -3.5180163   -0.4407570 
C     4.0725442   -0.2632695   -0.4161154 
C     0.7383889    1.8767770   -3.3967287 
C    -1.0594077   -2.8213777   -4.2821524 
C    -1.4238660   -5.3077268    0.7620163 
C     5.5147222    1.8522644   -1.5574226 
C     1.4562370   -0.4816878   -4.7406635 
C    -2.0873447   -0.6325495   -4.4758281 
C    -3.6030292   -4.8451060   -0.2067971 
C     5.4694042   -0.3404998   -0.5103592 
C     0.6274996    1.8006012   -4.7926593 
C    -1.6279220   -1.8134194   -5.0750628 
C    -2.7057511   -5.7408795    0.3977327 
C     6.1925346    0.7247760   -1.0656319 
C     0.9911718    0.6265890   -5.4660117 
H    -3.0939458    4.2953784    0.7354960 
H    -4.9777815    2.7164217    1.4133249 
H    -0.9578181    5.6991605    0.9471952 
H    -4.2135479   -1.5052841    0.8410722 
H     2.7467683    3.6504348    0.0258584 
H    -5.6904301    0.3370578    1.5938691 
H     1.5237169    5.6834722    0.7580693 
H    -0.5317397   -3.4534580   -2.2851426 
H    -0.0476833   -3.6313257    0.8319459 
H     3.5949083    2.7802196   -1.9213695 
H     1.9333262   -1.2799695   -2.7860312 
H    -2.3700114    0.4649727   -2.6381500 
H    -3.9074753   -2.8435609   -0.9660037 
H     3.5036860   -1.0912491    0.0230867 
H     0.4655681    2.8022844   -2.8799900 
H    -0.6956536   -3.7461298   -4.7420539 
H    -0.7127797   -6.0081586    1.2123679 
H     6.0763559    2.6744154   -2.0129345 
H     1.7285608   -1.4049460   -5.2612894 
H    -2.5233591    0.1619431   -5.0896949 
H    -4.5962736   -5.1872982   -0.5152297 
H     5.9924617   -1.2310095   -0.1464299 
H     0.2603746    2.6661431   -5.3541206 
H    -1.7087871   -1.9463183   -6.1588076 
H    -3.0024097   -6.7810102    0.5679047 
H     7.2841687    0.6710612   -1.1314672 
H     0.9070059    0.5707407   -6.5562035 
