96
Energy =
C     0.2780766   -1.9832844    2.3091897 
C     1.5451566   -1.3231680    2.3523164 
C     1.6588055   -0.0030146    2.8324958 
H     2.4258781   -1.8150483    1.9234841 
Pd    0.2437039   -0.1848067    0.9984476 
P     1.1868236    1.4456693   -0.4910346 
P    -1.9669161   -0.6468440    0.1321451 
H    -0.4601649   -1.7281309    3.0804124 
H     0.8035380    0.4007433    3.3960256 
C    -0.2490113   -5.8538115    0.4938453 
C     0.8277076   -5.0392991    0.1022237 
C     1.0036580   -3.7795920    0.6830888 
C     0.1147563   -3.3082838    1.6817902 
C    -0.9583532   -4.1428480    2.0697061 
C    -1.1399299   -5.3991764    1.4782488 
H    -0.3896667   -6.8378962    0.0350889 
H     1.5260454   -5.3851205   -0.6670114 
H     1.8306943   -3.1463566    0.3439315 
H    -1.6551861   -3.7978848    2.8402742 
H    -1.9812452   -6.0261739    1.7905966 
C     5.2956182    2.1112264    3.6428490 
C     5.3400218    0.9296926    2.8824274 
C     4.1621436    0.2527828    2.5619143 
C     2.9095907    0.7378957    3.0099459 
C     2.8785837    1.9454975    3.7482773 
C     4.0600802    2.6240855    4.0652581 
H     6.2235075    2.6332125    3.8982108 
H     6.3010996    0.5380797    2.5356270 
H     4.2184831   -0.6635767    1.9672323 
H     1.9145322    2.3359885    4.0935982 
H     4.0185714    3.5476063    4.6516736 
O    -1.4556692    2.3199489    0.4280578 
N    -2.9509328    4.4307385   -0.2997346 
C    -0.8291858    3.3272226   -0.2817434 
C    -2.7416822    2.0622689   -0.0041727 
C    -1.5785126    4.4810370   -0.5942755 
C    -3.5674774    3.1666274   -0.3128280 
C     0.4972803    3.1462156   -0.6743459 
C    -3.1673577    0.7407403   -0.1141844 
C    -0.9111146    5.5495860   -1.2128788 
C    -4.9072656    2.9164829   -0.6411093 
C     1.1546892    4.2354852   -1.2965645 
C    -4.5271736    0.5077065   -0.4333680 
C     2.9927183    1.7802663   -0.3450053 
C     1.0207598    0.7153933   -2.1778814 
C    -1.9932781   -1.5080832   -1.4871724 
C    -2.9818130   -1.6799769    1.2778894 
C     0.4537223    5.4255245   -1.5318281 
C    -5.3792257    1.5902197   -0.6754440 
C     3.4374061    2.8436531    0.4705311 
C     1.1742412   -0.6832594   -2.2982263 
C    -2.3487387   -0.8298954   -2.6703568 
C    -3.0445682   -1.2510725    2.6209248 
C     3.9411454    0.9981078   -1.0350871 
C     0.7916615    1.4864335   -3.3335575 
C    -1.5671888   -2.8518924   -1.5567464 
C    -3.7367821   -2.7965750    0.8743926 
C     4.8013896    3.1487763    0.5475185 
C     1.1439137   -1.2935348   -3.5575050 
C    -2.3067868   -1.4996855   -3.9006462 
C    -3.8319120   -1.9415092    3.5502061 
C     5.3076349    1.2984333   -0.9379977 
C     0.7390583    0.8665235   -4.5905454 
C    -1.5385003   -3.5167212   -2.7891168 
C    -4.5228444   -3.4879114    1.8099895 
C     5.7395806    2.3811206   -0.1590524 
C     0.9264924   -0.5185273   -4.7063231 
C    -1.9126213   -2.8444743   -3.9626479 
C    -4.5675438   -3.0687664    3.1467959 
H    -3.5179520    5.2271609   -0.5845468 
H    -1.4549050    6.4686133   -1.4554310 
H    -5.5796446    3.7493844   -0.8719931 
H     2.2017644    4.1440978   -1.5988041 
H    -4.9065030   -0.5168262   -0.4912370 
H     0.9670846    6.2682442   -2.0051894 
H    -6.4306369    1.4061241   -0.9167796 
H     2.7160730    3.4515266    1.0255130 
H     1.3061166   -1.2956247   -1.3971671 
H    -2.6600201    0.2184938   -2.6327384 
H    -2.4782819   -0.3654590    2.9355752 
H     3.6139350    0.1731615   -1.6759702 
H     0.6560672    2.5696977   -3.2559649 
H    -1.2710901   -3.3847346   -0.6492921 
H    -3.7135644   -3.1338190   -0.1658417 
H     5.1314060    3.9863945    1.1696851 
H     1.2647991   -2.3780238   -3.6372344 
H    -2.5838110   -0.9651974   -4.8148980 
H    -3.8737680   -1.6000485    4.5896817 
H     6.0338569    0.6938246   -1.4913618 
H     0.5572492    1.4727184   -5.4842649 
H    -1.2215733   -4.5642659   -2.8263298 
H    -5.1018702   -4.3596616    1.4877780 
H     6.8053635    2.6246398   -0.0989867 
H     0.8890825   -0.9967532   -5.6905108 
H    -1.8899734   -3.3654415   -4.9254676 
H    -5.1793256   -3.6130166    3.8735363 
