96
Energy =
C    -0.1486369   -1.3868221    2.7801033 
C     1.1369393   -0.7480382    2.8221108 
C     1.2112887    0.6613416    2.8117116 
H     2.0484777   -1.3524940    2.7315738 
Pd    0.1399980   -0.1635148    0.9708244 
P     1.3181183    1.1685503   -0.6244644 
P    -1.8696354   -0.8015649   -0.0885142 
H    -0.9762860   -0.8871674    3.3044893 
H     0.2818715    1.2057191    3.0412486 
C    -0.5451049   -5.6545712    2.3710162 
C     0.4117783   -4.9646044    1.6077818 
C     0.5434065   -3.5782327    1.7349118 
C    -0.2820095   -2.8511101    2.6249892 
C    -1.2448422   -3.5559996    3.3769879 
C    -1.3711301   -4.9453472    3.2547203 
H    -0.6481045   -6.7401395    2.2718993 
H     1.0536507   -5.5113027    0.9088641 
H     1.2766785   -3.0403716    1.1216481 
H    -1.8963088   -3.0077534    4.0648565 
H    -2.1235905   -5.4745782    3.8480782 
C     4.6658075    3.1901541    3.0768024 
C     3.3927514    3.7356903    2.8507351 
C     2.2804211    2.8935712    2.7516949 
C     2.4208481    1.4897518    2.8665344 
C     3.7120812    0.9532866    3.0761337 
C     4.8200869    1.7980229    3.1862383 
H     5.5369846    3.8469599    3.1692235 
H     3.2655955    4.8195344    2.7622068 
H     1.2848151    3.3195774    2.5843139 
H     3.8493656   -0.1274774    3.1744184 
H     5.8119325    1.3690911    3.3597116 
O    -1.2260045    2.1251544    0.4915487 
N    -2.6147448    4.3339876   -0.0534265 
C    -0.5392907    3.1478756   -0.1538809 
C    -2.5212873    1.9421344    0.0278654 
C    -1.2455995    4.3491773   -0.3712801 
C    -3.2931297    3.1080155   -0.1699907 
C     0.7699112    2.9337814   -0.6051846 
C    -3.0193802    0.6499696   -0.1795353 
C    -0.5547098    5.4286598   -0.9423910 
C    -4.6512135    2.9591899   -0.4889726 
C     1.4297819    4.0228258   -1.2218676 
C    -4.4011417    0.5254317   -0.4706652 
C     3.1188633    1.0090130   -0.3089969 
C     1.1599481    0.8269528   -2.4327899 
C    -1.6821636   -1.4436342   -1.7994716 
C    -2.9264090   -2.0632883    0.7321236 
C     0.7824775    5.2591436   -1.3417428 
C    -5.1974312    1.6688160   -0.6076129 
C     3.5770280   -0.3215250   -0.1676359 
C     2.2092669    0.2939095   -3.2050566 
C    -0.4613949   -2.0762589   -2.1108936 
C    -3.6969235   -1.6977248    1.8566823 
C     4.0455162    2.0635237   -0.2295472 
C    -0.0852921    1.0893112   -3.0428177 
C    -2.6971129   -1.3740627   -2.7734945 
C    -2.9487193   -3.3963572    0.2792050 
C     4.9404473   -0.5913243    0.0035773 
C     2.0117985    0.0296059   -4.5693150 
C    -0.2604801   -2.6405030   -3.3769069 
C    -4.5082524   -2.6466375    2.4920607 
C     5.4087383    1.7885605   -0.0471631 
C    -0.2739688    0.8286860   -4.4035585 
C    -2.4888941   -1.9334045   -4.0410948 
C    -3.7546288   -4.3430910    0.9272562 
C     5.8615169    0.4661414    0.0557892 
C     0.7745130    0.2956077   -5.1705031 
C    -1.2739750   -2.5678306   -4.3434949 
C    -4.5426920   -3.9698633    2.0250957 
H    -3.1467763    5.1773344   -0.2602818 
H    -1.0661799    6.3825736   -1.1081086 
H    -5.2805381    3.8433889   -0.6346179 
H     2.4291559    3.8963167   -1.6442638 
H    -4.8481512   -0.4683312   -0.5677228 
H     1.3094897    6.0998819   -1.8033798 
H    -6.2637822    1.5600570   -0.8282591 
H     2.8550503   -1.1474969   -0.1987973 
H     3.1846434    0.0936885   -2.7516282 
H     0.3334601   -2.1108494   -1.3565252 
H    -3.6813204   -0.6642219    2.2213708 
H     3.7133469    3.1020688   -0.2801381 
H    -0.9130430    1.4998597   -2.4530690 
H    -3.6448223   -0.8749894   -2.5519075 
H    -2.3452665   -3.6952289   -0.5835114 
H     5.2824822   -1.6269906    0.1006112 
H     2.8357565   -0.3792078   -5.1635900 
H     0.6939745   -3.1207827   -3.6134498 
H    -5.1172620   -2.3504166    3.3526257 
H     6.1183964    2.6191431    0.0227954 
H    -1.2455261    1.0327188   -4.8640887 
H    -3.2787080   -1.8713847   -4.7970196 
H    -3.7660335   -5.3770298    0.5679950 
H     6.9280740    0.2595797    0.1915738 
H     0.6247163    0.0884702   -6.2350755 
H    -1.1142163   -2.9983754   -5.3373988 
H    -5.1791358   -4.7099065    2.5210970 
