96
Energy =
C     1.8870137    0.1253882    2.4382333 
C     0.6137157   -0.2876088    2.9195496 
C     0.1405183   -1.6105253    2.7580376 
H    -0.0695221    0.4657098    3.3287326 
Pd    0.5596862   -0.5777662    0.7461671 
P    -1.4084855   -1.2713628   -0.3849952 
P     1.6438563    0.7492854   -0.9051889 
H     2.6648606   -0.6452454    2.3506081 
H     0.8910291   -2.3971878    2.5861233 
C     3.4145422    4.1157749    2.9830758 
C     2.0359680    3.8736684    3.0980954 
C     1.5230377    2.5917243    2.8833803 
C     2.3821035    1.5093112    2.5786290 
C     3.7663739    1.7704938    2.4587794 
C     4.2763110    3.0598754    2.6515603 
H     3.8128851    5.1221122    3.1488020 
H     1.3538695    4.6940473    3.3424558 
H     0.4410310    2.4361547    2.9454433 
H     4.4500395    0.9491976    2.2233820 
H     5.3528612    3.2357634    2.5571854 
C    -3.6160786   -3.0746454    4.2553607 
C    -3.4409182   -1.6970737    4.0469528 
C    -2.2315281   -1.2060598    3.5454421 
C    -1.1627566   -2.0844656    3.2520171 
C    -1.3522630   -3.4676343    3.4755678 
C    -2.5652896   -3.9589899    3.9678503 
H    -4.5662872   -3.4561369    4.6429449 
H    -4.2567402   -1.0002579    4.2658203 
H    -2.1269396   -0.1319464    3.3638446 
H    -0.5322000   -4.1615191    3.2640711 
H    -2.6909260   -5.0343425    4.1291047 
O    -1.1065824    1.5090996   -0.7789592 
N    -2.3420439    3.6789196    0.2857219 
C    -2.2292954    1.3000462    0.0069859 
C    -0.3209367    2.5947702   -0.4158398 
C    -2.9135300    2.4177176    0.5192978 
C    -0.9573771    3.7565989    0.0591852 
C    -2.6230176   -0.0255141    0.2310724 
C     1.0667951    2.4694923   -0.5545479 
C    -4.0977421    2.1783262    1.2389317 
C    -0.1561821    4.8870676    0.2909196 
C    -3.8167739   -0.2423862    0.9527953 
C     1.8547142    3.6107380   -0.2929485 
C    -1.6014432   -1.2149576   -2.2142993 
C    -2.0585909   -2.9543904   -0.0548470 
C     3.4791313    0.7255238   -0.8197278 
C     1.4116643    0.5120469   -2.7203952 
C    -4.5428655    0.8584178    1.4310197 
C     1.2324966    4.8058031    0.0923730 
C    -0.7559963   -2.0386185   -2.9839589 
C    -1.1477005   -3.9465946    0.3525905 
C     4.1129959   -0.3501774   -0.1689417 
C     2.2408902   -0.4255035   -3.3740109 
C    -2.6235835   -0.4812558   -2.8446330 
C    -3.3903476   -3.3146808   -0.3517139 
C     4.2649818    1.6701009   -1.5141492 
C     0.4790016    1.2519980   -3.4723105 
C    -0.9466785   -2.1422495   -4.3660102 
C    -1.5645355   -5.2782272    0.4886947 
C     5.5116310   -0.4558359   -0.1652135 
C     2.1567403   -0.5965212   -4.7607592 
C    -2.8062501   -0.5855657   -4.2312668 
C    -3.8095820   -4.6406437   -0.1883346 
C     5.6619913    1.5752585   -1.4899503 
C     0.3977541    1.0716563   -4.8597747 
C    -1.9746577   -1.4190512   -4.9914331 
C    -2.8984623   -5.6232656    0.2325222 
C     6.2877470    0.5175370   -0.8101905 
C     1.2390021    0.1565042   -5.5079581 
H    -2.7949094    4.4865394    0.7084219 
H    -4.6685829    3.0192877    1.6464238 
H    -0.6131814    5.8196794    0.6379383 
H    -4.1581744   -1.2574439    1.1646471 
H     2.9438477    3.5596418   -0.3424192 
H    -5.4693455    0.6877367    1.9880688 
H     1.8490220    5.6877255    0.2895282 
H     0.0450831   -2.6079911   -2.4988493 
H    -0.1073326   -3.6695346    0.5588287 
H     3.5039627   -1.1139871    0.3272682 
H     2.9735817   -1.0058248   -2.8029590 
H    -3.2864868    0.1607886   -2.2559811 
H    -4.0927768   -2.5670590   -0.7347736 
H     3.7864665    2.4663289   -2.0931553 
H    -0.1786996    1.9759248   -2.9858810 
H    -0.2863665   -2.7834766   -4.9579899 
H    -0.8477877   -6.0446627    0.8016177 
H     5.9934622   -1.2988249    0.3408064 
H     2.8152886   -1.3158908   -5.2586305 
H    -3.6065325   -0.0164053   -4.7158897 
H    -4.8469296   -4.9125670   -0.4092506 
H     6.2650343    2.3207316   -2.0185882 
H    -0.3283621    1.6542887   -5.4354118 
H    -2.1217606   -1.5016970   -6.0732299 
H    -3.2280669   -6.6611203    0.3470175 
H     7.3800680    0.4428095   -0.8011836 
H     1.1763494    0.0270800   -6.5933429 
