96
Energy =
C    -0.7721548   -0.3779505    2.8244082 
C     0.6198707   -0.1804697    2.9764103 
C     1.2788120    0.9755289    2.4841825 
H     1.2220138   -0.9850946    3.4133403 
Pd    0.2911421   -0.1895162    0.7793829 
P     1.3674904    1.1271662   -0.8878023 
P    -1.4763427   -1.2015464   -0.4635145 
H    -1.3858983    0.5029777    2.5822194 
H     0.6637125    1.8697923    2.3040329 
C    -3.0523589   -3.6510232    4.4320132 
C    -3.6861185   -2.5847068    3.7775467 
C    -2.9285010   -1.5225889    3.2729781 
C    -1.5198642   -1.5132607    3.3870060 
C    -0.8967022   -2.5888651    4.0638644 
C    -1.6555527   -3.6406158    4.5839314 
H    -3.6425393   -4.4815941    4.8322650 
H    -4.7754722   -2.5765880    3.6675071 
H    -3.4267278   -0.6837495    2.7779349 
H     0.1908556   -2.6093164    4.1876367 
H    -1.1561053   -4.4609305    5.1097893 
C     5.4547260    1.8590187    3.0307654 
C     4.5603637    2.8491525    2.5991037 
C     3.2052976    2.5442497    2.4313357 
C     2.7154147    1.2406519    2.6721689 
C     3.6304738    0.2539371    3.1106063 
C     4.9809670    0.5626395    3.2939826 
H     6.5150581    2.0948734    3.1663859 
H     4.9187886    3.8641395    2.3994560 
H     2.5049098    3.3231149    2.1146234 
H     3.2901621   -0.7691364    3.3013041 
H     5.6725961   -0.2133978    3.6381579 
O    -1.4085017    1.6255409   -1.0207589 
N    -2.9654640    3.6715310   -0.1361672 
C    -0.7836301    2.7775445   -0.5689812 
C    -2.6062210    1.3124573   -0.3965969 
C    -1.5757603    3.8671193   -0.1622988 
C    -3.4573582    2.3629833   -0.0016381 
C     0.6156313    2.7815179   -0.5519961 
C    -2.8975635   -0.0417141   -0.1979405 
C    -0.9104571    5.0487431    0.2086207 
C    -4.7143459    2.0187799    0.5229773 
C     1.2636920    3.9823264   -0.1876314 
C    -4.1715897   -0.3642122    0.3224143 
C     3.1885848    1.3191982   -0.8306709 
C     1.1270815    0.8836845   -2.6951528 
C    -1.3977364   -1.4850672   -2.2830653 
C    -2.0377018   -2.8570770    0.0918055 
C     0.4945780    5.0990276    0.1730465 
C    -5.0658568    0.6636154    0.6541189 
C     3.9463394    0.3518123   -0.1464359 
C     1.5958522   -0.3199976   -3.2581419 
C    -0.8084424   -2.6874306   -2.7307049 
C    -1.2324161   -3.5910530    0.9801262 
C     3.8441110    2.3356518   -1.5583290 
C     0.6210618    1.8956158   -3.5321828 
C    -1.9398172   -0.5873981   -3.2217816 
C    -3.2007311   -3.4503058   -0.4476381 
C     5.3464300    0.4173484   -0.1585676 
C     1.5784567   -0.4974726   -4.6457503 
C    -0.7898271   -2.9976556   -4.0952868 
C    -1.6014410   -4.8901600    1.3579369 
C     5.2424633    2.4042856   -1.5559571 
C     0.6029377    1.7096189   -4.9221963 
C    -1.9136492   -0.9034999   -4.5872172 
C    -3.5715214   -4.7425633   -0.0584770 
C     5.9940100    1.4483733   -0.8528838 
C     1.0868397    0.5187462   -5.4803945 
C    -1.3484548   -2.1089004   -5.0261572 
C    -2.7750036   -5.4614566    0.8484529 
H    -3.5411309    4.4293766    0.2251143 
H    -1.4870682    5.9246648    0.5234053 
H    -5.4132418    2.8042744    0.8285987 
H     2.3547399    4.0388671   -0.1786708 
H    -4.4498902   -1.4066461    0.4928250 
H     0.9976359    6.0307462    0.4496392 
H    -6.0535186    0.4086034    1.0505876 
H     3.4339924   -0.4500280    0.3956666 
H     1.9863251   -1.1131648   -2.6105808 
H    -0.3880908   -3.3961462   -2.0087338 
H    -0.3132260   -3.1412118    1.3703197 
H     3.2642116    3.0565260   -2.1448120 
H     0.2547845    2.8346455   -3.1053564 
H    -2.3915522    0.3524433   -2.8953385 
H    -3.7999050   -2.9116689   -1.1896452 
H     5.9293516   -0.3351396    0.3812863 
H     1.9441432   -1.4345231   -5.0767979 
H    -0.3434330   -3.9395117   -4.4309587 
H    -0.9712641   -5.4523180    2.0538778 
H     5.7484642    3.1968649   -2.1170074 
H     0.2140565    2.5029630   -5.5691984 
H    -2.3409913   -0.2011681   -5.3098298 
H    -4.4764120   -5.1968750   -0.4752097 
H     7.0876537    1.5023840   -0.8577656 
H     1.0754758    0.3774137   -6.5660510 
H    -1.3389092   -2.3534539   -6.0933107 
H    -3.0650968   -6.4743668    1.1464242 
