96
Energy =
C    -2.3730988    1.8714877    0.7312490 
C    -1.9020093    2.4399150   -0.5006173 
C    -2.0155937    1.6961765   -1.6947435 
H    -1.3437353    3.3847584   -0.4862670 
Pd   -0.7777423    0.6098819   -0.1137435 
P     1.0193602    0.0062219   -1.5684094 
P    -0.6770930   -0.9084743    1.6900755 
H    -3.2663291    1.2317099    0.6813182 
H    -2.6993303    0.8330300   -1.6746827 
C    -1.7139637    3.8094344    4.5190257 
C    -0.6835792    3.7705806    3.5645929 
C    -0.8913657    3.1408818    2.3334028 
C    -2.1326152    2.5322329    2.0318431 
C    -3.1541515    2.5707118    3.0036187 
C    -2.9480690    3.2081888    4.2333565 
H    -1.5515596    4.3027703    5.4829086 
H     0.2856471    4.2303410    3.7849850 
H    -0.0777310    3.0941189    1.5993310 
H    -4.1181783    2.0987394    2.7890018 
H    -3.7539696    3.2287136    4.9739269 
C    -0.9707384    2.8295845   -5.6975940 
C    -1.4031358    1.5256795   -5.4106533 
C    -1.7244668    1.1705892   -4.0965208 
C    -1.6096650    2.1087871   -3.0428787 
C    -1.1550096    3.4131824   -3.3441219 
C    -0.8460228    3.7686000   -4.6600534 
H    -0.7323427    3.1157875   -6.7272198 
H    -1.5000974    0.7880047   -6.2138356 
H    -2.0706093    0.1552418   -3.8731361 
H    -1.0624014    4.1603003   -2.5505689 
H    -0.5064736    4.7855709   -4.8799635 
O    -1.2202878   -1.8483892   -1.1625736 
N    -1.6087273   -4.3051730   -2.1221162 
C    -1.3738957   -2.8608167   -0.2258210 
C    -0.4533003   -2.2148297   -2.2631224 
C    -1.6751528   -4.1463284   -0.7267176 
C    -0.7123649   -3.4819812   -2.8255554 
C    -1.2725299   -2.5764188    1.1415146 
C     0.5600241   -1.3630062   -2.7221992 
C    -1.9875647   -5.1602924    0.1911841 
C    -0.0152991   -3.8445766   -3.9880370 
C    -1.6234143   -3.6087528    2.0474397 
C     1.2827070   -1.7724661   -3.8674105 
C     0.9923172   -1.1481117    2.4184065 
C    -1.7453146   -0.5960250    3.1538512 
C     1.5733251    1.5039730   -2.4725532 
C     2.5845172   -0.6945282   -0.8823810 
C    -1.9862509   -4.8730379    1.5677304 
C     0.9596445   -2.9754616   -4.5079883 
C     1.8894243   -0.0648912    2.3229247 
C    -3.1292916   -0.8597746    3.0713525 
C     1.8054422    2.6341278   -1.6544475 
C     3.8027756    0.0107755   -0.8815433 
C     1.3874670   -2.3203741    3.0917378 
C    -1.2101256   -0.0624091    4.3418327 
C     1.8011651    1.6030140   -3.8565058 
C     2.5294692   -1.9829281   -0.3091417 
C     3.1628327   -0.1488199    2.8998938 
C    -3.9566032   -0.6285783    4.1778724 
C     2.2985413    3.8233602   -2.2053719 
C     4.9484272   -0.5690955   -0.3146949 
C     2.6647417   -2.4023605    3.6615931 
C    -2.0464095    0.1768722    5.4414626 
C     2.2847315    2.7999159   -4.4050012 
C     3.6756065   -2.5573125    0.2489923 
C     3.5518080   -1.3186950    3.5683374 
C    -3.4156855   -0.1147051    5.3667922 
C     2.5470087    3.9052329   -3.5841363 
C     4.8886761   -1.8501033    0.2497474 
H    -1.7577804   -5.2441176   -2.4871331 
H    -2.2393119   -6.1645001   -0.1655640 
H    -0.2049380   -4.8127557   -4.4630940 
H    -1.6299432   -3.4085230    3.1229880 
H     2.1213124   -1.1764326   -4.2342835 
H    -2.2587042   -5.6609337    2.2766720 
H     1.5123903   -3.2729067   -5.4044745 
H     1.5846123    0.8385332    1.7819395 
H    -3.5567582   -1.2690164    2.1488723 
H     1.6015855    2.5725081   -0.5779083 
H     3.8669516    1.0064834   -1.3303969 
H     0.7077386   -3.1743399    3.1636557 
H    -0.1407036    0.1586351    4.4134571 
H     1.5787118    0.7646814   -4.5192323 
H     1.5866040   -2.5416670   -0.2974287 
H     3.8568809    0.6927581    2.8119127 
H    -5.0264931   -0.8526525    4.1115235 
H     2.4845152    4.6870134   -1.5584433 
H     5.8931773   -0.0153898   -0.3239232 
H     2.9693681   -3.3181212    4.1788779 
H    -1.6214633    0.5913674    6.3611562 
H     2.4481042    2.8667892   -5.4853755 
H     3.6189173   -3.5554829    0.6940942 
H     4.5510464   -1.3900494    4.0101477 
H    -4.0630950    0.0633717    6.2316032 
H     2.9302058    4.8339984   -4.0190772 
H     5.7847051   -2.2990281    0.6904609 
