96
Energy =
C    -1.6122793    2.2436167    1.0707174 
C    -1.1341711    2.7777362   -0.1651761 
C    -1.6996148    2.4028803   -1.3962008 
H    -0.2721295    3.4546882   -0.1608034 
Pd   -0.7433593    0.6001423   -0.1653843 
P     0.8734019   -0.2827964   -1.7315111 
P    -0.9879486   -1.0554602    1.5824097 
H    -2.6691011    1.9535991    1.1249890 
H    -2.6470736    1.8436860   -1.3664862 
C     0.1803122    3.2536484    4.8552770 
C     0.9320250    3.3703548    3.6734353 
C     0.3599713    3.0411469    2.4409086 
C    -0.9833966    2.5962486    2.3571388 
C    -1.7299321    2.4979928    3.5541616 
C    -1.1521595    2.8177889    4.7887892 
H     0.6303987    3.5057690    5.8209035 
H     1.9717731    3.7110474    3.7155143 
H     0.9703256    3.1171942    1.5349432 
H    -2.7717871    2.1654167    3.5109567 
H    -1.7477445    2.7273510    5.7028916 
C    -1.0198149    4.3443865   -5.1502139 
C    -0.1244569    4.5639275   -4.0884675 
C    -0.2958037    3.8989431   -2.8739384 
C    -1.3789008    3.0043715   -2.6896732 
C    -2.2534439    2.7701276   -3.7788556 
C    -2.0792605    3.4375464   -4.9955768 
H    -0.8851940    4.8750369   -6.0983623 
H     0.7141460    5.2555026   -4.2140225 
H     0.4157056    4.0778022   -2.0626038 
H    -3.0912667    2.0751085   -3.6518896 
H    -2.7755410    3.2584789   -5.8211565 
O     0.1177963   -2.7229990   -0.5334353 
N    -0.6443886   -5.1413788   -1.5536631 
C    -0.9252935   -3.3959594    0.0726004 
C     0.2524374   -2.9440904   -1.8906322 
C    -1.2912231   -4.6732581   -0.4009684 
C    -0.0576249   -4.2109479   -2.4222429 
C    -1.5261309   -2.7780181    1.1672407 
C     0.7302821   -1.8798121   -2.6529001 
C    -2.2777436   -5.3730423    0.3109146 
C     0.2315872   -4.4335153   -3.7781421 
C    -2.5112612   -3.5050557    1.8778829 
C     1.0459072   -2.1325125   -4.0088896 
C     0.5418482   -1.2604816    2.5788167 
C    -2.3277782   -0.6242855    2.7720050 
C     1.3984455    0.8611806   -3.0738504 
C     2.3963284   -0.5009665   -0.7181030 
C    -2.8627942   -4.7905932    1.4496718 
C     0.8050215   -3.4038990   -4.5461794 
C     1.3809119   -2.3811926    2.4200727 
C    -3.5728379   -0.2555526    2.2188683 
C     0.5870431    0.9771410   -4.2247710 
C     2.5987627    0.3455528    0.3906762 
C     0.9210657   -0.2309426    3.4665998 
C    -2.2018422   -0.7387028    4.1689997 
C     2.6060858    1.5840686   -3.0063329 
C     3.3717829   -1.4635321   -1.0422654 
C     2.5723753   -2.4735152    3.1519495 
C    -4.6661070    0.0206293    3.0492581 
C     1.0139971    1.7457034   -5.3135620 
C     3.7692549    0.2467838    1.1524544 
C     2.1061752   -0.3379787    4.2047110 
C    -3.2971384   -0.4523903    4.9990377 
C     3.0123630    2.3784407   -4.0892916 
C     4.5349696   -1.5701186   -0.2670615 
C     2.9350259   -1.4589126    4.0497235 
C    -4.5260973   -0.0673113    4.4445104 
C     2.2287054    2.4460203   -5.2495620 
C     4.7378393   -0.7136228    0.8256907 
H    -0.9583963   -6.0259319   -1.9470111 
H    -2.5845066   -6.3706035   -0.0204491 
H     0.0190261   -5.4085356   -4.2288518 
H    -2.9958091   -3.0674093    2.7538260 
H     1.4763707   -1.3465292   -4.6336591 
H    -3.6201229   -5.3531362    2.0042063 
H     1.0540987   -3.5996860   -5.5937177 
H     1.1124525   -3.1821179    1.7269441 
H    -3.6859766   -0.1970670    1.1292013 
H    -0.3656783    0.4404684   -4.2820991 
H     1.8261162    1.0742775    0.6654428 
H     0.2846929    0.6472740    3.5966384 
H    -1.2531096   -1.0516989    4.6139529 
H     3.2441906    1.5053619   -2.1203055 
H     3.2231210   -2.1281633   -1.8998539 
H     3.2187419   -3.3469576    3.0190180 
H    -5.6276158    0.3041121    2.6089445 
H     0.3882799    1.8084046   -6.2089900 
H     3.9125657    0.9063602    2.0135845 
H     2.3776619    0.4629329    4.9004702 
H    -3.1865705   -0.5351907    6.0852653 
H     3.9576582    2.9281582   -4.0309568 
H     5.2879104   -2.3234965   -0.5214253 
H     3.8635832   -1.5405569    4.6242325 
H    -5.3770897    0.1561316    5.0961031 
H     2.5589286    3.0496982   -6.1011978 
H     5.6480458   -0.8003141    1.4281418 
