96
Energy =
C    -1.1609531    2.5030033   -1.4475498 
C    -2.1730919    1.9044088   -0.6652014 
C    -2.2267191    2.0622991    0.7464381 
H    -2.8971614    1.2344332   -1.1456725 
Pd   -0.3478577    0.9880778    0.1314606 
P    -0.1167257   -0.4048965    2.0681129 
P     1.3818475    0.1860782   -1.3510237 
H    -0.6296144    3.3605054   -1.0108213 
H    -1.7447016    2.9517666    1.1791288 
C    -1.0272847    2.3633208   -5.7439032 
C    -1.7314215    1.3746691   -5.0387457 
C    -1.7582705    1.3863222   -3.6404050 
C    -1.0980071    2.4048651   -2.9147229 
C    -0.4017450    3.3996922   -3.6408563 
C    -0.3590369    3.3761210   -5.0377593 
H    -1.0024136    2.3462379   -6.8384445 
H    -2.2509900    0.5782558   -5.5812189 
H    -2.2816638    0.5838592   -3.1104690 
H     0.1049811    4.2024963   -3.0974996 
H     0.1896931    4.1547017   -5.5771933 
C    -5.5182672    0.4923033    3.0256278 
C    -4.9689634   -0.2696279    1.9797166 
C    -3.8939057    0.2274483    1.2357857 
C    -3.3371507    1.4930711    1.5337875 
C    -3.8923903    2.2450502    2.5926576 
C    -4.9808223    1.7535846    3.3241953 
H    -6.3606615    0.1018744    3.6058421 
H    -5.3721188   -1.2611950    1.7509119 
H    -3.4520452   -0.3894592    0.4451769 
H    -3.4651983    3.2225674    2.8401623 
H    -5.4043849    2.3531301    4.1365360 
O    -0.0900608   -1.9708215   -0.2996895 
N    -1.8874487   -3.7246620   -1.3578872 
C    -0.3094870   -1.9400844   -1.6676921 
C    -1.1301455   -2.4058883    0.4978676 
C    -1.1995852   -2.8716678   -2.2341490 
C    -2.0188608   -3.3743826   -0.0066094 
C     0.4160213   -0.9962462   -2.4054945 
C    -1.2084786   -1.8727537    1.7896229 
C    -1.3302375   -2.8722897   -3.6332277 
C    -2.9664084   -3.9083181    0.8835381 
C     0.2645495   -1.0163270   -3.8091430 
C    -2.1340002   -2.4621534    2.6812491 
C     2.1030724    1.5213638   -2.3849326 
C     2.9311844   -0.7520507   -0.9402333 
C     1.5512898   -1.1176483    2.3416760 
C    -0.5346202    0.2629037    3.7372349 
C    -0.5896513   -1.9571334   -4.4008879 
C    -2.9871226   -3.4743961    2.2217072 
C     2.2038339    2.7965366   -1.7925806 
C     4.1554412   -0.0499144   -0.8802976 
C     2.6799030   -0.2904795    2.1818166 
C    -1.8674188    0.3693996    4.1897467 
C     2.7144336    1.2956134   -3.6353584 
C     2.9308685   -2.1422170   -0.7027178 
C     1.7122611   -2.4375313    2.8053436 
C     0.5042579    0.7458431    4.5652121 
C     2.8699815    3.8390608   -2.4521329 
C     5.3513231   -0.7278891   -0.6107275 
C     3.9537070   -0.7675261    2.5165363 
C    -2.1485572    0.9293333    5.4440723 
C     3.3480951    2.3480913   -4.3085625 
C     4.1303076   -2.8119192   -0.4292458 
C     2.9915223   -2.9175908    3.1151897 
C     0.2140333    1.3149369    5.8113542 
C     3.4255997    3.6206126   -3.7209232 
C     5.3442673   -2.1114602   -0.3876310 
C     4.1101669   -2.0814715    2.9808515 
C    -1.1129094    1.4067879    6.2575576 
H    -2.5744181   -4.3619505   -1.7545229 
H    -2.0036048   -3.5861448   -4.1189914 
H    -3.6680866   -4.6750024    0.5388077 
H     0.7732584   -0.2831460   -4.4358050 
H    -2.1894078   -2.1315923    3.7202670 
H    -0.7005919   -1.9663792   -5.4894831 
H    -3.7017211   -3.9284748    2.9150308 
H     1.7636877    2.9664517   -0.8025187 
H     4.1853472    1.0289763   -1.0581447 
H     2.5585180    0.7280892    1.7944047 
H    -2.6936160    0.0088492    3.5757828 
H     2.7252937    0.2943504   -4.0746778 
H     2.0005221   -2.7113540   -0.7271766 
H     0.8385745   -3.0859951    2.9293029 
H     1.5478897    0.6657258    4.2482311 
H     2.9487433    4.8224453   -1.9770471 
H     6.2921300   -0.1682856   -0.5806744 
H     4.8265098   -0.1193137    2.3943257 
H    -3.1897204    0.9921967    5.7765205 
H     3.8025363    2.1678283   -5.2881990 
H     4.1115073   -3.8916033   -0.2494273 
H     3.1135772   -3.9461378    3.4703971 
H     1.0333597    1.6784634    6.4402153 
H     3.9345047    4.4360440   -4.2452785 
H     6.2795044   -2.6417934   -0.1807008 
H     5.1079252   -2.4575086    3.2289677 
H    -1.3363062    1.8446361    7.2358875 
