99
Energy =
C     1.1720051   -0.0758092    3.0867826 
C     0.9149472   -0.8846352    2.0150021 
C     1.3765778   -0.5761708    0.6572760 
H     0.4125863   -1.8484035    2.1617149 
Pd   -0.1339189    0.4501713   -0.4298042 
P     1.4501637    1.4894394   -1.9388297 
P    -2.3272361   -0.2421672    0.5325432 
H     1.6549746    0.8916472    2.8852252 
H     2.1078741    0.2449032    0.7071440 
C     0.1598511   -0.7356178    7.2037768 
C     0.1912386   -1.8243266    6.3144771 
C     0.5356262   -1.6303674    4.9746448 
C     0.8519871   -0.3366180    4.4874418 
C     0.8407316    0.7440403    5.4036984 
C     0.4903471    0.5488271    6.7440354 
H    -0.1069575   -0.8921419    8.2540147 
H    -0.0432672   -2.8313674    6.6748866 
H     0.5806372   -2.4918114    4.2998695 
H     1.0976836    1.7485992    5.0480534 
H     0.4797561    1.3985355    7.4345325 
C     3.2238108   -3.9614787   -1.3454982 
C     1.8632003   -3.7004611   -1.5594300 
C     1.2471003   -2.6104914   -0.9280183 
C     1.9720860   -1.7557553   -0.0769650 
C     3.3383697   -2.0443205    0.1456026 
C     3.9584765   -3.1314046   -0.4844760 
H     3.7088422   -4.8078776   -1.8422989 
H     1.2775701   -4.3410782   -2.2271992 
H     0.1914529   -2.3998278   -1.1159415 
H     3.9177971   -1.4144240    0.8300170 
H     5.0191896   -3.3316665   -0.3001165 
C     2.9172198    2.4669487   -1.1784300 
C     1.9155205    0.4459133   -3.4874046 
C    -2.8766845   -2.0212127    0.1070178 
C    -2.8172099    0.2748321    2.3154948 
C     0.4098257    2.8923050   -2.6592997 
C    -3.5279404    0.8147491   -0.4752478 
C     2.3274540    3.1590029    0.0763239 
C     3.4730989    3.5338671   -2.1468497 
C     4.0769226    1.5448202   -0.7394356 
C     3.1727689   -0.4076014   -3.2183172 
C     2.1522127    1.3121790   -4.7433067 
C     0.7129033   -0.4948561   -3.7397812 
C    -2.7151937   -2.1329166   -1.4293281 
C    -4.3366136   -2.3296202    0.4964506 
C    -1.9396455   -3.0370459    0.7960805 
C    -2.4251024   -0.8140502    3.3326245 
C    -4.3240155    0.5787725    2.4850691 
C    -2.0028676    1.5646380    2.5752254 
C    -0.9984391    2.3934936   -2.8533921 
C    -2.9252805    1.2928527   -1.7704880 
C    -1.6836420    1.9517366   -1.7036809 
C    -1.6210988    2.2351873   -4.1008628 
C    -3.5186228    1.1194135   -3.0315394 
C    -2.8788119    1.6122702   -4.1806019 
H     0.8597085    3.2791492   -3.5851366 
H     0.4261341    3.7057632   -1.9130437 
H    -3.7623498    1.6940932    0.1489545 
H    -4.4742180    0.2707416   -0.6254963 
H     1.9434311    2.4266053    0.8071613 
H     3.1220028    3.7505743    0.5661312 
H     1.5056673    3.8540707   -0.1688078 
H     4.2824975    4.0871289   -1.6358099 
H     2.7145489    4.2733770   -2.4519826 
H     3.9069758    3.0790947   -3.0522686 
H     4.6646889    1.1837225   -1.5952177 
H     4.7577189    2.1234861   -0.0891112 
H     3.7348643    0.6671882   -0.1714914 
H     3.1264719   -0.9386743   -2.2555814 
H     3.2530013   -1.1696939   -4.0143027 
H     4.0919333    0.1986264   -3.2490026 
H     1.2331038    1.8127188   -5.0885396 
H     2.4853787    0.6484016   -5.5617931 
H     2.9358120    2.0730928   -4.5959086 
H    -0.2269303    0.0561687   -3.9023170 
H     0.9179508   -1.0948968   -4.6454721 
H     0.5711697   -1.1879871   -2.8972960 
H    -1.7236792   -1.7792907   -1.7667138 
H    -2.8263404   -3.1900531   -1.7314180 
H    -3.4782989   -1.5490805   -1.9696960 
H    -4.6021133   -3.3317767    0.1125995 
H    -4.4775184   -2.3479885    1.5892861 
H    -5.0545812   -1.6134278    0.0610530 
H    -2.0767121   -3.0559932    1.8876142 
H    -2.1664800   -4.0490010    0.4139515 
H    -0.8804405   -2.8306601    0.5814546 
H    -1.3971042   -1.1690422    3.1882990 
H    -2.4851839   -0.3960795    4.3533037 
H    -3.1091494   -1.6777102    3.2861834 
H    -4.9632075   -0.2764327    2.2166785 
H    -4.6540201    1.4566732    1.9062406 
H    -4.5081429    0.8102691    3.5502888 
H    -2.2639664    2.3658602    1.8588048 
H    -2.2237560    1.9413573    3.5905450 
H    -0.9192667    1.3750036    2.5039940 
H    -1.2832909    2.2376513   -0.7060484 
H    -1.1229844    2.5796954   -5.0130185 
H    -4.4851814    0.6118956   -3.1181174 
H    -3.3584052    1.4917598   -5.1574344 
