99
Energy =
C     0.8942616   -1.3150230    0.7964368 
C     1.0163565   -0.5599727    2.0401103 
C     0.3251730   -0.8027028    3.1949621 
H     1.7426287    0.2580324    2.0352682 
Pd   -0.3577963    0.0284722   -0.3143102 
P    -2.3349784   -1.3980643   -0.3779650 
P     1.1369997    1.9189347   -0.9227343 
H     0.2303889   -2.1866866    0.8879086 
H    -0.3794070   -1.6420369    3.2075664 
C     4.5284239   -2.4937609   -1.2586233 
C     3.2809617   -2.6498038   -1.8838423 
C     2.1124736   -2.2429447   -1.2318323 
C     2.1505881   -1.6685276    0.0598461 
C     3.4148283   -1.5384974    0.6822553 
C     4.5880771   -1.9405221    0.0285502 
H     5.4449141   -2.8089871   -1.7674690 
H     3.2187639   -3.0849568   -2.8866849 
H     1.1487553   -2.3568645   -1.7352337 
H     3.4783452   -1.1578209    1.7060250 
H     5.5522770   -1.8336864    0.5363584 
C     0.4438233    1.3906382    6.8824506 
C    -0.4945939    0.3663725    6.6841556 
C    -0.5093989   -0.3452760    5.4799838 
C     0.4062647   -0.0459506    4.4399926 
C     1.3539118    0.9860372    4.6638896 
C     1.3697841    1.6930979    5.8678661 
H     0.4611501    1.9468190    7.8252718 
H    -1.2136660    0.1204356    7.4723310 
H    -1.2432080   -1.1457531    5.3289244 
H     2.0938261    1.2250783    3.8934998 
H     2.1129075    2.4820635    6.0248824 
C    -3.2283340   -1.7353865    1.2805121 
C    -2.2082618   -2.9471420   -1.4915105 
C     2.0751019    2.9263368    0.4137939 
C     2.1770047    1.6010140   -2.5067505 
C    -3.6060832   -0.3291870   -1.2740339 
C    -0.1233830    3.2050291   -1.4993341 
C    -3.0423010   -0.4297652    2.0927910 
C    -2.5650942   -2.9227137    2.0112368 
C    -4.7392586   -2.0241043    1.1336251 
C    -3.5508005   -3.6815276   -1.6842486 
C    -1.1728782   -3.9418449   -0.9223710 
C    -1.7041989   -2.4092823   -2.8535441 
C     3.3109733    2.1544469    0.9308870 
C     1.0526233    3.1026360    1.5666344 
C     2.5301456    4.3161777   -0.0800552 
C     3.5573068    1.0280834   -2.1244608 
C     2.3705157    2.8572299   -3.3820684 
C     1.3928279    0.5413776   -3.3174482 
C    -2.9454007    0.7277882   -2.1219312 
C    -1.2482597    2.5167409   -2.2257911 
C    -1.9810849    1.5504035   -1.5091516 
C    -3.2141954    0.9194241   -3.4863709 
C    -1.5463480    2.7054586   -3.5847045 
C    -2.5327345    1.9179535   -4.2019219 
H    -4.2114656    0.1583220   -0.4898589 
H    -4.2900751   -0.9668081   -1.8566595 
H     0.3637021    3.9790290   -2.1103809 
H    -0.5065972    3.6927472   -0.5864078 
H    -3.5491222    0.4265621    1.6120073 
H    -3.4911320   -0.5544960    3.0951640 
H    -1.9787548   -0.1677219    2.2192257 
H    -1.4649122   -2.8620923    2.0104847 
H    -2.8547175   -3.8862532    1.5611347 
H    -2.9010192   -2.9358061    3.0640964 
H    -4.9420662   -2.9333315    0.5480780 
H    -5.1629498   -2.1771861    2.1434121 
H    -5.2903773   -1.1852715    0.6776133 
H    -3.4174338   -4.4660755   -2.4514996 
H    -3.8821303   -4.1804303   -0.7591116 
H    -4.3590149   -3.0169207   -2.0340000 
H    -1.5156628   -4.4181257    0.0082601 
H    -0.1982835   -3.4689323   -0.7319679 
H    -1.0098674   -4.7451946   -1.6636977 
H    -0.8059967   -1.7763627   -2.7366286 
H    -1.4457639   -3.2623666   -3.5066953 
H    -2.4696425   -1.8100282   -3.3731831 
H     4.1702238    2.2584035    0.2525830 
H     3.6107975    2.5678657    1.9109648 
H     3.1212349    1.0782649    1.0552623 
H     1.5598568    3.5646208    2.4323893 
H     0.2201705    3.7705514    1.2864397 
H     0.6209537    2.1423733    1.8956712 
H     1.6930485    4.9378378   -0.4389525 
H     2.9990926    4.8550776    0.7640517 
H     3.2840012    4.2415269   -0.8807105 
H     3.4859327    0.2242585   -1.3762014 
H     4.0270707    0.6010821   -3.0287283 
H     4.2302122    1.8114977   -1.7408725 
H     2.8395324    3.6913365   -2.8359257 
H     1.4238488    3.2108580   -3.8217550 
H     3.0388093    2.5944403   -4.2225198 
H     0.3835402    0.8872286   -3.5937646 
H     1.9464483    0.3229674   -4.2494800 
H     1.2966547   -0.3967808   -2.7501005 
H    -1.8753038    1.5209992   -0.4010435 
H    -3.9597318    0.2960607   -3.9915104 
H    -1.0032420    3.4568046   -4.1671873 
H    -2.7605865    2.0721781   -5.2616196 
