99
Energy =
C     1.3785970   -2.5859912    0.3787019 
C     1.5029019   -1.3183222    0.8724047 
C     0.4658441   -0.5969612    1.6084642 
H     2.4429845   -0.7743237    0.7174657 
Pd   -0.5864721    0.5998262    0.1811100 
P    -2.7596500   -0.3187276    0.7060891 
P     1.2013417    1.7708581   -1.0483381 
H     0.4189413   -3.0995743    0.5189953 
H    -0.3434541   -1.2679162    1.9333126 
C     4.2414692   -4.7930370   -1.9352135 
C     4.6778463   -3.7310757   -1.1238989 
C     3.7623084   -3.0119982   -0.3510055 
C     2.3819216   -3.3339962   -0.3750427 
C     1.9647908   -4.4254773   -1.1767664 
C     2.8815922   -5.1405596   -1.9546820 
H     4.9620717   -5.3565707   -2.5367390 
H     5.7416617   -3.4741974   -1.0852054 
H     4.1220354   -2.2106154    0.3029526 
H     0.9032309   -4.6986612   -1.1951701 
H     2.5373089   -5.9749039   -2.5745598 
C     1.8584894    1.8223360    4.9392686 
C     0.6996811    2.1986165    4.2437575 
C     0.2497834    1.4312149    3.1623372 
C     0.9417571    0.2747449    2.7430269 
C     2.1014140   -0.0961167    3.4631427 
C     2.5535605    0.6690646    4.5468081 
H     2.2156229    2.4221094    5.7826595 
H     0.1477939    3.0975770    4.5381207 
H    -0.6393514    1.7413548    2.6017220 
H     2.6451391   -1.0029099    3.1775769 
H     3.4531302    0.3591851    5.0890374 
C    -2.9584965   -2.0673442   -0.0726216 
C    -3.5212150   -0.2060192    2.4614293 
C     2.4708219    2.8937097   -0.1599649 
C     2.0027716    0.7227329   -2.4602853 
C    -3.9164262    0.7597351   -0.3197537 
C     0.1640861    3.0308577   -2.0067368 
C    -4.3895157   -2.3592513   -0.5737869 
C    -2.5402961   -3.1543761    0.9409316 
C    -1.9929308   -2.1009206   -1.2810908 
C    -3.6172294    1.3015213    2.8070358 
C    -2.5912729   -0.8758889    3.4990016 
C    -4.9303176   -0.8313849    2.5272996 
C     1.6451662    3.8411201    0.7446518 
C     3.3193327    3.7205052   -1.1472204 
C     3.3816794    2.0467571    0.7551670 
C     2.2172262    1.5301553   -3.7591588 
C     1.0169553   -0.4368520   -2.7361256 
C     3.3573152    0.1294314   -2.0250295 
C    -3.1749668    1.2497387   -1.5397431 
C    -1.1519483    2.3954690   -2.3815560 
C    -1.9999334    2.0014333   -1.3253590 
C    -3.5388865    0.9433422   -2.8599983 
C    -1.5446427    2.0909696   -3.6952239 
C    -2.7382026    1.3869059   -3.9265550 
H    -4.1918913    1.6175594    0.3156935 
H    -4.8434077    0.2229387   -0.5702672 
H     0.7122874    3.4241843   -2.8748431 
H    -0.0130672    3.8710967   -1.3147754 
H    -4.6698990   -1.7114608   -1.4206725 
H    -4.4230665   -3.4012012   -0.9414023 
H    -5.1526531   -2.2616489    0.2137813 
H    -2.4736863   -4.1237537    0.4139862 
H    -3.2736390   -3.2711820    1.7552155 
H    -1.5530723   -2.9524096    1.3885185 
H    -0.9470449   -1.9509544   -0.9676835 
H    -2.0685599   -3.0865423   -1.7769739 
H    -2.2376374   -1.3260477   -2.0266087 
H    -4.4471821    1.8033403    2.2824357 
H    -3.8051116    1.4067455    3.8903204 
H    -2.6806611    1.8394725    2.5774062 
H    -1.6117631   -0.3752422    3.5533074 
H    -2.4330207   -1.9470520    3.3059524 
H    -3.0601908   -0.7871782    4.4958817 
H    -5.3644580   -0.6255168    3.5230363 
H    -5.6139713   -0.4026521    1.7742642 
H    -4.9063399   -1.9257945    2.4004534 
H     0.9393860    3.2778252    1.3787525 
H     2.3359110    4.3834830    1.4149759 
H     1.0869337    4.5995974    0.1703571 
H     3.9616034    4.4130309   -0.5724410 
H     3.9832694    3.0861355   -1.7567384 
H     2.6987308    4.3330834   -1.8237054 
H     4.0242995    1.3526149    0.1944937 
H     4.0435527    2.7276970    1.3207070 
H     2.7929826    1.4763988    1.4895468 
H     2.8285641    2.4342711   -3.6064664 
H     2.7518384    0.8863482   -4.4813607 
H     1.2660178    1.8210219   -4.2316311 
H     0.0090347   -0.0715726   -2.9959676 
H     0.9350671   -1.1008479   -1.8610395 
H     1.3932775   -1.0371009   -3.5849698 
H     3.2850611   -0.4205025   -1.0762192 
H     3.6854970   -0.5957945   -2.7911948 
H     4.1420089    0.8982305   -1.9357200 
H    -1.7904157    2.3864251   -0.3071818 
H    -4.4465062    0.3643204   -3.0603031 
H    -0.9223588    2.3988866   -4.5414892 
H    -3.0390845    1.1624482   -4.9550702 
