99
Energy =
C     0.9048672   -1.6419494    0.6175470 
C     1.4095804   -0.8374224    1.7198111 
C     0.8673690   -0.8193650    2.9738090 
H     2.2762698   -0.2031195    1.5030025 
Pd   -0.2205557   -0.3454593   -0.6919710 
P    -2.4056587   -1.2862436   -0.2573060 
P     1.3129845    1.4443289   -1.4601057 
H     0.0953985   -2.3200654    0.9221449 
H     0.0043821   -1.4704505    3.1624826 
C     3.7670904   -3.7254871   -1.8922563 
C     2.4212798   -3.6384488   -2.2835809 
C     1.5022910   -2.9435443   -1.4906633 
C     1.8947431   -2.3215213   -0.2788986 
C     3.2536765   -2.4293660    0.1018073 
C     4.1770490   -3.1171081   -0.6971722 
H     4.4888989   -4.2665865   -2.5123962 
H     2.0886510   -4.1040394   -3.2170170 
H     0.4667760   -2.8479451   -1.8279565 
H     3.5843382   -2.0024505    1.0533305 
H     5.2207604   -3.1902165   -0.3740593 
C     1.9667173    1.6169726    6.3304326 
C     2.7956885    1.5897728    5.1945823 
C     2.4624906    0.7934965    4.0969652 
C     1.2846965    0.0023713    4.1040730 
C     0.4705305    0.0312444    5.2644384 
C     0.8038629    0.8319650    6.3617753 
H     2.2330097    2.2412356    7.1895013 
H     3.7118835    2.1891800    5.1728547 
H     3.1304300    0.7699052    3.2300531 
H    -0.4387734   -0.5804526    5.2921313 
H     0.1580028    0.8423788    7.2458284 
C    -3.3202171   -0.1814987    1.0241819 
C    -2.7514912   -3.1449853    0.0965240 
C     1.1375078    2.9789817   -0.3170141 
C     3.1296919    1.1879314   -2.0173168 
C    -3.3116301   -1.0209470   -1.8954830 
C     0.5168534    1.9886772   -3.0878352 
C    -3.4870036    1.2235404    0.4074648 
C    -2.4022988   -0.0584595    2.2597590 
C    -4.7161995   -0.6914429    1.4323335 
C    -4.1946515   -3.5596679   -0.2766366 
C    -2.4744661   -3.4805539    1.5789203 
C    -1.7746185   -3.9605128   -0.7791209 
C     2.0396616    4.1664935   -0.7027681 
C     1.4307909    2.5417925    1.1334743 
C    -0.3359298    3.4317204   -0.3926277 
C     3.6889520    2.3156548   -2.9135746 
C     3.1309070   -0.1232676   -2.8342854 
C     4.0208878    1.0148265   -0.7705899 
C    -2.8676407    0.2653424   -2.5598675 
C    -0.9788308    1.7630109   -3.1125635 
C    -1.4878312    0.5002496   -2.7435226 
C    -3.7627545    1.2882350   -2.9108944 
C    -1.8976822    2.7751233   -3.4360168 
C    -3.2769911    2.5223157   -3.3718312 
H    -4.4024739   -1.0398151   -1.7343881 
H    -3.0554494   -1.8950743   -2.5227856 
H     1.0034306    1.3823811   -3.8733848 
H     0.7684724    3.0432055   -3.2909717 
H    -4.2774368    1.2486669   -0.3570502 
H    -3.7711543    1.9299013    1.2085301 
H    -2.5536399    1.5875871   -0.0515072 
H    -1.4181696    0.3568810    1.9809894 
H    -2.2404667   -1.0238129    2.7635568 
H    -2.8699231    0.6246444    2.9920783 
H    -4.6816802   -1.6440411    1.9835073 
H    -5.1774801    0.0580945    2.1017197 
H    -5.3860639   -0.8074997    0.5629020 
H    -4.3255908   -4.6263070   -0.0168932 
H    -4.9638652   -2.9914960    0.2648012 
H    -4.3852826   -3.4659341   -1.3585161 
H    -3.2064247   -3.0200643    2.2608716 
H    -1.4626883   -3.1718636    1.8937582 
H    -2.5408292   -4.5754306    1.7131561 
H    -0.7341753   -3.8597435   -0.4360929 
H    -2.0428878   -5.0306152   -0.7150260 
H    -1.8216547   -3.6746068   -1.8454182 
H     1.8999295    4.4780795   -1.7521836 
H     1.7730967    5.0297611   -0.0653030 
H     3.1074745    3.9533930   -0.5354783 
H     1.3038664    3.4089098    1.8067729 
H     0.7359809    1.7507324    1.4612486 
H     2.4608400    2.1738676    1.2617041 
H    -1.0266419    2.5842439   -0.2491435 
H    -0.5270722    4.1650903    0.4118605 
H    -0.5787848    3.9159297   -1.3513130 
H     3.7890754    3.2768179   -2.3911913 
H     4.6992661    2.0151715   -3.2477798 
H     3.0835452    2.4700550   -3.8222615 
H     2.5361769   -0.0376227   -3.7611910 
H     2.7409612   -0.9680358   -2.2519854 
H     4.1677429   -0.3616788   -3.1320062 
H     3.6312912    0.2290047   -0.1035975 
H     5.0332665    0.7061307   -1.0880798 
H     4.1225996    1.9524751   -0.1993755 
H    -0.7872918   -0.3600715   -2.6881077 
H    -4.8417943    1.1326818   -2.8039893 
H    -1.5378722    3.7646404   -3.7380011 
H    -3.9839685    3.3111971   -3.6483320 
