99
Energy =
C     1.8323226   -2.4118352    0.5860685 
C     1.6398523   -1.1378959    1.0412040 
C     0.3704902   -0.5943923    1.5247821 
H     2.4875403   -0.4412818    1.0554017 
Pd   -0.6204039    0.2584382   -0.1620696 
P    -2.6614127   -0.9999408    0.1666898 
P     1.1135669    1.6716758   -1.2389405 
H     0.9618403   -3.0789875    0.5424773 
H    -0.3405053   -1.3926600    1.7856259 
C     5.4458064   -4.1172625   -0.9822200 
C     4.1975453   -4.6915165   -1.2695212 
C     3.0311670   -4.1372195   -0.7316043 
C     3.0818693   -2.9844272    0.0912169 
C     4.3534377   -2.4323088    0.3888287 
C     5.5180984   -2.9906072   -0.1444428 
H     6.3607000   -4.5540087   -1.3955572 
H     4.1353698   -5.5769471   -1.9106898 
H     2.0580304   -4.5881583   -0.9588390 
H     4.4287115   -1.5750239    1.0661107 
H     6.4918888   -2.5554129    0.1035304 
C     0.7062960    2.2873451    4.7600856 
C    -0.3132861    2.4295764    3.8071548 
C    -0.4274000    1.5079670    2.7589783 
C     0.4721480    0.4284850    2.6294117 
C     1.4870247    0.2936729    3.6046534 
C     1.6017061    1.2124683    4.6568713 
H     0.8017748    3.0082880    5.5784890 
H    -1.0173837    3.2657678    3.8734081 
H    -1.2063975    1.6345566    1.9977483 
H     2.1866964   -0.5467009    3.5410778 
H     2.3955013    1.0861150    5.4006761 
C    -2.4870984   -2.8323110   -0.3754822 
C    -3.6858925   -0.8051571    1.7701976 
C     1.8942094    3.1231787   -0.2736255 
C     2.3942847    0.7583973   -2.3500557 
C    -3.7878051   -0.2767072   -1.1651358 
C     0.0575604    2.5524290   -2.5394020 
C    -1.9525183   -3.6890986    0.7921402 
C    -1.4473135   -2.8139097   -1.5217695 
C    -3.8006629   -3.4534470   -0.9008589 
C    -2.8247376   -1.1467502    3.0064232 
C    -4.9608689   -1.6734197    1.7733966 
C    -4.0865644    0.6884627    1.8378113 
C     0.6990701    3.9544498    0.2504408 
C     2.8049271    4.0142084   -1.1415520 
C     2.6880920    2.5802255    0.9331651 
C     2.7801299    1.5491388   -3.6215452 
C     1.6971836   -0.5607177   -2.7575225 
C     3.6820043    0.4331259   -1.5687657 
C    -3.3220934    1.1209059   -1.4949303 
C    -1.3993720    2.5292143   -2.1533628 
C    -1.9898688    1.2663955   -1.9391691 
C    -4.0913118    2.2784343   -1.3096361 
C    -2.1861687    3.6735785   -1.9530191 
C    -3.5259583    3.5419795   -1.5524316 
H    -4.8420403   -0.3161493   -0.8480403 
H    -3.6893384   -0.9226425   -2.0547291 
H     0.1864535    1.9949121   -3.4821213 
H     0.4359530    3.5720657   -2.7145272 
H    -2.7126880   -3.8365985    1.5763963 
H    -1.6761657   -4.6880570    0.4082875 
H    -1.0542287   -3.2517838    1.2580345 
H    -1.7930571   -2.2177556   -2.3859176 
H    -1.2813281   -3.8461985   -1.8808306 
H    -0.4801957   -2.3994247   -1.1889128 
H    -4.2063927   -2.9125382   -1.7717493 
H    -3.5875561   -4.4862509   -1.2329990 
H    -4.5830801   -3.5092607   -0.1302357 
H    -2.4644145   -2.1868468    3.0003139 
H    -1.9620522   -0.4713115    3.1061313 
H    -3.4472194   -1.0192122    3.9107691 
H    -4.7307425   -2.7473153    1.8643303 
H    -5.5834686   -1.5202899    0.8749565 
H    -5.5736610   -1.3935853    2.6498173 
H    -4.8767187    0.9385405    1.1119785 
H    -4.4813060    0.9067017    2.8463041 
H    -3.2285824    1.3582708    1.6568345 
H    -0.0394152    3.3210072    0.7698093 
H     1.0719911    4.7017262    0.9738908 
H     0.1853908    4.5010974   -0.5572350 
H     3.1130495    4.8916969   -0.5437984 
H     3.7231596    3.4904047   -1.4529643 
H     2.2945800    4.3959972   -2.0427290 
H     3.5640273    1.9866274    0.6295623 
H     3.0567631    3.4351025    1.5287226 
H     2.0542801    1.9682061    1.5908529 
H     3.2082419    2.5376299   -3.3954825 
H     3.5485223    0.9700193   -4.1658382 
H     1.9340931    1.6856713   -4.3146784 
H     0.7491715   -0.3788073   -3.2972877 
H     1.4830455   -1.1867362   -1.8752173 
H     2.3592361   -1.1322740   -3.4333508 
H     3.4729294   -0.0811410   -0.6210617 
H     4.3059894   -0.2477704   -2.1749109 
H     4.2787261    1.3362966   -1.3614938 
H    -1.4279146    0.3595268   -2.2439315 
H    -5.1301612    2.2012656   -0.9727297 
H    -1.7590103    4.6688688   -2.1134892 
H    -4.1366877    4.4399400   -1.4126472 
