99
Energy =
C     1.1412071    0.1882734    2.8679542 
C     1.0508874   -0.7268570    1.8565185 
C     1.6097569   -0.5262031    0.5165018 
H     0.6015373   -1.7055269    2.0534696 
Pd    0.0181260   -0.0171187   -0.8117068 
P     1.2770599    1.6141944   -2.0296623 
P    -2.0282440   -1.2172764    0.0523572 
H     1.5777766    1.1694369    2.6371652 
H     2.2644469    0.3557149    0.5050974 
C    -0.2159461   -0.2383163    6.9176247 
C     0.0983782    1.0263522    6.3962479 
C     0.5592539    1.1470714    5.0808216 
C     0.7028807    0.0087372    4.2497167 
C     0.3999974   -1.2631748    4.8007079 
C    -0.0565673   -1.3820788    6.1155090 
H    -0.5701597   -0.3358343    7.9489757 
H    -0.0122712    1.9198071    7.0194572 
H     0.8023811    2.1368330    4.6772501 
H     0.5452883   -2.1659409    4.1980006 
H    -0.2785250   -2.3726874    6.5260415 
C     3.7952295   -3.9358224   -1.0555371 
C     2.4040586   -3.8726584   -1.2249256 
C     1.6854109   -2.7775552   -0.7282403 
C     2.3331130   -1.7194615   -0.0598456 
C     3.7327077   -1.8039494    0.1135887 
C     4.4556806   -2.8985626   -0.3797541 
H     4.3613140   -4.7875210   -1.4462301 
H     1.8758429   -4.6744064   -1.7519015 
H     0.6061642   -2.7112183   -0.8886229 
H     4.2576178   -1.0100959    0.6570275 
H     5.5399585   -2.9418826   -0.2323853 
C     1.4692485    3.2709232   -1.0881576 
C     2.8776318    1.0877314   -2.9368310 
C    -2.2456213   -3.0973477    0.4183095 
C    -2.8568565   -0.1343011    1.4194964 
C     0.1426939    2.0530699   -3.4711070 
C    -3.1931503   -1.0150185   -1.4220322 
C     0.0400931    3.8029131   -0.8315081 
C     2.2741031    4.3276352   -1.8702262 
C     2.1273161    3.0069497    0.2823429 
C     3.2042004    1.9708506   -4.1628328 
C     2.6135706   -0.3595690   -3.4168831 
C     4.0716882    1.1006100   -1.9608817 
C    -1.9637032   -3.8589859   -0.9031138 
C    -3.6761875   -3.4457499    0.8841528 
C    -1.2240161   -3.5642094    1.4791648 
C    -2.2506274    1.2807482    1.2604514 
C    -2.5083341   -0.6672581    2.8227213 
C    -4.3909382   -0.0395833    1.2791717 
C    -1.3057438    1.8411249   -3.1004255 
C    -2.9660120    0.3199167   -2.0842289 
C    -1.6748292    0.5834390   -2.5841912 
C    -2.2915630    2.8366355   -3.1897053 
C    -3.9346088    1.3317796   -2.1816018 
C    -3.5988788    2.5714066   -2.7510066 
H     0.4195864    1.3759295   -4.2988437 
H     0.3446690    3.0822463   -3.8108338 
H    -4.2406430   -1.1651748   -1.1193368 
H    -2.9319879   -1.8210629   -2.1279882 
H    -0.6159324    3.0246721   -0.4045954 
H     0.0969873    4.6374401   -0.1091436 
H    -0.4314466    4.1911421   -1.7475620 
H     3.3367062    4.0544222   -1.9708392 
H     2.2299622    5.2839303   -1.3172792 
H     1.8597972    4.5123627   -2.8763240 
H     3.1234038    2.5431241    0.2032344 
H     2.2484352    3.9693978    0.8119902 
H     1.4826183    2.3615359    0.9005670 
H     3.3925172    3.0215243   -3.8979316 
H     4.1247658    1.5777657   -4.6322360 
H     2.4136305    1.9383413   -4.9304225 
H     1.7426155   -0.4183628   -4.0949600 
H     2.4430901   -1.0469224   -2.5738928 
H     3.4939665   -0.7173950   -3.9807829 
H     3.8653007    0.5144289   -1.0530580 
H     4.9444300    0.6388007   -2.4568629 
H     4.3586029    2.1246860   -1.6705291 
H    -1.0609367   -3.4927936   -1.4226265 
H    -1.8032662   -4.9270969   -0.6712788 
H    -2.8116008   -3.8023320   -1.6052925 
H    -3.7615558   -4.5449850    0.9689198 
H    -3.9116878   -3.0211718    1.8725781 
H    -4.4434882   -3.1131134    0.1645632 
H    -1.3409480   -3.0394023    2.4393477 
H    -1.3798113   -4.6418572    1.6688177 
H    -0.1866730   -3.4387910    1.1295107 
H    -2.4620677    1.7074626    0.2648346 
H    -2.6951686    1.9518904    2.0187436 
H    -1.1567220    1.2653817    1.4148872 
H    -1.4271283   -0.8015316    2.9580562 
H    -3.0172639   -1.6173633    3.0505679 
H    -2.8377372    0.0718798    3.5752332 
H    -4.8865490   -1.0227604    1.3021915 
H    -4.7805442    0.5462891    2.1319121 
H    -4.6918100    0.4886663    0.3609526 
H    -0.9599569   -0.2634321   -2.6784777 
H    -2.0423308    3.8212096   -3.5993455 
H    -4.9535283    1.1553422   -1.8220548 
H    -4.3641376    3.3496934   -2.8367092 
