99
Energy =
C     0.7317915   -1.4440066    0.7137372 
C     1.2956102   -0.4999755    1.6778612 
C     0.7171657   -0.1417810    2.8624108 
H     2.2621379   -0.0600045    1.4020193 
Pd   -0.3407207   -0.2933331   -0.7343225 
P    -2.4228038   -1.4796144   -0.4327120 
P     1.2513267    1.4709808   -1.3870150 
H    -0.0934754   -2.0265601    1.1506567 
H    -0.2644366   -0.5682126    3.1060668 
C     3.6035548   -4.0839744   -1.2036633 
C     2.4446144   -3.7000823   -1.8947270 
C     1.5182912   -2.8416570   -1.2894944 
C     1.7227038   -2.3406932    0.0140244 
C     2.8910651   -2.7471507    0.6999844 
C     3.8193377   -3.6073348    0.0977381 
H     4.3320219   -4.7516086   -1.6750086 
H     2.2642650   -4.0625635   -2.9122734 
H     0.6269005   -2.5195212   -1.8399451 
H     3.0645533   -2.3949068    1.7224103 
H     4.7149552   -3.9085323    0.6512895 
C     2.1764813    2.7098190    5.7195851 
C     3.0743933    2.1068998    4.8215264 
C     2.6192430    1.1640158    3.8961413 
C     1.2490776    0.8041153    3.8409433 
C     0.3640215    1.4007636    4.7728614 
C     0.8201276    2.3490199    5.6948168 
H     2.5369906    3.4455746    6.4457832 
H     4.1380107    2.3652655    4.8554503 
H     3.3363404    0.6768326    3.2269176 
H    -0.6961915    1.1224396    4.7554928 
H     0.1181206    2.8054120    6.4003899 
C    -3.2868861   -0.9181207    1.1925747 
C    -2.5785633   -3.3659901   -0.7327336 
C     1.3017031    2.9736109   -0.1726648 
C     2.9728068    1.0613515   -2.1156703 
C    -3.5077475   -0.7495507   -1.7905872 
C     0.3461590    2.1829551   -2.8890137 
C    -4.8264669   -0.8676056    1.0858328 
C    -2.7615178    0.5093502    1.4754844 
C    -2.8849645   -1.8455314    2.3596167 
C    -4.0180054   -3.8747070   -0.5092851 
C    -1.5921340   -4.1407414    0.1711098 
C    -2.1737219   -3.6155380   -2.2074570 
C     2.5188460    2.8976107    0.7701833 
C     0.0103491    2.8756729    0.6731954 
C     1.3318494    4.3338889   -0.9031346 
C     2.7264388    0.0385769   -3.2517406 
C     3.8518170    0.3742974   -1.0479187 
C     3.6856478    2.3071827   -2.6798744 
C    -3.0542088    0.6621586   -2.0728940 
C    -1.1400673    2.1229047   -2.6360995 
C    -1.7144380    0.8440878   -2.4778618 
C    -3.8547762    1.7996212   -1.8868554 
C    -1.9646881    3.2459902   -2.4589408 
C    -3.3141148    3.0783560   -2.1057771 
H    -4.5734600   -0.8104347   -1.5247560 
H    -3.3531863   -1.3744984   -2.6856364 
H     0.6045769    1.5301911   -3.7394648 
H     0.6994351    3.1964703   -3.1272604 
H    -5.2720674   -1.8306732    0.7925597 
H    -5.2350934   -0.6008699    2.0777466 
H    -5.1655532   -0.0912551    0.3803105 
H    -1.6681644    0.5171735    1.6148346 
H    -3.2321478    0.8910130    2.4006334 
H    -3.0036294    1.2086842    0.6578689 
H    -1.7924919   -1.9756406    2.4341235 
H    -3.2304394   -1.3931230    3.3071443 
H    -3.3495005   -2.8417377    2.2812588 
H    -4.0716556   -4.9356365   -0.8156897 
H    -4.3175227   -3.8244173    0.5500823 
H    -4.7566283   -3.3190908   -1.1126169 
H    -1.7824369   -3.9891280    1.2437208 
H    -0.5452915   -3.8764271   -0.0460324 
H    -1.7066148   -5.2208516   -0.0335695 
H    -2.9594254   -3.3114407   -2.9188384 
H    -1.2377810   -3.0936580   -2.4736333 
H    -2.0048193   -4.6974571   -2.3512582 
H     3.4690101    3.0853707    0.2442159 
H     2.4089892    3.6738795    1.5487080 
H     2.5821890    1.9317611    1.2908348 
H    -0.0488152    3.7518494    1.3449817 
H    -0.8970517    2.8637083    0.0459970 
H     0.0171741    1.9686603    1.2984163 
H     0.3956123    4.5369210   -1.4460363 
H     1.4436023    5.1303818   -0.1448545 
H     2.1762299    4.4253757   -1.6054425 
H     2.2512507    0.4924069   -4.1376373 
H     3.6993321   -0.3708201   -3.5777137 
H     2.1084066   -0.8071437   -2.9050727 
H     3.3752916   -0.5409094   -0.6650470 
H     4.0910467    1.0343901   -0.2015176 
H     4.8075475    0.0775253   -1.5169514 
H     3.9536935    3.0267144   -1.8892334 
H     4.6251675    1.9898413   -3.1688332 
H     3.0796042    2.8289543   -3.4404062 
H    -1.1241376   -0.0423256   -2.7853046 
H    -4.8994971    1.6925447   -1.5764167 
H    -1.5592483    4.2538406   -2.5934281 
H    -3.9502903    3.9604246   -1.9792200 
