99
Energy =
C     0.9023594   -1.3023033    0.8026122 
C     1.0352095   -0.5334964    2.0367479 
C     0.3557836   -0.7651504    3.2008104 
H     1.7601744    0.2853987    2.0161139 
Pd   -0.3615856    0.0252397   -0.3148205 
P    -2.3360265   -1.4054340   -0.3413613 
P     1.1241176    1.9113956   -0.9573501 
H     0.2405782   -2.1737119    0.9101451 
H    -0.3469333   -1.6056604    3.2292422 
C     4.5195087   -2.5017074   -1.2704611 
C     3.2669662   -2.6639971   -1.8838147 
C     2.1038782   -2.2501832   -1.2265350 
C     2.1525564   -1.6628283    0.0589485 
C     3.4219149   -1.5260951    0.6694419 
C     4.5897566   -1.9349285    0.0102736 
H     5.4317562   -2.8225528   -1.7834050 
H     3.1965217   -3.1096713   -2.8814774 
H     1.1361324   -2.3684714   -1.7211389 
H     3.4938515   -1.1343275    1.6884623 
H     5.5581743   -1.8223407    0.5087267 
C     0.5061489    1.4658069    6.8645174 
C     1.4171815    1.7642091    5.8353209 
C     1.3914007    1.0445042    4.6390436 
C     0.4476507    0.0044368    4.4371814 
C    -0.4533090   -0.2899732    5.4913421 
C    -0.4278280    0.4334789    6.6882720 
H     0.5316614    2.0314612    7.8014994 
H     2.1565801    2.5599342    5.9748490 
H     2.1200736    1.2805568    3.8571567 
H    -1.1842075   -1.0961007    5.3571886 
H    -1.1353042    0.1907473    7.4878506 
C    -3.2129121   -1.7247605    1.3293748 
C    -2.2158090   -2.9674189   -1.4374649 
C     2.0661356    2.9360900    0.3628030 
C     2.1567194    1.5783750   -2.5429552 
C    -3.6176986   -0.3498947   -1.2381220 
C    -0.1433073    3.1867336   -1.5419847 
C    -3.0212058   -0.4095434    2.1246956 
C    -2.5409600   -2.9027087    2.0673302 
C    -4.7246981   -2.0174176    1.2001445 
C    -3.5583112   -3.7069961   -1.6093573 
C    -1.1729834   -3.9530650   -0.8660688 
C    -1.7252683   -2.4446584   -2.8102824 
C     1.0496704    3.1199413    1.5197968 
C     2.5124662    4.3229370   -0.1471576 
C     3.3082191    2.1735377    0.8795069 
C     2.3446654    2.8258352   -3.4319068 
C     1.3698484    0.5096607   -3.3390142 
C     3.5395505    1.0109629   -2.1615776 
C    -2.9662845    0.6965006   -2.1060839 
C    -1.2726195    2.4859181   -2.2493725 
C    -1.9986250    1.5294709   -1.5126817 
C    -3.2458812    0.8676477   -3.4710390 
C    -1.5807480    2.6535251   -3.6087979 
C    -2.5709247    1.8559408   -4.2066593 
H    -4.2158316    0.1469768   -0.4542715 
H    -4.3065983   -0.9957109   -1.8058112 
H     0.3372485    3.9528888   -2.1679186 
H    -0.5202348    3.6867929   -0.6331204 
H    -3.5361821    0.4397992    1.6402204 
H    -3.4578210   -0.5241795    3.1336480 
H    -1.9570066   -0.1430892    2.2356361 
H    -2.8669111   -2.9042294    3.1233941 
H    -1.4409250   -2.8405592    2.0555428 
H    -2.8333647   -3.8717233    1.6310001 
H    -4.9315655   -2.9333058    0.6264682 
H    -5.1384640   -2.1602004    2.2155431 
H    -5.2815373   -1.1844509    0.7403484 
H    -3.4299701   -4.5003998   -2.3683056 
H    -3.8803044   -4.1954478   -0.6753834 
H    -4.3710807   -3.0483581   -1.9598568 
H    -1.5064329   -4.4194662    0.0729121 
H    -0.1978568   -3.4758122   -0.6897316 
H    -1.0145763   -4.7644517   -1.5995911 
H    -0.8287682   -1.8065809   -2.7087968 
H    -1.4686841   -3.3047853   -3.4548690 
H    -2.4975281   -1.8551353   -3.3308840 
H     0.6249057    2.1612255    1.8620178 
H     1.5596287    3.5942040    2.3772707 
H     0.2120936    3.7803828    1.2370949 
H     2.9833346    4.8722409    0.6891426 
H     3.2624755    4.2436868   -0.9509701 
H     1.6707626    4.9373435   -0.5078351 
H     4.1653807    2.2825269    0.1992535 
H     3.6072422    2.5904248    1.8583393 
H     3.1264515    1.0961220    1.0056878 
H     2.8148065    3.6660734   -2.8962677 
H     3.0097106    2.5554396   -4.2725183 
H     1.3956225    3.1737584   -3.8711049 
H     0.3596031    0.8523512   -3.6156363 
H     1.2755845   -0.4221704   -2.7609982 
H     1.9202550    0.2808892   -4.2704678 
H     3.4726170    0.2138667   -1.4058214 
H     4.0058829    0.5764539   -3.0640352 
H     4.2129941    1.7987007   -1.7880376 
H    -1.8849020    1.5168742   -0.4052441 
H    -3.9946617    0.2361399   -3.9610574 
H    -1.0424140    3.3962205   -4.2066318 
H    -2.8067597    1.9938247   -5.2668625 
