99
Energy =
C     1.3869717   -0.0944979    2.7569147 
C     1.0503855   -0.9497082    1.7452859 
C     1.5121130   -0.8065770    0.3609077 
H     0.4585942   -1.8430833    1.9689825 
Pd   -0.0673514    0.0125966   -0.8153427 
P     1.3591844    1.4380788   -2.1071162 
P    -2.2007042   -0.8498493    0.1989146 
H     1.9643378    0.8040552    2.5007195 
H     2.3059713   -0.0493855    0.3040488 
C     0.3383786   -0.3972853    6.9082229 
C     0.8228480    0.8081226    6.3770119 
C     1.1799959    0.8850875    5.0264989 
C     1.0476072   -0.2361657    4.1706859 
C     0.5758965   -1.4515979    4.7302977 
C     0.2230668   -1.5275190    6.0797792 
H     0.0649096   -0.4617990    7.9663997 
H     0.9265050    1.6886196    7.0195671 
H     1.5571877    1.8286651    4.6153995 
H     0.5069433   -2.3481572    4.1050257 
H    -0.1323668   -2.4759955    6.4959146 
C     2.9594419   -4.5024894   -1.4081533 
C     1.6001349   -4.1749640   -1.5185503 
C     1.1174190   -2.9839128   -0.9601113 
C     1.9745147   -2.0915954   -0.2867462 
C     3.3393016   -2.4397832   -0.1763981 
C     3.8264036   -3.6308828   -0.7314503 
H     3.3416435   -5.4301496   -1.8461343 
H     0.9127048   -4.8440011   -2.0471082 
H     0.0647796   -2.7111497   -1.0735967 
H     4.0226877   -1.7758008    0.3653051 
H     4.8881590   -3.8799502   -0.6318833 
C     1.9207380    3.0012143   -1.1528383 
C     2.7587211    0.6673768   -3.1595075 
C    -2.6972584   -2.6818664    0.5281867 
C    -2.7128828    0.2974837    1.6654485 
C     0.2049342    2.1201267   -3.4336903 
C    -3.4351491   -0.3916354   -1.1566118 
C     0.6353994    3.7673140   -0.7622292 
C     2.8356325    3.9255966   -1.9800705 
C     2.6307814    2.5785895    0.1501545 
C     2.1950455   -0.6865097   -3.6533871 
C     4.0065594    0.4200482   -2.2872554 
C     3.1463408    1.5260549   -4.3849621 
C    -4.1204410   -2.8102223    1.1135751 
C    -1.6790945   -3.3546671    1.4754557 
C    -2.6613246   -3.4203293   -0.8350164 
C    -2.3445745   -0.3443287    3.0171440 
C    -4.2146469    0.6538075    1.6665204 
C    -1.8890279    1.5961581    1.4902209 
C    -1.2218644    2.1507639   -2.9393302 
C    -3.0321742    0.9069389   -1.8076132 
C    -1.7626540    0.9588243   -2.4180895 
C    -2.0197764    3.3055126   -2.9181621 
C    -3.8101250    2.0756697   -1.7940262 
C    -3.3103663    3.2570863   -2.3668516 
H     0.2873629    1.4349259   -4.2961494 
H     0.5562250    3.1099795   -3.7685026 
H    -4.4622802   -0.3673173   -0.7620646 
H    -3.3839579   -1.2034266   -1.9011749 
H    -0.1109476    3.1025675   -0.2937277 
H     0.8998878    4.5539497   -0.0322422 
H     0.1659733    4.2629456   -1.6258718 
H     3.0076536    4.8550573   -1.4067858 
H     2.3819681    4.2148656   -2.9436745 
H     3.8207398    3.4724581   -2.1756486 
H     3.5162365    1.9465559   -0.0234464 
H     2.9677103    3.4859038    0.6837204 
H     1.9328542    2.0394598    0.8105964 
H     1.2804979   -0.5582446   -4.2607736 
H     2.9491589   -1.1768817   -4.2953097 
H     1.9634905   -1.3638119   -2.8168465 
H     3.7682323   -0.1659239   -1.3867668 
H     4.4951533    1.3613362   -1.9860659 
H     4.7411882   -0.1631228   -2.8714182 
H     3.5554059    2.5088478   -4.1091493 
H     3.9311796    0.9864431   -4.9462435 
H     2.3031314    1.6790478   -5.0785712 
H    -4.8798113   -2.3241924    0.4776261 
H    -4.3816802   -3.8829739    1.1742372 
H    -4.1954515   -2.3963359    2.1313421 
H    -1.9916981   -4.4012533    1.6439116 
H    -0.6689350   -3.3792741    1.0360868 
H    -1.6273978   -2.8631421    2.4587951 
H    -1.7582091   -3.1840041   -1.4240081 
H    -2.6615760   -4.5094877   -0.6502630 
H    -3.5454565   -3.1952889   -1.4538530 
H    -1.2944725   -0.6623699    3.0529054 
H    -2.4805134    0.4075124    3.8155457 
H    -2.9869847   -1.2048080    3.2637410 
H    -4.8669235   -0.2327219    1.7065040 
H    -4.4973757    1.2641696    0.7945596 
H    -4.4250515    1.2594455    2.5670332 
H    -2.1066413    2.0924532    0.5287832 
H    -2.1484852    2.3005502    2.3023262 
H    -0.8050119    1.3914731    1.5467475 
H    -1.2207329    0.0039411   -2.5961869 
H    -1.6363851    4.2455226   -3.3287982 
H    -4.8086278    2.0674373   -1.3451476 
H    -3.9298995    4.1597998   -2.3661272 
