99
Energy =
C     1.7591196    0.5134080    2.5329874 
C     1.2239685   -0.4728465    1.7528941 
C     1.5642212   -0.7261815    0.3556110 
H     0.4905952   -1.1475770    2.2019539 
Pd   -0.1381046    0.0596629   -0.6971829 
P     1.0635246    1.8998168   -1.7095445 
P    -2.0307070   -1.4984082   -0.1723632 
H     2.5229646    1.1624676    2.0894219 
H     2.3654039   -0.0660876   -0.0065714 
C     0.7939922    1.5489650    6.5850038 
C     1.6987392    2.3211587    5.8406058 
C     2.0080565    1.9611867    4.5246355 
C     1.4173439    0.8248780    3.9172201 
C     0.5108022    0.0532651    4.6886090 
C     0.2044050    0.4124000    6.0027327 
H     0.5522874    1.8255620    7.6163453 
H     2.1659653    3.2038831    6.2891827 
H     2.7158805    2.5662719    3.9460190 
H     0.0506880   -0.8407751    4.2570746 
H    -0.4942524   -0.1983722    6.5842845 
C     2.4540341   -4.8014151   -0.8302674 
C     2.3205213   -4.4696757    0.5255866 
C     2.0058367   -3.1574654    0.9068408 
C     1.8097670   -2.1446176   -0.0614043 
C     1.9572326   -2.4984531   -1.4232062 
C     2.2742496   -3.8060552   -1.8048521 
H     2.7010923   -5.8259345   -1.1262484 
H     2.4734318   -5.2334701    1.2951707 
H     1.9488219   -2.9077307    1.9707266 
H     1.8019907   -1.7337684   -2.1899123 
H     2.3767940   -4.0517059   -2.8670042 
C     2.4315855    1.5132190   -2.9963455 
C     1.5592900    3.2903962   -0.4771660 
C    -2.1249683   -3.1109150   -1.2029202 
C    -2.5395866   -1.7356885    1.6576640 
C    -0.2628923    2.7220125   -2.7717124 
C    -3.4969414   -0.5283225   -0.8729599 
C     3.6183415    0.7629388   -2.3498415 
C     2.9437543    2.7862465   -3.7019560 
C     1.7747655    0.5690743   -4.0355701 
C     1.4982339    4.7079346   -1.0872171 
C     2.9864421    3.0428287    0.0565045 
C     0.5366886    3.2042396    0.6828098 
C    -3.5510056   -3.6867682   -1.3319363 
C    -1.1958763   -4.1879828   -0.6082557 
C    -1.5998607   -2.7058643   -2.6018014 
C    -3.9879325   -2.2234139    1.8739897 
C    -2.3918292   -0.3201440    2.2719834 
C    -1.5871172   -2.7428280    2.3447175 
C    -1.5865704    2.5488880   -2.0716399 
C    -3.1565956    0.9241510   -1.0796406 
C    -2.0328524    1.2254435   -1.8734516 
C    -2.3317069    3.5974729   -1.5116743 
C    -3.8741960    1.9868679   -0.5070789 
C    -3.4748339    3.3120123   -0.7452659 
H    -0.2733594    2.1901355   -3.7373419 
H    -0.0143773    3.7742227   -2.9722873 
H    -4.3773167   -0.6571076   -0.2258593 
H    -3.7470619   -0.9852221   -1.8457544 
H     3.3048404   -0.1785819   -1.8726131 
H     4.3395819    0.5008016   -3.1452051 
H     4.1553951    1.3711374   -1.6083235 
H     2.1275045    3.3723702   -4.1577474 
H     3.6329132    2.4920767   -4.5149759 
H     3.5067293    3.4397726   -3.0155916 
H     1.0735534    1.0960633   -4.7038897 
H     2.5636867    0.1303068   -4.6719825 
H     1.2290597   -0.2596358   -3.5479590 
H     1.8738022    5.4250561   -0.3344202 
H     2.1216090    4.8168685   -1.9887506 
H     0.4669717    5.0109666   -1.3306684 
H     3.7541616    3.2854127   -0.6964823 
H     3.1416409    2.0029629    0.3850899 
H     3.1595912    3.6985465    0.9293131 
H     0.5414149    2.2143583    1.1658001 
H     0.7923659    3.9622071    1.4462892 
H    -0.4896581    3.4051435    0.3353963 
H    -4.2684692   -2.9754651   -1.7741487 
H    -3.5129433   -4.5678425   -1.9987788 
H    -3.9497376   -4.0254358   -0.3630467 
H    -1.0672663   -4.9986181   -1.3477723 
H    -0.1992077   -3.7907829   -0.3703873 
H    -1.6227964   -4.6370591    0.3016776 
H    -0.5691101   -2.3163043   -2.5431798 
H    -1.5956559   -3.5946618   -3.2586257 
H    -2.2366128   -1.9437050   -3.0872388 
H    -4.1574680   -3.2280193    1.4561269 
H    -4.1753459   -2.2813960    2.9620414 
H    -4.7427275   -1.5368311    1.4557256 
H    -3.1049404    0.3924213    1.8219324 
H    -1.3783855    0.0932673    2.1370245 
H    -2.6042845   -0.3667356    3.3555549 
H    -0.5464496   -2.6617019    1.9954456 
H    -1.6026191   -2.5757365    3.4370475 
H    -1.9088435   -3.7805581    2.1663404 
H    -1.5429002    0.4092145   -2.4394491 
H    -2.0170721    4.6359792   -1.6585758 
H    -4.7513636    1.7827660    0.1161081 
H    -4.0518507    4.1351583   -0.3114428 
