99
Energy =
C     1.3899354   -2.6849254    0.7109866 
C     1.5751949   -1.3673818    1.0235481 
C     0.6010822   -0.5396045    1.7187756 
H     2.5148426   -0.8814635    0.7395246 
Pd   -0.4864860    0.6129132    0.2438883 
P    -2.6721495   -0.3189008    0.7887817 
P     1.1987920    1.7509888   -1.1812217 
H     0.4296860   -3.1428024    0.9795154 
H    -0.2338190   -1.1257307    2.1230245 
C     4.0433698   -5.3256629   -1.3861147 
C     2.7014401   -5.6767767   -1.1720302 
C     1.8545671   -4.8105563   -0.4729620 
C     2.3236940   -3.5661902    0.0179864 
C     3.6860452   -3.2350066   -0.1977532 
C     4.5317253   -4.1031929   -0.8916278 
H     4.7108248   -6.0054877   -1.9255241 
H     2.3169416   -6.6304371   -1.5480195 
H     0.8069084   -5.0879080   -0.3074961 
H     4.0885906   -2.2981228    0.2004365 
H     5.5828229   -3.8346553   -1.0404756 
C     2.0111835    2.3803006    4.6022555 
C     2.9083231    1.4751008    4.0178716 
C     2.4585895    0.5310937    3.0845635 
C     1.0987780    0.4765570    2.6981859 
C     0.2070945    1.3859947    3.3178869 
C     0.6516956    2.3242485    4.2533095 
H     2.3649654    3.1162029    5.3313418 
H     3.9665894    1.4929114    4.2989058 
H     3.1702490   -0.1921960    2.6765246 
H    -0.8463893    1.3699161    3.0277513 
H    -0.0626233    3.0188980    4.7073426 
C    -2.8752582   -1.9693371   -0.1864271 
C    -3.4493464   -0.4340016    2.5458929 
C     2.5126520    2.8944452   -0.3835724 
C     1.9313753    0.6970140   -2.6122707 
C    -3.8615030    0.8657765   -0.0665775 
C     0.1363721    3.0142223   -2.1083255 
C    -2.4951644   -3.1670485    0.7089213 
C    -1.8797192   -1.8936615   -1.3692606 
C    -4.2967475   -2.1755346   -0.7515706 
C    -4.8355685   -1.1136490    2.5286582 
C    -3.6198576    1.0181342    3.0620858 
C    -2.5087038   -1.1877286    3.5151990 
C     3.0095325    4.0311078   -1.3045386 
C     3.7098907    2.0473236    0.0913936 
C     1.8077509    3.5243001    0.8403701 
C     2.6431397   -0.5428641   -2.0386397 
C     2.9011110    1.4808142   -3.5180078 
C     0.7353063    0.1999573   -3.4567213 
C    -3.2381370    1.4069713   -1.3287645 
C    -1.2629591    2.4955391   -2.3353581 
C    -1.9933848    2.0594817   -1.2140815 
C    -3.7958544    1.2551406   -2.6073593 
C    -1.8545636    2.3593567   -3.6023002 
C    -3.1159056    1.7569741   -3.7304075 
H    -4.0300317    1.6933589    0.6424908 
H    -4.8340012    0.3829138   -0.2475485 
H     0.6319861    3.3034504   -3.0495514 
H     0.1041702    3.9120402   -1.4653194 
H    -3.2443490   -3.3625431    1.4924702 
H    -2.4286418   -4.0738013    0.0801917 
H    -1.5143495   -3.0261753    1.1911910 
H    -1.9601106   -2.8194525   -1.9690966 
H    -0.8362728   -1.7997062   -1.0178083 
H    -2.1019995   -1.0405775   -2.0326907 
H    -4.5468320   -1.4209284   -1.5149792 
H    -4.3351488   -3.1625926   -1.2480125 
H    -5.0765319   -2.1660384    0.0254976 
H    -4.7762468   -2.1840337    2.2755931 
H    -5.2773846   -1.0390486    3.5394196 
H    -5.5332446   -0.6228571    1.8287414 
H    -4.4958677    1.5183165    2.6175556 
H    -2.7308648    1.6440282    2.8677450 
H    -3.7775002    0.9928681    4.1550088 
H    -1.5611982   -0.6488517    3.6727814 
H    -3.0069364   -1.2632029    4.4988683 
H    -2.2806142   -2.2115655    3.1841133 
H     2.1958213    4.7082102   -1.6129946 
H     3.7372100    4.6399284   -0.7366629 
H     3.5202283    3.6644194   -2.2062074 
H     4.3732598    2.6739108    0.7146382 
H     3.3822115    1.1981291    0.7115305 
H     4.3074922    1.6661973   -0.7531282 
H     1.4808795    2.7620602    1.5622485 
H     2.5122929    4.2030582    1.3541821 
H     0.9269335    4.1244774    0.5484972 
H     1.9339612   -1.1929545   -1.5056714 
H     3.0723380   -1.1275171   -2.8723231 
H     3.4693269   -0.2867218   -1.3574735 
H     3.8424460    1.7302430   -3.0023238 
H     2.4575635    2.4103993   -3.9140499 
H     3.1598017    0.8458271   -4.3854299 
H     0.3153788    0.9935118   -4.0926667 
H     1.0852148   -0.6093140   -4.1230882 
H    -0.0738423   -0.2044485   -2.8249929 
H    -1.6260662    2.3361412   -0.2007285 
H    -4.7637771    0.7580219   -2.7302437 
H    -1.3263411    2.7123223   -4.4944102 
H    -3.5672841    1.6576396   -4.7228829 
