99
Energy =
C     1.7584342    0.6077188    2.7378707 
C     1.1866307   -0.3816590    1.9865124 
C     1.5169926   -0.7026806    0.6010799 
H     0.4257574   -1.0118259    2.4563434 
Pd   -0.1346666    0.2472461   -0.3878480 
P     1.1541056    1.9970654   -1.4947560 
P    -2.0838176   -1.2157671    0.1020365 
H     2.5432596    1.2180749    2.2764545 
H     2.3576337   -0.1099679    0.2125147 
C     0.8303571    1.7685594    6.7646672 
C     1.7212137    2.5225466    5.9855367 
C     2.0192656    2.1220606    4.6787716 
C     1.4288616    0.9634475    4.1141883 
C     0.5382915    0.2094256    4.9213909 
C     0.2440200    0.6087651    6.2266581 
H     0.5985319    2.0763189    7.7894037 
H     2.1869252    3.4224693    6.4002292 
H     2.7167225    2.7128393    4.0733250 
H     0.0852277   -0.7057496    4.5272788 
H    -0.4409118    0.0103274    6.8366411 
C     2.0925213   -4.8699342   -0.4587820 
C     1.9628350   -4.4902838    0.8849245 
C     1.7537087   -3.1463230    1.2245662 
C     1.6564791   -2.1471653    0.2270393 
C     1.8054425   -2.5502972   -1.1202976 
C     2.0197984   -3.8896225   -1.4613476 
H     2.2579103   -5.9193295   -0.7227678 
H     2.0393834   -5.2415903    1.6778126 
H     1.7076346   -2.8642737    2.2806944 
H     1.7372929   -1.7988503   -1.9114498 
H     2.1250208   -4.1706305   -2.5143693 
C     2.2817347    1.4173601   -2.9258333 
C     1.9702376    3.3257937   -0.3853296 
C    -2.2457147   -2.7128183   -1.0916037 
C    -2.6055201   -1.6176253    1.9040004 
C    -0.1701765    3.0122273   -2.3759707 
C    -3.5150969   -0.1001632   -0.4279611 
C     2.8838023    2.5756723   -3.7471353 
C     1.3598169    0.5590719   -3.8269373 
C     3.4312865    0.5371353   -2.3881729 
C     3.3408951    2.8289196    0.1228440 
C     0.9865663    3.4992696    0.7985632 
C     2.1643718    4.6917743   -1.0811381 
C    -1.5089268   -2.2969420   -2.3874239 
C    -3.7059565   -3.0707285   -1.4397853 
C    -1.5479363   -3.9480547   -0.4857407 
C    -1.6830727   -2.6907796    2.5269895 
C    -4.0691512   -2.0933469    2.0217115 
C    -2.4391578   -0.2800598    2.6714641 
C    -1.4212516    2.2060079   -2.6155463 
C    -3.1117272    0.6949349   -1.6410187 
C    -1.9893946    1.5367782   -1.5148587 
C    -2.0325704    2.0616893   -3.8709579 
C    -3.7186143    0.5788978   -2.9016814 
C    -3.1858341    1.2704770   -4.0025377 
H     0.2386298    3.4380607   -3.3062345 
H    -0.4055561    3.8613280   -1.7106549 
H    -3.7080583    0.5787709    0.4205543 
H    -4.4272240   -0.6918380   -0.5942478 
H     3.3943531    2.1533152   -4.6319762 
H     2.1223613    3.2835071   -4.1165786 
H     3.6363390    3.1385545   -3.1716712 
H     0.8201296   -0.2099274   -3.2452171 
H     1.9733692    0.0496819   -4.5918737 
H     0.6073101    1.1688765   -4.3529394 
H     3.0674094   -0.2900354   -1.7610841 
H     3.9651589    0.0896628   -3.2461305 
H     4.1664333    1.1150358   -1.8086003 
H     3.6721865    3.4689525    0.9608231 
H     3.3090172    1.7892770    0.4864399 
H     4.1100438    2.8923087   -0.6639980 
H     0.8009498    2.5491190    1.3265649 
H     0.0117399    3.8996354    0.4653509 
H     1.4068239    4.2222483    1.5212953 
H     1.2128407    5.1405325   -1.4104643 
H     2.6157531    5.3909758   -0.3531709 
H     2.8403301    4.6335819   -1.9474433 
H    -0.4436975   -2.1024493   -2.1899732 
H    -1.5762657   -3.1242641   -3.1180678 
H    -1.9482124   -1.3979339   -2.8493208 
H    -3.6999032   -3.9823718   -2.0651233 
H    -4.3180474   -3.2854215   -0.5491440 
H    -4.2019552   -2.2808839   -2.0270843 
H    -2.1562664   -4.4102133    0.3080457 
H    -1.4106593   -4.7033777   -1.2804298 
H    -0.5537050   -3.7108528   -0.0777880 
H    -0.6262853   -2.5568903    2.2531165 
H    -1.7633796   -2.6413177    3.6282055 
H    -1.9734767   -3.7061671    2.2205828 
H    -4.2292061   -3.0596853    1.5162258 
H    -4.7903526   -1.3611245    1.6221080 
H    -4.3089177   -2.2380216    3.0915397 
H    -3.1792588    0.4754640    2.3567547 
H    -2.5992479   -0.4593191    3.7497423 
H    -1.4341583    0.1560157    2.5426052 
H    -1.6160086    1.7715724   -0.4922420 
H    -1.6152376    2.5710963   -4.7461040 
H    -4.5994784   -0.0584769   -3.0307448 
H    -3.6660915    1.1765929   -4.9819096 
