99
Energy =
C     1.5897184   -0.2512305    0.7525341 
C     0.9744324   -1.4660564    1.2849609 
C     1.0082932   -2.6929951    0.6852423 
H     0.4500228   -1.3537767    2.2422501 
Pd    0.0636855    0.7928605   -0.3237488 
P    -1.8329000    0.8724119    1.2510799 
P     1.3022696    0.8809737   -2.3961763 
H     2.2884996   -0.4747462   -0.0676134 
H     1.5129305   -2.7760817   -0.2856937 
C     3.4760853    2.3380475    3.6893830 
C     2.9363983    2.8926119    2.5190974 
C     2.3173240    2.0675263    1.5719918 
C     2.2152285    0.6732688    1.7663428 
C     2.7753917    0.1300706    2.9462947 
C     3.3970023    0.9529092    3.8954733 
H     3.9572259    2.9804676    4.4339490 
H     2.9893091    3.9726986    2.3460462 
H     1.8707034    2.5047186    0.6718144 
H     2.7349327   -0.9517080    3.1125489 
H     3.8247279    0.5070370    4.7996092 
C    -0.8696487   -6.3152739    2.0172524 
C    -0.4894173   -6.1552516    0.6755441 
C     0.1426057   -4.9776007    0.2623605 
C     0.3932295   -3.9238838    1.1760991 
C     0.0226777   -4.1128827    2.5313463 
C    -0.6031860   -5.2921456    2.9438500 
H    -1.3571930   -7.2392874    2.3445617 
H    -0.6822703   -6.9537723   -0.0484145 
H     0.4370306   -4.8555041   -0.7866121 
H     0.2554217   -3.3398275    3.2713179 
H    -0.8736734   -5.4239559    3.9967563 
C    -2.8992733   -0.7387173    1.2837383 
C    -1.6775679    1.6826086    2.9775045 
C     3.0103431    1.7399647   -2.5299141 
C     1.2661406   -0.8301609   -3.2758220 
C    -2.9575133    2.0937986    0.3424968 
C     0.2056380    1.9633438   -3.4823411 
C    -2.5385822   -1.5092341   -0.0081603 
C    -4.4169701   -0.4536918    1.3009664 
C    -2.5538982   -1.6201064    2.5002518 
C    -3.0423368    1.8515346    3.6753493 
C    -1.0325360    3.0705648    2.7423363 
C    -0.7165302    0.8621315    3.8649798 
C     4.0156796    1.1037427   -1.5426719 
C     2.7973856    3.2166842   -2.1113982 
C     3.5739575    1.6963085   -3.9656668 
C     2.5013886   -1.6642201   -2.8732103 
C     1.1967261   -0.7302081   -4.8150962 
C    -0.0124166   -1.5370273   -2.7663233 
C    -2.8096239    1.8811315   -1.1437386 
C    -1.2293575    1.8009707   -3.0437301 
C    -1.5377217    2.1214664   -1.7043639 
C    -3.8186341    1.3783194   -1.9814661 
C    -2.2494599    1.2850983   -3.8577661 
C    -3.5393302    1.1022367   -3.3303665 
H    -2.5962170    3.1005189    0.6111087 
H    -3.9988780    2.0111464    0.6854200 
H     0.3544838    1.7374841   -4.5485918 
H     0.5282743    3.0043552   -3.3159493 
H    -1.4850778   -1.8307708    0.0056066 
H    -3.1701894   -2.4141025   -0.0773857 
H    -2.7089947   -0.9031490   -0.9137918 
H    -4.7658498    0.0059687    0.3630182 
H    -4.7242662    0.1853219    2.1446498 
H    -4.9480064   -1.4175740    1.4041604 
H    -2.9044890   -1.1812201    3.4484182 
H    -3.0538168   -2.5979260    2.3791624 
H    -1.4758434   -1.8206077    2.5758772 
H    -3.4999728    0.8825565    3.9330363 
H    -2.8938414    2.4071844    4.6196320 
H    -3.7581843    2.4276378    3.0641991 
H    -1.7208706    3.7838952    2.2584135 
H    -0.1135230    2.9897860    2.1369960 
H    -0.7510366    3.5016552    3.7197656 
H     0.2732759    0.7583809    3.3952176 
H    -0.5735242    1.4000758    4.8197093 
H    -1.1052907   -0.1380488    4.1050337 
H     4.1972822    0.0373582   -1.7417278 
H     4.9837897    1.6268559   -1.6458156 
H     3.6913196    1.2205926   -0.4966410 
H     3.7829753    3.6796173   -1.9268691 
H     2.3005584    3.8110918   -2.8960900 
H     2.2091001    3.3023311   -1.1808697 
H     2.8668968    2.1097876   -4.7054566 
H     4.4917964    2.3113605   -4.0061428 
H     3.8504012    0.6748732   -4.2733974 
H     2.6423707   -1.7037069   -1.7804153 
H     2.3596614   -2.7017417   -3.2271847 
H     3.4293697   -1.2837971   -3.3299232 
H     2.0279727   -0.1537899   -5.2496767 
H     0.2448638   -0.2916207   -5.1570463 
H     1.2477317   -1.7526144   -5.2322106 
H    -0.9244000   -0.9682005   -3.0127293 
H    -0.0910550   -2.5310622   -3.2447171 
H     0.0124089   -1.6802269   -1.6738607 
H    -0.7908078    2.6770894   -1.1022251 
H    -4.8236609    1.1986973   -1.5865815 
H    -2.0435226    1.0295842   -4.9025033 
H    -4.3355789    0.7187916   -3.9766569 
