99
Energy =
C     1.7794675    0.5124333    2.7441555 
C     1.1929707   -0.4494048    1.9687953 
C     1.5124824   -0.7347138    0.5730570 
H     0.4278437   -1.0843494    2.4251051 
Pd   -0.1345662    0.2588698   -0.3806317 
P     1.1654804    2.0275026   -1.4431297 
P    -2.0956296   -1.1987575    0.0777809 
H     2.5686205    1.1266784    2.2954783 
H     2.3569395   -0.1396004    0.1965636 
C     0.8857865    1.5721378    6.8064428 
C     1.7833091    2.3355303    6.0443103 
C     2.0698314    1.9678639    4.7253810 
C     1.4611883    0.8335610    4.1315806 
C     0.5641670    0.0692583    4.9218069 
C     0.2812837    0.4358600    6.2391380 
H     0.6626920    1.8542902    7.8404502 
H     2.2631268    3.2171171    6.4816875 
H     2.7724359    2.5659185    4.1331918 
H     0.0966167   -0.8281283    4.5044300 
H    -0.4091638   -0.1699645    6.8354555 
C     2.0418047   -4.8756712   -0.6070004 
C     1.9235259   -4.5328479    0.7476112 
C     1.7290989   -3.1970881    1.1261701 
C     1.6358646   -2.1693286    0.1577327 
C     1.7735221   -2.5356672   -1.2012673 
C     1.9728336   -3.8668399   -1.5811394 
H     2.1955533   -5.9187277   -0.9014010 
H     1.9973936   -5.3069047    1.5185714 
H     1.6915252   -2.9444365    2.1900467 
H     1.7085116   -1.7615439   -1.9705827 
H     2.0693303   -4.1190471   -2.6422539 
C     1.9986061    3.3168044   -0.3002708 
C     2.2814588    1.4789379   -2.8954711 
C    -2.2779160   -2.6609263   -1.1553164 
C    -2.6126837   -1.6449960    1.8706208 
C    -0.1533521    3.0795969   -2.2885416 
C    -3.5186727   -0.0556137   -0.4145987 
C     1.0225080    3.4642492    0.8933712 
C     2.2007513    4.7006876   -0.9574005 
C     3.3675621    2.7940066    0.1860525 
C     2.8914530    2.6549766   -3.6852053 
C     1.3477725    0.6563136   -3.8174691 
C     3.4244493    0.5721157   -2.3888807 
C    -3.7432189   -2.9945211   -1.5064962 
C    -1.5904126   -3.9193877   -0.5866798 
C    -1.5425450   -2.2173250   -2.4426986 
C    -1.6977279   -2.7435499    2.4595428 
C    -4.0802561   -2.1099527    1.9824094 
C    -2.4299751   -0.3306129    2.6735481 
C    -1.4126008    2.2917420   -2.5456914 
C    -3.1128245    0.7689560   -1.6069786 
C    -1.9827254    1.5972013   -1.4618527 
C    -2.0297524    2.1876623   -3.8022524 
C    -3.7251651    0.6930109   -2.8680311 
C    -3.1902988    1.4102931   -3.9513059 
H     0.2552910    3.5289015   -3.2077816 
H    -0.3782231    3.9108532   -1.5975491 
H    -3.7015788    0.6013914    0.4531736 
H    -4.4370798   -0.6338767   -0.5929546 
H     0.8324169    2.5010041    1.3954392 
H     1.4520138    4.1634291    1.6338664 
H     0.0490383    3.8811702    0.5768226 
H     2.8711846    4.6620097   -1.8290773 
H     2.6623323    5.3745533   -0.2121542 
H     1.2512934    5.1669369   -1.2678613 
H     3.3284190    1.7447801    0.5201968 
H     4.1330750    2.8730976   -0.6029184 
H     3.7087996    3.4071264    1.0399906 
H     3.6517230    3.1936213   -3.0968331 
H     3.3943648    2.2537172   -4.5841279 
H     2.1353564    3.3804450   -4.0306404 
H     0.5995879    1.2885233   -4.3228402 
H     0.8025080   -0.1238730   -3.2562231 
H     1.9535696    0.1632817   -4.5991276 
H     3.0547508   -0.2706934   -1.7864869 
H     3.9515622    0.1466245   -3.2620537 
H     4.1666299    1.1249809   -1.7940000 
H    -4.2334904   -2.1842470   -2.0702647 
H    -3.7489911   -3.8891062   -2.1560141 
H    -4.3539044   -3.2269076   -0.6192968 
H    -1.4650500   -4.6542711   -1.4022583 
H    -0.5917234   -3.7039443   -0.1774894 
H    -2.1999089   -4.3964568    0.1973374 
H    -0.4744421   -2.0398006   -2.2449786 
H    -1.6220683   -3.0234557   -3.1954796 
H    -1.9742702   -1.3012724   -2.8774812 
H    -0.6410588   -2.6127634    2.1837486 
H    -1.7719444   -2.7229508    3.5620994 
H    -1.9998437   -3.7474399    2.1275920 
H    -4.2519004   -3.0605055    1.4514066 
H    -4.7962935   -1.3602914    1.6065333 
H    -4.3164018   -2.2817131    3.0490290 
H    -3.1641766    0.4402784    2.3831628 
H    -2.5869604   -0.5377436    3.7472874 
H    -1.4214089    0.0992048    2.5517958 
H    -1.6036503    1.7996003   -0.4344806 
H    -1.6111588    2.7175104   -4.6645682 
H    -4.6118881    0.0669481   -3.0113856 
H    -3.6747808    1.3476550   -4.9310954 
