99
Energy =
C     1.6517802   -0.3968356   -0.5333177 
C     2.0446022   -0.8272595    0.8054902 
C     2.2379957   -2.1212371    1.2039453 
H     2.2119284   -0.0309092    1.5368409 
Pd   -0.4339256   -0.0269022   -0.1873911 
P    -0.4866754    2.0783049    1.1323692 
P    -1.2897295   -1.8544408   -1.5584593 
H     1.5963572   -1.2280528   -1.2509805 
H     2.1027595   -2.9148784    0.4603787 
C     3.7919369    2.9125087   -2.3460541 
C     4.2484442    2.3424487   -1.1488481 
C     3.5429530    1.2884009   -0.5515677 
C     2.3537598    0.7847382   -1.1303361 
C     1.9201154    1.3643946   -2.3452648 
C     2.6254109    2.4120004   -2.9461936 
H     4.3450188    3.7337263   -2.8129506 
H     5.1683393    2.7091911   -0.6816651 
H     3.9447140    0.8231277    0.3535598 
H     1.0058122    0.9927656   -2.8157087 
H     2.2605837    2.8434506   -3.8840764 
C     3.2311068   -3.5900033    5.1126321 
C     2.9077473   -4.4742566    4.0721236 
C     2.5989887   -3.9765034    2.8018318 
C     2.5968947   -2.5830944    2.5406801 
C     2.9369333   -1.7062017    3.6029965 
C     3.2478142   -2.2046747    4.8697496 
H     3.4773279   -3.9761404    6.1070186 
H     2.9002793   -5.5542847    4.2517281 
H     2.3476282   -4.6702451    1.9909572 
H     2.9715584   -0.6258772    3.4301810 
H     3.5132539   -1.5125736    5.6758814 
C    -1.0842246   -1.6424132   -3.4474712 
C    -0.9454947   -3.6395234   -0.9612132 
C     0.4433582    2.2381662    2.8027777 
C    -0.3968839    3.6667361    0.0552369 
C    -3.1572979   -1.7361077   -1.3150689 
C    -2.2783242    2.0821651    1.7366761 
C    -1.8460665   -2.6976521   -4.2749237 
C     0.4090879   -1.6841016   -3.8391180 
C    -1.6505537   -0.2323319   -3.7463884 
C     0.4421539   -4.1067562   -1.4507360 
C    -2.0047693   -4.6691316   -1.4147382 
C    -0.9681307   -3.5418732    0.5843570 
C    -0.0898904    3.3842367    3.6886344 
C     1.9591627    2.4465664    2.5807172 
C     0.2048043    0.8837130    3.5196722 
C    -1.2625431    4.8265451    0.5909851 
C    -0.9193286    3.2553617   -1.3422226 
C     1.0669849    4.1372250   -0.0686273 
C    -3.5760363   -0.3535588   -0.8842055 
C    -3.1738049    1.5287384    0.6605071 
C    -2.9159187    0.2153471    0.2214733 
C    -4.5607631    0.4061159   -1.5352848 
C    -4.1756526    2.2642497    0.0074657 
C    -4.8698867    1.6965281   -1.0741238 
H    -3.4143014   -2.4587365   -0.5208126 
H    -3.6772449   -2.0660756   -2.2286834 
H    -2.5770555    3.0904919    2.0586207 
H    -2.3063447    1.4266313    2.6243070 
H    -2.9141073   -2.7664169   -4.0068931 
H    -1.7943995   -2.4144804   -5.3422069 
H    -1.3948387   -3.6984379   -4.1787999 
H     0.8459224   -2.6869706   -3.7225922 
H     1.0140352   -0.9722414   -3.2586061 
H     0.5030186   -1.4044040   -4.9041746 
H    -2.7451182   -0.1885943   -3.6232343 
H    -1.2082913    0.5346075   -3.0851384 
H    -1.4199138    0.0359690   -4.7931970 
H     1.2234871   -3.3435627   -1.3058261 
H     0.7430363   -5.0082325   -0.8864281 
H     0.4227335   -4.3778181   -2.5188400 
H    -1.7282423   -5.6564898   -1.0010558 
H    -2.0555110   -4.7710050   -2.5091714 
H    -3.0142287   -4.4343860   -1.0390582 
H    -1.9658848   -3.2519241    0.9612499 
H    -0.7294792   -4.5301596    1.0180246 
H    -0.2356151   -2.8105999    0.9647410 
H    -1.1650212    3.2864442    3.9132946 
H     0.4490649    3.3646434    4.6540432 
H     0.0878611    4.3721837    3.2335106 
H     2.4997803    2.1818360    3.5076340 
H     2.3592275    1.8311880    1.7617492 
H     2.1972604    3.4945464    2.3480190 
H     0.4776061    0.0209993    2.8885941 
H     0.8202488    0.8461863    4.4363622 
H    -0.8460341    0.7569928    3.8316204 
H    -1.0080526    5.1080228    1.6253535 
H    -1.0874975    5.7127021   -0.0462247 
H    -2.3404130    4.6019725    0.5412630 
H    -1.9548479    2.8797158   -1.3087417 
H    -0.2806164    2.4777816   -1.7883786 
H    -0.8973425    4.1390739   -2.0065432 
H     1.7560315    3.3104737   -0.2988658 
H     1.1360809    4.8684433   -0.8940257 
H     1.4109800    4.6407099    0.8489465 
H    -2.2543825   -0.4301015    0.8428445 
H    -5.0931609   -0.0092154   -2.3976602 
H    -4.4090666    3.2835474    0.3320676 
H    -5.6510588    2.2757574   -1.5770187 
