99
Energy =
C     1.5558675   -0.2942888   -0.7680104 
C     2.0397499   -0.4660997    0.6010957 
C     2.0899863   -1.6521233    1.2771570 
H     2.3901672    0.4467782    1.0987676 
Pd   -0.5035779    0.2692937   -0.6478603 
P    -0.5220611    2.0933488    1.0065637 
P    -1.2832904   -1.5187152   -2.0713077 
H     1.4627893   -1.2592405   -1.2889965 
H     1.7042080   -2.5482276    0.7741572 
C     3.8045586    2.5252065   -3.1947852 
C     2.4318749    2.3508868   -3.4261049 
C     1.6965353    1.4531073   -2.6421411 
C     2.3053162    0.7101551   -1.6082064 
C     3.6919439    0.8915236   -1.3954135 
C     4.4311917    1.7881270   -2.1790905 
H     4.3822075    3.2287663   -3.8029793 
H     1.9288285    2.9215770   -4.2138821 
H     0.6186283    1.3373025   -2.8035292 
H     4.1969453    0.3115206   -0.6155926 
H     5.5041999    1.9081294   -1.9959129 
C     3.4079891   -2.3116279    5.3088072 
C     2.5870178   -3.2475493    4.6604404 
C     2.1824815   -3.0282822    3.3393093 
C     2.5733099   -1.8593057    2.6402905 
C     3.4196214   -0.9357731    3.3045056 
C     3.8278621   -1.1591519    4.6219664 
H     3.7332640   -2.4856790    6.3396030 
H     2.2665226   -4.1531304    5.1859219 
H     1.5417248   -3.7617755    2.8360243 
H     3.7842032   -0.0514704    2.7710220 
H     4.4895857   -0.4393667    5.1151222 
C    -0.6760468   -1.7343456   -3.8764325 
C    -1.3145752   -3.1818536   -1.1027973 
C    -0.5403716    1.4875710    2.8414781 
C     0.5161011    3.6836923    0.7718592 
C    -3.1070746   -1.0946995   -2.2919084 
C    -2.2869065    2.7323505    0.7635663 
C    -1.0413781   -0.4293378   -4.6277413 
C    -1.3528028   -2.9293961   -4.5798113 
C     0.8613839   -1.8921701   -3.9141431 
C     0.0097888   -3.9478317   -1.3101156 
C    -2.4998993   -4.0937101   -1.4868819 
C    -1.4466135   -2.7974750    0.3899951 
C    -0.9758654    0.0042734    2.7903674 
C    -1.5282507    2.2800468    3.7252378 
C     0.8612438    1.5699731    3.4778346 
C     0.2100563    4.1913114   -0.6585861 
C     2.0220521    3.3483157    0.8384965 
C     0.1607267    4.7761918    1.8006934 
C    -3.5852770   -0.3493356   -1.0696493 
C    -3.1881499    1.5649527    0.4444451 
C    -2.9247898    0.8554041   -0.7462215 
C    -4.5848486   -0.8155860   -0.2021405 
C    -4.2031052    1.0871252    1.2896326 
C    -4.9041429   -0.0832643    0.9542091 
H    -3.7031870   -1.9944116   -2.5046002 
H    -3.1712861   -0.4376757   -3.1749834 
H    -2.2482918    3.4179637   -0.0992323 
H    -2.6273986    3.3111284    1.6342344 
H    -0.7511484    0.4708783   -4.0582919 
H    -0.4949342   -0.4074847   -5.5872745 
H    -2.1164734   -0.3641903   -4.8641907 
H    -2.4541765   -2.8684322   -4.5411747 
H    -1.0372430   -3.8960369   -4.1551080 
H    -1.0590570   -2.9272360   -5.6456618 
H     1.3728884   -0.9987427   -3.5227203 
H     1.2166466   -2.7756493   -3.3637094 
H     1.1735883   -2.0134620   -4.9674154 
H     0.8929111   -3.3170853   -1.1143991 
H     0.0438471   -4.7949105   -0.6007548 
H     0.0978516   -4.3647705   -2.3262520 
H    -2.4005562   -5.0452541   -0.9330857 
H    -2.5289031   -4.3367610   -2.5602214 
H    -3.4685709   -3.6540742   -1.1973183 
H    -2.3663731   -2.2230373    0.5896552 
H    -1.4821750   -3.7199862    0.9991213 
H    -0.5894721   -2.1926766    0.7283254 
H    -0.2259728   -0.6074517    2.2638837 
H    -1.0668534   -0.3816751    3.8225395 
H    -1.9501708   -0.1254511    2.2897225 
H    -1.4174241    1.9287220    4.7674148 
H    -1.3344254    3.3648207    3.7194471 
H    -2.5771181    2.1060715    3.4382258 
H     1.1822540    2.6096962    3.6529042 
H     0.8326766    1.0601919    4.4577059 
H     1.6223864    1.0561138    2.8740870 
H    -0.8033043    4.6169207   -0.7518639 
H     0.9251790    4.9948185   -0.9103476 
H     0.3343053    3.3889681   -1.4058604 
H     2.3006017    2.6042074    0.0766918 
H     2.3355882    2.9831062    1.8272552 
H     2.5972060    4.2680979    0.6273295 
H     0.4407129    4.4879931    2.8269526 
H     0.7213432    5.6962635    1.5523809 
H    -0.9128346    5.0316775    1.7872139 
H    -2.2557254    1.3164886   -1.5000134 
H    -5.1186758   -1.7449974   -0.4266149 
H    -4.4500909    1.6233066    2.2115577 
H    -5.6990495   -0.4421003    1.6161176 
