99
Energy =
C     2.8341866    1.6454303    0.4036746 
C     2.2983559    0.3925201    0.5142340 
C     1.5226277   -0.2386682   -0.5587320 
H     2.5046586   -0.2168809    1.4024941 
Pd   -0.5547786    0.1167716   -0.2798613 
P    -1.0701738   -0.1706568   -2.6286858 
P    -0.9258746    0.4250443    2.1678485 
H     2.5757895    2.2280463   -0.4927658 
H     1.6506534    0.3449465   -1.4830958 
C     5.2638832    3.7364407    3.2550358 
C     4.5969556    4.4326013    2.2346979 
C     3.8297404    3.7338782    1.2963245 
C     3.6955528    2.3252059    1.3672142 
C     4.3942475    1.6367684    2.3912951 
C     5.1650267    2.3354981    3.3236084 
H     5.8713846    4.2802904    3.9857029 
H     4.6805582    5.5223472    2.1683447 
H     3.3090644    4.2807086    0.5017016 
H     4.3461854    0.5438234    2.4422652 
H     5.7036677    1.7871716    4.1034962 
C     2.6792830   -4.3539804   -1.3378283 
C     1.6066186   -4.0977532   -0.4724568 
C     1.2126193   -2.7778222   -0.2105520 
C     1.8725232   -1.6878214   -0.8077143 
C     2.9658920   -1.9611990   -1.6616927 
C     3.3620483   -3.2787036   -1.9275131 
H     2.9847538   -5.3837640   -1.5492187 
H     1.0660684   -4.9271015   -0.0042119 
H     0.3622222   -2.5852451    0.4480571 
H     3.5185765   -1.1294788   -2.1129044 
H     4.2088446   -3.4654344   -2.5962912 
C    -0.8073910   -1.1691735    3.2133043 
C    -0.2169482    1.9588279    3.0793140 
C    -0.0793891    0.8626984   -3.9081173 
C    -1.4137005   -1.9831604   -3.1767101 
C    -2.7745382    0.8179533    2.2190723 
C    -2.7712334    0.6444957   -2.7373102 
C     0.6488735   -1.6832515    3.2202166 
C    -1.7112537   -2.1938738    2.4838875 
C    -1.2923640   -0.9958514    4.6668583 
C    -1.1309413    2.4921209    4.2069956 
C    -0.0891354    3.0333547    1.9734933 
C     1.1667818    1.6499755    3.6826867 
C     1.2985806    0.2406736   -4.2280196 
C     0.1388243    2.2376884   -3.2277579 
C    -0.8542505    1.0556026   -5.2300791 
C    -1.9142917   -2.7202357   -1.9112549 
C    -0.1198929   -2.6626446   -3.6729286 
C    -2.4908469   -2.0807317   -4.2784258 
C    -3.4970734    0.3446891    0.9848726 
C    -3.5402238    0.3176386   -1.4836253 
C    -2.9816832    0.7444417   -0.2620025 
C    -4.6414675   -0.4692831    1.0010732 
C    -4.6992436   -0.4725205   -1.4453499 
C    -5.2478886   -0.8497447   -0.2072387 
H    -2.8542475    1.9172820    2.2737502 
H    -3.2187004    0.4209969    3.1460767 
H    -3.2955577    0.3387208   -3.6543063 
H    -2.5906030    1.7318337   -2.8008676 
H     1.3174412   -1.0323061    3.8032783 
H     0.6717963   -2.6858684    3.6846509 
H     1.0563523   -1.7788621    2.2027081 
H    -1.4928229   -2.2399146    1.4013085 
H    -2.7816925   -1.9563300    2.5973806 
H    -1.5437922   -3.1979977    2.9137790 
H    -2.3192782   -0.5964361    4.7294810 
H    -1.2967440   -1.9853655    5.1598343 
H    -0.6245898   -0.3410102    5.2498201 
H    -1.3401027    1.7352131    4.9786023 
H    -0.6101472    3.3338518    4.6992427 
H    -2.0906361    2.8849205    3.8338211 
H    -1.0698198    3.2789050    1.5249558 
H     0.5869363    2.7010599    1.1687628 
H     0.3198962    3.9631007    2.4090542 
H     1.8311042    1.1486378    2.9679374 
H     1.6556965    2.5967658    3.9737778 
H     1.0840592    1.0260589    4.5881310 
H     1.2139910   -0.6295285   -4.8942545 
H     1.9133180    0.9982441   -4.7470680 
H     1.8451772   -0.0765628   -3.3277203 
H     0.7165399    2.1462083   -2.2917830 
H     0.7012928    2.8931641   -3.9169921 
H    -0.8099551    2.7493530   -2.9902175 
H    -1.8248224    1.5593290   -5.0890339 
H    -0.2506649    1.6915512   -5.9035671 
H    -1.0253076    0.0981319   -5.7487265 
H    -2.8169089   -2.2571844   -1.4821559 
H    -2.1619407   -3.7625996   -2.1843590 
H    -1.1331159   -2.7479344   -1.1370005 
H     0.7313107   -2.4996780   -2.9947392 
H     0.1575524   -2.3237422   -4.6835037 
H    -0.2976952   -3.7517819   -3.7268443 
H    -2.2379902   -1.4933665   -5.1761136 
H    -2.5726913   -3.1386971   -4.5876066 
H    -3.4865262   -1.7711858   -3.9218925 
H    -2.1792939    1.5142920   -0.2868757 
H    -5.0684981   -0.7968665    1.9548623 
H    -5.1669236   -0.8100102   -2.3759691 
H    -6.1518603   -1.4670651   -0.1850433 
