99
Energy =
C     2.1277041   -1.9504558    0.6532330 
C     2.0394881   -0.7682834   -0.0257437 
C     1.6141770    0.5041377    0.5551848 
H     2.3000759   -0.7424026   -1.0912217 
Pd   -0.4753709    0.7021786    0.1364991 
P    -1.1237984    0.9672674    2.4492183 
P    -0.6444346    0.2588466   -2.2844802 
H     1.8354923   -1.9568637    1.7109969 
H     1.5891095    0.4614835    1.6544715 
C     3.1830611   -5.8077245   -0.9053542 
C     2.4811446   -5.6895336    0.3044580 
C     2.1650579   -4.4240074    0.8098731 
C     2.5272571   -3.2462577    0.1099091 
C     3.2561503   -3.3851105   -1.0980532 
C     3.5755024   -4.6497155   -1.5992838 
H     3.4381703   -6.7968828   -1.2991964 
H     2.1843517   -6.5871883    0.8567202 
H     1.6151236   -4.3353135    1.7541214 
H     3.6002127   -2.4926068   -1.6311158 
H     4.1467293   -4.7371002   -2.5294684 
C     3.8051288    4.0142322   -0.7724553 
C     2.4702374    4.1427285   -0.3599193 
C     1.7529365    3.0150515    0.0579338 
C     2.3424673    1.7324858    0.0726986 
C     3.6926591    1.6237555   -0.3350745 
C     4.4135465    2.7506448   -0.7532713 
H     4.3678997    4.8929328   -1.1037049 
H     1.9818974    5.1228568   -0.3714626 
H     0.7018681    3.1116696    0.3521439 
H     4.1856386    0.6462166   -0.3089585 
H     5.4582770    2.6396206   -1.0622027 
C     0.3078629    1.3069219   -3.5717782 
C    -0.6856926   -1.6182627   -2.7424146 
C    -1.0948438   -0.7302460    3.3552309 
C    -0.4579762    2.3935807    3.5430050 
C    -2.4336143    0.7962185   -2.5878628 
C    -2.9607071    1.3693389    2.3152836 
C     0.0400819    2.7859285   -3.1998712 
C    -0.1613018    1.0364185   -5.0157289 
C     1.8264628    1.0586265   -3.4437749 
C    -1.0300887   -2.3643654   -1.4319917 
C     0.6863022   -2.1067389   -3.2473627 
C    -1.7470310   -1.9513632   -3.8135425 
C    -2.2192608   -0.8886027    4.4015375 
C     0.2725692   -0.9483792    4.0378161 
C    -1.2885192   -1.7987790    2.2531044 
C     1.0859943    2.3497102    3.6101862 
C    -1.0536015    2.3639847    4.9661927 
C    -0.8702430    3.7150830    2.8466727 
C    -3.2606593    0.4465712   -1.3756466 
C    -3.5118368    0.7214878    1.0685636 
C    -2.9253348    1.0840775   -0.1628486 
C    -4.2720613   -0.5277663   -1.3546500 
C    -4.5095299   -0.2653849    1.0672913 
C    -4.8998902   -0.8631466   -0.1433825 
H    -2.8303389    0.3616887   -3.5165678 
H    -2.4068481    1.8912671   -2.7159588 
H    -3.0368009    2.4656693    2.2279487 
H    -3.5008034    1.0716134    3.2261439 
H     0.2640316    2.9800001   -2.1370008 
H     0.7044824    3.4295141   -3.8038939 
H    -0.9962890    3.0984185   -3.4121442 
H    -1.2453694    1.1992888   -5.1431242 
H     0.0820098    0.0136528   -5.3467767 
H     0.3586722    1.7352599   -5.6967719 
H     2.1171927    0.0353438   -3.7216911 
H     2.3547239    1.7496900   -4.1255658 
H     2.1828659    1.2680516   -2.4238046 
H    -1.9776195   -2.0113599   -0.9908829 
H    -1.1337692   -3.4439669   -1.6470599 
H    -0.2288456   -2.2425010   -0.6858916 
H     1.4997769   -1.8512685   -2.5539317 
H     0.9294606   -1.7108521   -4.2467851 
H     0.6618762   -3.2088948   -3.3208688 
H    -1.6202452   -1.3670731   -4.7392982 
H    -1.6463346   -3.0196989   -4.0787497 
H    -2.7738766   -1.8088181   -3.4422002 
H    -3.2173134   -0.9115531    3.9338195 
H    -2.0824888   -1.8582038    4.9144930 
H    -2.2078080   -0.1021810    5.1718867 
H     0.3360917   -1.9985305    4.3767940 
H     1.1166233   -0.7707188    3.3511205 
H     0.4041792   -0.3067844    4.9238797 
H    -0.4777538   -1.7628257    1.5075918 
H    -1.2878106   -2.8022244    2.7183102 
H    -2.2453066   -1.6726612    1.7196119 
H     1.5426362    2.4813199    2.6167081 
H     1.4313152    3.1874152    4.2431187 
H     1.4703215    1.4215352    4.0579383 
H    -0.6997417    1.4974639    5.5478977 
H    -2.1572651    2.3576036    4.9575327 
H    -0.7326794    3.2744676    5.5050578 
H    -1.9391762    3.9486996    2.9830384 
H    -0.2954412    4.5464590    3.2919499 
H    -0.6500685    3.6993543    1.7645868 
H    -2.2583893    1.9688100   -0.1969046 
H    -4.5732609   -1.0291535   -2.2799495 
H    -4.9863950   -0.5670163    2.0057955 
H    -5.6930618   -1.6178756   -0.1399256 
