99
Energy =
C     2.2260451   -0.9145178    1.7172158 
C     2.0397950   -0.6588527    0.3882759 
C     1.6489422    0.6332862   -0.1733940 
H     2.1880388   -1.4681089   -0.3376903 
Pd   -0.4775188    0.5888089   -0.4056022 
P    -0.9060981   -1.5327127   -1.5869799 
P    -0.8669369    2.5732298    0.9162366 
H     2.0441301   -0.0978911    2.4274475 
H     1.7473208    1.4437666    0.5644208 
C     3.2177640   -4.6640034    3.5556642 
C     3.5133086   -4.4595739    2.1965184 
C     3.2127345   -3.2394621    1.5854188 
C     2.6007429   -2.1919913    2.3188821 
C     2.3359388   -2.4064547    3.6943625 
C     2.6323743   -3.6303792    4.3035327 
H     3.4582637   -5.6198625    4.0322493 
H     3.9945001   -5.2538597    1.6162202 
H     3.4815672   -3.0827923    0.5354426 
H     1.8773853   -1.6018434    4.2810257 
H     2.4118988   -3.7786239    5.3657648 
C     3.6055029    1.7268959   -3.8965440 
C     2.3125502    2.1997699   -3.6265000 
C     1.6696841    1.8439572   -2.4344120 
C     2.2933446    1.0069342   -1.4843808 
C     3.6014480    0.5492508   -1.7679029 
C     4.2480535    0.9044752   -2.9594924 
H     4.1096129    1.9993274   -4.8294009 
H     1.7981224    2.8410572   -4.3499601 
H     0.6487594    2.1901070   -2.2370948 
H     4.1211924   -0.0803013   -1.0378376 
H     5.2614964    0.5380772   -3.1542472 
C    -0.6949131    2.1782444    2.7917865 
C    -0.1156008    4.2739729    0.4516802 
C    -0.1263155   -1.9122551   -3.2926304 
C    -0.9537409   -3.0827621   -0.4341962 
C    -2.7165290    2.8590229    0.6894244 
C    -2.7298947   -1.2930855   -2.0322918 
C     0.7470145    2.4584451    3.2666956 
C    -0.9912525    0.6660000    2.9316296 
C    -1.6862296    2.9614794    3.6796493 
C    -0.5471795    5.3878790    1.4283827 
C    -0.6334485    4.6137545   -0.9687850 
C     1.4266966    4.1862357    0.3897643 
C    -0.7364877   -3.1642639   -3.9547646 
C     1.4039920   -2.0668697   -3.1553214 
C    -0.3966702   -0.6677162   -4.1733226 
C    -2.1171296   -4.0424634   -0.7664963 
C    -1.1365476   -2.5353793    1.0009322 
C     0.3665705   -3.8755786   -0.4993075 
C    -3.3892300    1.5305505    0.4433508 
C    -3.4082154   -0.5316433   -0.9205197 
C    -2.9530431    0.7795991   -0.6690212 
C    -4.3592656    0.9692303    1.2878397 
C    -4.3894082   -1.0670627   -0.0701286 
C    -4.8699482   -0.3107489    1.0119112 
H    -2.8286454    3.5015563   -0.1993759 
H    -3.1432797    3.4015529    1.5459753 
H    -3.2178019   -2.2532025   -2.2535904 
H    -2.7432129   -0.6908968   -2.9561654 
H     0.9662303    3.5369337    3.3222812 
H     0.8731096    2.0422683    4.2829213 
H     1.5015190    1.9828657    2.6184526 
H    -0.2744034    0.0579988    2.3560823 
H    -2.0064080    0.4104134    2.5851631 
H    -0.9125323    0.3792100    3.9968737 
H    -1.6016422    4.0530741    3.5640253 
H    -2.7313613    2.6653787    3.4914271 
H    -1.4699419    2.7216335    4.7368603 
H    -1.6444726    5.4559485    1.5268037 
H    -0.1099820    5.2547079    2.4312170 
H    -0.1892130    6.3593366    1.0405091 
H    -0.0336058    5.4468842   -1.3760279 
H    -1.6864382    4.9408948   -0.9676650 
H    -0.5321683    3.7597677   -1.6614697 
H     1.7649996    3.4766262   -0.3815611 
H     1.8217616    5.1813734    0.1154635 
H     1.8804772    3.9082035    1.3523700 
H    -1.8326615   -3.0916427   -4.0603830 
H    -0.3143548   -3.2722972   -4.9709833 
H    -0.4970897   -4.0862259   -3.4001621 
H     1.8368240   -2.1947544   -4.1641175 
H     1.8599206   -1.1677101   -2.7138519 
H     1.6932586   -2.9442367   -2.5589003 
H    -0.0783992    0.2598478   -3.6673813 
H     0.1902055   -0.7576322   -5.1049542 
H    -1.4564920   -0.5735878   -4.4641943 
H    -2.1043419   -4.3858914   -1.8136058 
H    -2.0219012   -4.9361147   -0.1229432 
H    -3.1007809   -3.5962054   -0.5519324 
H    -2.0396173   -1.9086148    1.0936163 
H    -0.2626841   -1.9401361    1.3102460 
H    -1.2355553   -3.3847054    1.7019655 
H     1.2437834   -3.2377878   -0.3216395 
H     0.3580425   -4.6386386    0.2996524 
H     0.4930809   -4.4001912   -1.4603024 
H    -2.3134757    1.2720979   -1.4287559 
H    -4.7212414    1.5276625    2.1575282 
H    -4.7812997   -2.0738261   -0.2462810 
H    -5.6413960   -0.7342365    1.6633093 
