99
Energy =
C     2.7342888    0.1075093   -1.8602655 
C     2.2653984    0.2205649   -0.5805005 
C     1.5732848   -0.8226302    0.1708124 
H     2.4282233    1.1645544   -0.0521989 
Pd   -0.4474413   -0.1380491   -0.0592843 
P    -0.6100250    1.8514020    1.4229875 
P    -1.2214467   -1.9747070   -1.4649345 
H     2.5972102   -0.8491431   -2.3769175 
H     1.5292083   -1.7805914   -0.3670494 
C     4.6314280    3.1038219   -4.2776361 
C     4.3934501    3.3628378   -2.9157899 
C     3.7860169    2.3982402   -2.1093227 
C     3.3964120    1.1437759   -2.6456850 
C     3.6580908    0.8962349   -4.0168142 
C     4.2633597    1.8649269   -4.8242886 
H     5.1094031    3.8626151   -4.9055911 
H     4.6927771    4.3230755   -2.4826237 
H     3.6247238    2.6125593   -1.0481091 
H     3.3726498   -0.0709994   -4.4469299 
H     4.4526387    1.6534437   -5.8817410 
C     2.7683961   -1.5386029    4.2792593 
C     1.6113796   -2.1447796    3.7642939 
C     1.2114692   -1.8906974    2.4484064 
C     1.9499770   -1.0265802    1.6069540 
C     3.1249841   -0.4422737    2.1366486 
C     3.5245503   -0.6905025    3.4573321 
H     3.0822662   -1.7330308    5.3097697 
H     1.0144880   -2.8138613    4.3927829 
H     0.3004776   -2.3571765    2.0640407 
H     3.7569394    0.1802781    1.4961809 
H     4.4408944   -0.2289069    3.8396742 
C    -0.4877592   -2.1039952   -3.2278590 
C    -1.3938294   -3.6697499   -0.5975806 
C    -0.9836079    1.4180850    3.2570896 
C     0.5687704    3.3516648    1.2210057 
C    -3.0092525   -1.5026989   -1.8419089 
C    -2.2372189    2.6115635    0.8318469 
C    -1.4267014   -2.7807984   -4.2516044 
C     0.8483380   -2.8769785   -3.1946202 
C    -0.2510809   -0.6346941   -3.6572569 
C    -2.2304911   -3.3756022    0.6721812 
C    -0.0083502   -4.2100262   -0.1804083 
C    -2.1050381   -4.7344535   -1.4572161 
C    -1.6753298    0.0339414    3.2286439 
C    -1.9184361    2.4299164    3.9529244 
C     0.3341291    1.3102047    4.0517164 
C     1.9626049    3.0519464    1.8191268 
C     0.0224925    4.6451459    1.8619771 
C     0.6939041    3.5529543   -0.3117474 
C    -3.5657112   -0.5553766   -0.8095814 
C    -3.2088962    1.5144212    0.4870344 
C    -2.8202478    0.6015281   -0.5129541 
C    -4.7644173   -0.7721961   -0.1117606 
C    -4.4210637    1.2892899    1.1587865 
C    -5.1953743    0.1587547    0.8480377 
H    -3.6232217   -2.4109706   -1.9511077 
H    -2.9981551   -1.0027995   -2.8262034 
H    -1.9943452    3.1977431   -0.0713183 
H    -2.6355662    3.3087365    1.5834716 
H    -2.3784215   -2.2393435   -4.3786051 
H    -0.9228457   -2.7825852   -5.2358219 
H    -1.6523518   -3.8262765   -3.9933198 
H     1.5083455   -2.5516926   -2.3745553 
H     1.3868953   -2.7135450   -4.1457630 
H     0.6842726   -3.9620506   -3.0914139 
H    -1.1999123   -0.0731778   -3.7332520 
H     0.4061800   -0.0972267   -2.9537191 
H     0.2205901   -0.6163301   -4.6566553 
H    -3.2775786   -3.1281493    0.4323026 
H    -2.2372871   -4.2725721    1.3174826 
H    -1.8117471   -2.5333718    1.2522288 
H    -0.1536829   -5.1066588    0.4491633 
H     0.5638112   -3.4821726    0.4132854 
H     0.6028121   -4.5101615   -1.0445065 
H    -1.4828895   -5.0574923   -2.3075865 
H    -2.2943135   -5.6254810   -0.8309811 
H    -3.0806204   -4.3944047   -1.8443955 
H    -1.0070254   -0.7314811    2.8055966 
H    -1.9233770   -0.2629354    4.2645176 
H    -2.6097619    0.0436481    2.6441215 
H    -2.0117925    2.1413270    5.0159922 
H    -1.5310196    3.4609274    3.9234787 
H    -2.9348527    2.4221823    3.5268597 
H     0.7495870    2.3032555    4.2863514 
H     0.1292633    0.8016775    5.0109491 
H     1.0981354    0.7224458    3.5206097 
H     2.3038087    2.0267082    1.6140087 
H     2.6993308    3.7540046    1.3879242 
H     1.9767933    3.1884152    2.9102108 
H    -0.0522601    4.5604352    2.9584005 
H    -0.9621961    4.9381126    1.4615281 
H     0.7238224    5.4715515    1.6428150 
H    -0.2465488    3.9131485   -0.7627842 
H     1.4632899    4.3193806   -0.5144206 
H     0.9875046    2.6267777   -0.8341945 
H    -1.9594457    0.8686714   -1.1672942 
H    -5.3677277   -1.6620991   -0.3207278 
H    -4.7582749    1.9865725    1.9327249 
H    -6.1401266   -0.0088979    1.3752691 
