99
Energy =
C     2.2248371   -0.9760088    1.6831829 
C     2.0303847   -0.6936841    0.3608668 
C     1.6455015    0.6113588   -0.1748465 
H     2.1713449   -1.4893069   -0.3814408 
Pd   -0.4818966    0.5985887   -0.3923879 
P    -0.9439716   -1.5043913   -1.5893247 
P    -0.8320574    2.5758901    0.9491749 
H     2.0496596   -0.1735914    2.4112571 
H     1.7596472    1.4075872    0.5762197 
C     3.2524609   -4.7572870    3.4356685 
C     3.5268454   -4.5261596    2.0763798 
C     3.2122884   -3.2961457    1.4928734 
C     2.6075262   -2.2648508    2.2549734 
C     2.3632263   -2.5066425    3.6296951 
C     2.6735784   -3.7405575    4.2112428 
H     3.5040335   -5.7208042    3.8906212 
H     4.0026022   -5.3072816    1.4741520 
H     3.4647666   -3.1189197    0.4420724 
H     1.9108493   -1.7150263    4.2384241 
H     2.4693374   -3.9097080    5.2735966 
C     3.5909457    1.7446769   -3.8926811 
C     2.2970549    2.2110083   -3.6162022 
C     1.6578082    1.8431116   -2.4257608 
C     2.2858399    1.0001025   -1.4841591 
C     3.5946575    0.5486668   -1.7742274 
C     4.2379291    0.9163674   -2.9638556 
H     4.0924381    2.0266559   -4.8241122 
H     1.7789961    2.8565534   -4.3332643 
H     0.6362927    2.1844802   -2.2226020 
H     4.1174230   -0.0861108   -1.0508160 
H     5.2522277    0.5550393   -3.1635915 
C    -0.6562660    2.1589420    2.8198243 
C    -0.0561993    4.2693914    0.4986353 
C    -0.1748285   -1.8834189   -3.3000024 
C    -1.0096240   -3.0619125   -0.4474282 
C    -2.6781412    2.8921629    0.7340779 
C    -2.7657080   -1.2342776   -2.0258981 
C    -1.6314346    2.9476285    3.7205632 
C     0.7921745    2.4113155    3.2904470 
C    -0.9742415    0.6499728    2.9457253 
C    -0.4639972    5.3789048    1.4904029 
C    -0.5764138    4.6340178   -0.9147134 
C     1.4840505    4.1572250    0.4262601 
C    -0.7988073   -3.1274415   -3.9643942 
C     1.3546760   -2.0515834   -3.1691220 
C    -0.4377541   -0.6338500   -4.1757398 
C     0.2996530   -3.8720653   -0.5209541 
C    -2.1873911   -4.0026105   -0.7832172 
C    -1.1802845   -2.5222237    0.9920420 
C    -3.3718814    1.5763273    0.4783688 
C    -3.4280376   -0.4726277   -0.9045194 
C    -2.9529259    0.8298788   -0.6438139 
C    -4.3452088    1.0210734    1.3230313 
C    -4.4124795   -1.0015650   -0.0538194 
C    -4.8762926   -0.2485010    1.0377451 
H    -2.7842271    3.5447633   -0.1481240 
H    -3.0929367    3.4329434    1.5976125 
H    -3.2688266   -2.1849880   -2.2538020 
H    -2.7732735   -0.6236613   -2.9442592 
H    -2.6817463    2.6692817    3.5340408 
H    -1.4140608    2.6933932    4.7741813 
H    -1.5309243    4.0389825    3.6160708 
H     1.0297219    3.4854117    3.3548068 
H     1.5357512    1.9288965    2.6345506 
H     0.9157524    1.9838269    4.3022718 
H    -1.9934732    0.4119541    2.5986945 
H    -0.2667828    0.0377137    2.3630560 
H    -0.8977160    0.3517907    4.0079904 
H    -0.0236196    5.2271783    2.4891738 
H    -0.0922435    6.3487076    1.1114899 
H    -1.5594828    5.4638847    1.5956971 
H     0.0328860    5.4640261   -1.3142946 
H    -1.6247461    4.9756479   -0.9042454 
H    -0.4896236    3.7877210   -1.6184963 
H     1.8057970    3.4520936   -0.3561712 
H     1.8937776    5.1492153    0.1622660 
H     1.9388889    3.8594248    1.3824216 
H    -1.8948419   -3.0447317   -4.0642402 
H    -0.3826776   -3.2345753   -4.9831801 
H    -0.5648000   -4.0539186   -3.4151143 
H     1.7814864   -2.1884303   -4.1793164 
H     1.8207132   -1.1543568   -2.7341565 
H     1.6387566   -2.9286463   -2.5696555 
H    -0.1132142    0.2898822   -3.6667967 
H     0.1480277   -0.7240134   -5.1080347 
H    -1.4971375   -0.5321497   -4.4655814 
H     1.1852846   -3.2481810   -0.3359259 
H     0.2802559   -4.6432470    0.2700119 
H     0.4195740   -4.3886680   -1.4871107 
H    -2.1818247   -4.3396732   -1.8324159 
H    -3.1639976   -3.5434182   -0.5638449 
H    -2.1039262   -4.9015722   -0.1454412 
H    -2.0738707   -1.8832336    1.0923486 
H    -1.2892623   -3.3750308    1.6873571 
H    -0.2966757   -1.9419005    1.3022396 
H    -2.3117266    1.3206545   -1.4031110 
H    -4.6940777    1.5763695    2.2000535 
H    -4.8197507   -2.0009484   -0.2369573 
H    -5.6504210   -0.6667932    1.6893109 
