99
Energy =
C     1.6480884   -0.2453549   -0.6195586 
C     2.1214042   -0.7514919    0.6656169 
C     2.4137337   -2.0563766    0.9523956 
H     2.2676480   -0.0048169    1.4517436 
Pd   -0.4424678   -0.0425757   -0.1741034 
P    -0.5746074    1.9426313    1.3165532 
P    -1.2321161   -1.8066012   -1.6625448 
H     1.6174384   -1.0196732   -1.3996238 
H     2.2979404   -2.7980202    0.1538592 
C     3.4970308    3.3331861   -2.2307935 
C     4.0384133    2.7008576   -1.1021995 
C     3.4266415    1.5578674   -0.5683751 
C     2.2486596    1.0239860   -1.1429288 
C     1.7288390    1.6687143   -2.2892979 
C     2.3404638    2.8057246   -2.8271292 
H     3.9768557    4.2241561   -2.6481786 
H     4.9523189    3.0890887   -0.6406677 
H     3.8946297    1.0493642    0.2798653 
H     0.8209590    1.2760136   -2.7549224 
H     1.9097689    3.2857451   -3.7120018 
C     3.6758247   -3.7484772    4.6895204 
C     3.3643230   -4.5706045    3.5958093 
C     2.9657282   -3.9995406    2.3826436 
C     2.8600462   -2.5936999    2.2334664 
C     3.1890938   -1.7794103    3.3478454 
C     3.5895931   -2.3507952    4.5573526 
H     3.9922263   -4.1917674    5.6392084 
H     3.4360537   -5.6591554    3.6891180 
H     2.7239154   -4.6447995    1.5299253 
H     3.1444919   -0.6892694    3.2603829 
H     3.8452855   -1.7057571    5.4046172 
C    -1.1145192   -1.4302939   -3.5334867 
C    -0.7512878   -3.6066289   -1.2258312 
C     0.4090229    2.0291955    2.9613320 
C    -0.6275290    3.6142610    0.3712295 
C    -3.0923352   -1.8321335   -1.3466272 
C    -2.3376955    1.7794645    1.9793799 
C    -1.8404053   -2.4636025   -4.4190285 
C     0.3620034   -1.3420300   -3.9778228 
C    -1.7797970   -0.0410837   -3.6954000 
C    -1.7587779   -4.6655693   -1.7272858 
C    -0.7209334   -3.6345354    0.3224989 
C     0.6438039   -3.9394381   -1.7973553 
C    -0.1611390    3.0616825    3.9570471 
C     1.8984763    2.3560277    2.7056501 
C     0.2862311    0.6083250    3.5708226 
C    -1.5431228    4.6678923    1.0294962 
C    -1.1770775    3.2820692   -1.0368649 
C     0.7977455    4.1886559    0.2370592 
C    -3.5802022   -0.5192882   -0.7884944 
C    -3.2372927    1.2555588    0.8918148 
C    -2.9136241    0.0018779    0.3368749 
C    -4.6363474    0.2230141   -1.3400523 
C    -4.3087685    1.9729040    0.3366443 
C    -5.0079123    1.4489933   -0.7635899 
H    -3.2717277   -2.6317558   -0.6067130 
H    -3.6262906   -2.1210285   -2.2661249 
H    -2.6874525    2.7367767    2.3928615 
H    -2.2895949    1.0548654    2.8106817 
H    -2.8905289   -2.6244367   -4.1211828 
H    -1.8490430   -2.0925882   -5.4602830 
H    -1.3232113   -3.4367701   -4.4219317 
H     0.8645636   -2.3204202   -3.9608168 
H     0.9438346   -0.6419589   -3.3604888 
H     0.3965389   -0.9707754   -5.0182266 
H    -2.8690800   -0.0797681   -3.5314447 
H    -1.3608087    0.6978946   -2.9886899 
H    -1.6081855    0.3252062   -4.7237442 
H    -1.8424924   -4.6848566   -2.8242118 
H    -1.4054090   -5.6617448   -1.4027493 
H    -2.7667929   -4.5282356   -1.3026328 
H    -1.7201441   -3.4440303    0.7546476 
H    -0.0234972   -2.8880071    0.7375283 
H    -0.4020833   -4.6358568    0.6649413 
H     1.3801830   -3.1403081   -1.6151183 
H     1.0221910   -4.8614655   -1.3198097 
H     0.6014512   -4.1242964   -2.8831401 
H    -1.2179454    2.8738778    4.2097373 
H     0.4159546    3.0009266    4.8984328 
H    -0.0656448    4.0928594    3.5796346 
H     2.4913526    2.0532381    3.5878436 
H     2.3041449    1.8377808    1.8244721 
H     2.0598000    3.4331575    2.5540395 
H     0.5892172   -0.1802270    2.8614363 
H     0.9378851    0.5385336    4.4602240 
H    -0.7413937    0.3863195    3.9060441 
H    -1.2673336    4.8816600    2.0745868 
H    -1.4486731    5.6119644    0.4621544 
H    -2.6059108    4.3777215    0.9969919 
H    -2.1852249    2.8383513   -0.9996536 
H    -0.5087833    2.5858241   -1.5661226 
H    -1.2360515    4.2154411   -1.6268889 
H     1.5279021    3.4301616   -0.0832363 
H     0.7881903    4.9863820   -0.5273091 
H     1.1447449    4.6390113    1.1806890 
H    -2.1891454   -0.6463255    0.8801589 
H    -5.1753325   -0.1561354   -2.2148955 
H    -4.5934178    2.9449392    0.7524909 
H    -5.8434950    2.0136319   -1.1897909 
