99
Energy =
C     1.5667927   -0.3806258   -0.6981227 
C     1.9122642   -0.8451456    0.6428112 
C     2.0284656   -2.1527194    1.0222749 
H     2.1108037   -0.0697536    1.3872178 
Pd   -0.4750626    0.2571332   -0.4788289 
P    -0.3864784    2.3172630    0.9459918 
P    -1.3996592   -1.5054298   -1.8529986 
H     1.4583558   -1.2094714   -1.4122979 
H     1.8700897   -2.9248547    0.2605403 
C     4.0320913    2.7047378   -2.4895466 
C     4.4285948    2.0819512   -1.2974767 
C     3.6173297    1.1040052   -0.7045017 
C     2.3839797    0.7290434   -1.2875785 
C     2.0069324    1.3627685   -2.4949443 
C     2.8162996    2.3366073   -3.0887286 
H     4.6670398    3.4672269   -2.9518785 
H     5.3816451    2.3491606   -0.8291879 
H     3.9634866    0.5984593    0.2021906 
H     1.0539237    1.0942879   -2.9601528 
H     2.4959222    2.8143019   -4.0205106 
C     2.8787007   -3.7563512    4.9118567 
C     2.5922445   -4.6036590    3.8307051 
C     2.3265702   -4.0617246    2.5686751 
C     2.3353342   -2.6604180    2.3557312 
C     2.6334337   -1.8211466    3.4597757 
C     2.9000596   -2.3632854    4.7186226 
H     3.0901055   -4.1769659    5.9002713 
H     2.5791379   -5.6892905    3.9722161 
H     2.1042545   -4.7267196    1.7259226 
H     2.6646039   -0.7354636    3.3273272 
H     3.1323042   -1.6994428    5.5580967 
C    -0.9812522   -1.5380278   -3.7239561 
C    -1.3458305   -3.2462943   -1.0374629 
C     0.3636940    2.1781537    2.7015880 
C     0.0483821    3.9588236    0.0586802 
C    -3.2417644   -1.0945865   -1.8635154 
C    -2.2244347    2.5773005    1.3153500 
C    -1.3156679   -0.1201720   -4.2537393 
C    -1.8149738   -2.5879127   -4.4879709 
C     0.5243496   -1.7951644   -3.9607874 
C    -1.3192458   -2.9905467    0.4898805 
C    -0.0677268   -3.9961768   -1.4697682 
C    -2.5718516   -4.1236274   -1.3724133 
C    -0.1062618    3.2579467    3.6995795 
C     1.9075382    2.2385119    2.6218305 
C    -0.1158841    0.7922484    3.2037461 
C     1.5756334    4.1062321   -0.0919847 
C    -0.5150304    5.2137117    0.7584116 
C    -0.5863228    3.8169115   -1.3462109 
C    -3.5830674   -0.4693588   -0.5351976 
C    -3.0259875    1.3278037    1.0612745 
C    -2.9298162    0.7389558   -0.2144421 
C    -4.4067835   -1.0623631    0.4334500 
C    -3.8359170    0.7052574    2.0249082 
C    -4.5377921   -0.4670115    1.6999711 
H    -3.8450114   -1.9857164   -2.0893369 
H    -3.4014546   -0.3669936   -2.6761745 
H    -2.5755930    3.3775198    0.6415367 
H    -2.3534668    2.9482733    2.3430517 
H    -0.8881177    0.6692191   -3.6084343 
H    -0.8865132   -0.0035376   -5.2647403 
H    -2.4009344    0.0554245   -4.3388101 
H    -2.8994634   -2.4626000   -4.3271680 
H    -1.5342750   -3.6175656   -4.2120036 
H    -1.6267478   -2.4751772   -5.5716465 
H     1.1570518   -1.0365837   -3.4743183 
H     0.8462528   -2.7904785   -3.6234394 
H     0.7210204   -1.7359537   -5.0467273 
H    -2.2313632   -2.4747013    0.8314399 
H    -1.2586058   -3.9607298    1.0169992 
H    -0.4530908   -2.3805135    0.7918422 
H     0.0686826   -4.8756128   -0.8142679 
H     0.8374047   -3.3741931   -1.3847492 
H    -0.1380601   -4.3639854   -2.5066019 
H    -2.7208664   -4.2615001   -2.4551345 
H    -2.4135690   -5.1236510   -0.9285767 
H    -3.5005995   -3.7229388   -0.9350868 
H    -1.1970538    3.2517041    3.8610080 
H     0.3638877    3.0526969    4.6789433 
H     0.1973309    4.2713493    3.3938946 
H     2.3401063    1.7634645    3.5210748 
H     2.3150816    1.7341931    1.7322974 
H     2.2643554    3.2799117    2.5968184 
H     0.1776269   -0.0258606    2.5250186 
H     0.3228030    0.5906372    4.1979923 
H    -1.2142337    0.7588964    3.3098486 
H     2.0466057    3.1853629   -0.4631235 
H     1.7879080    4.9094581   -0.8201877 
H     2.0541593    4.3883990    0.8584850 
H    -0.0585685    5.3756455    1.7474720 
H    -1.6107828    5.1883076    0.8806252 
H    -0.2769011    6.0968736    0.1373438 
H    -1.6868876    3.7218903   -1.3052706 
H    -0.3581859    4.7208337   -1.9397119 
H    -0.1782538    2.9420927   -1.8810666 
H    -2.4077028    1.2908299   -1.0206308 
H    -4.9364345   -1.9942934    0.2098602 
H    -3.9286169    1.1396045    3.0259926 
H    -5.1824758   -0.9350955    2.4509683 
