99
Energy =
C     1.5702190   -0.4505662   -0.6916787 
C     2.1325374   -0.3292295    0.6566470 
C     2.3064761   -1.3819976    1.5110664 
H     2.4880260    0.6647932    0.9468682 
Pd   -0.4646825    0.1928667   -0.6332563 
P    -0.5835693    1.9850022    1.1411620 
P    -1.2604408   -1.4977526   -2.1299552 
H     1.5091602   -1.5072739   -0.9848245 
H     1.9183960   -2.3631653    1.2057150 
C     3.7406931    1.7508961   -3.7438435 
C     2.7487367    2.4050085   -2.9981068 
C     2.0351257    1.7073352   -2.0149404 
C     2.2867609    0.3453253   -1.7558277 
C     3.2966867   -0.2960808   -2.5073443 
C     4.0142225    0.3980403   -3.4910517 
H     4.2977997    2.2912129   -4.5159579 
H     2.5233934    3.4602295   -3.1859705 
H     1.2390609    2.2069388   -1.4567819 
H     3.5338099   -1.3468170   -2.3053300 
H     4.7932470   -0.1204784   -4.0598107 
C     4.0743057   -1.3064544    5.4210598 
C     3.2796812   -2.3896572    5.0144717 
C     2.7302130   -2.4115229    3.7280145 
C     2.9476318   -1.3435240    2.8229970 
C     3.7712905   -0.2677445    3.2438009 
C     4.3230461   -0.2501230    4.5270566 
H     4.5109191   -1.2905729    6.4249418 
H     3.0921954   -3.2211250    5.7018009 
H     2.1085938   -3.2583664    3.4149139 
H     3.9959432    0.5490679    2.5496663 
H     4.9622983    0.5849515    4.8323008 
C    -0.5589325   -1.5876237   -3.9080621 
C    -1.4192838   -3.2202679   -1.3072308 
C    -0.8217055    1.1476778    2.8647928 
C     0.4677672    3.5941542    1.2810844 
C    -3.0500015   -0.9930861   -2.4459227 
C    -2.2888299    2.7151026    0.7791632 
C     0.7559455   -2.3933839   -3.9218465 
C    -0.2732374   -0.1191841   -4.3044461 
C    -1.5487863   -2.1986611   -4.9259683 
C    -0.0535871   -3.6386672   -0.7236302 
C    -1.9423491   -4.3078656   -2.2662789 
C    -2.4069180   -3.0583455   -0.1283152 
C    -1.2668089   -0.3048039    2.5684706 
C    -1.8964312    1.8330093    3.7351258 
C     0.5086324    1.1103383    3.6414419 
C     1.9710565    3.2521422    1.3824762 
C     0.0496446    4.4685699    2.4833345 
C     0.2359786    4.4081772   -0.0185505 
C    -3.6037800   -0.2131279   -1.2776398 
C    -3.2306380    1.6297402    0.3243045 
C    -2.8765352    0.9085729   -0.8336529 
C    -4.7679783   -0.5683850   -0.5783818 
C    -4.3981268    1.2551492    1.0083778 
C    -5.1679099    0.1762471    0.5429083 
H    -3.6567418   -1.8817450   -2.6854686 
H    -3.0356371   -0.3546943   -3.3472693 
H    -2.1426686    3.4383270   -0.0404930 
H    -2.6711319    3.2711096    1.6487176 
H     0.5855589   -3.4678015   -3.7427205 
H     1.2267401   -2.2929783   -4.9163675 
H     1.4761332   -2.0156077   -3.1809216 
H     0.4818208    0.3430493   -3.6497725 
H    -1.1865285    0.5028815   -4.2752659 
H     0.1081615   -0.0946299   -5.3412756 
H    -1.8084436   -3.2429476   -4.6990765 
H    -2.4805749   -1.6159207   -5.0126457 
H    -1.0673982   -2.1858375   -5.9210778 
H     0.7438088   -3.6939120   -1.4816129 
H     0.2568874   -2.9386223    0.0685120 
H    -0.1516231   -4.6409553   -0.2683359 
H    -2.1229146   -5.2314881   -1.6862184 
H    -1.2153545   -4.5527632   -3.0571055 
H    -2.8987682   -4.0271140   -2.7400902 
H    -3.4472586   -2.9391543   -0.4681766 
H    -2.3649406   -3.9688589    0.4968730 
H    -2.1468334   -2.1943367    0.5074704 
H    -0.4936966   -0.8498087    1.9978505 
H    -1.4260902   -0.8363488    3.5250380 
H    -2.2133459   -0.3354512    2.0018965 
H    -1.9192746    1.3268553    4.7176754 
H    -1.6856458    2.8981999    3.9190788 
H    -2.9040611    1.7399206    3.3009230 
H     0.8144923    2.1061792    3.9997905 
H     0.3837406    0.4643372    4.5291971 
H     1.3248110    0.6809200    3.0461170 
H     2.3314329    2.7267336    0.4834289 
H     2.5425530    4.1945222    1.4649277 
H     2.2081884    2.6434437    2.2681332 
H     0.2818788    3.9938430    3.4494467 
H    -1.0239213    4.7221258    2.4631854 
H     0.6117108    5.4198376    2.4401242 
H    -0.7346398    4.9308923   -0.0146820 
H     1.0216258    5.1805109   -0.1004594 
H     0.2876700    3.7839311   -0.9276833 
H    -2.0641495    1.3085822   -1.4793146 
H    -5.3648943   -1.4263174   -0.9053471 
H    -4.7149541    1.8062913    1.8997438 
H    -6.0846854   -0.0998956    1.0738937 
