99
Energy =
C     2.5081523   -0.8624672    1.6628955 
C     2.1067885   -0.5975870    0.3851086 
C     1.6504099    0.6967919   -0.1256134 
H     2.1663684   -1.3970635   -0.3613531 
Pd   -0.4661690    0.6283349   -0.3796849 
P    -0.8119779   -1.4477974   -1.6644973 
P    -1.0110964    2.4836924    1.0659724 
H     2.4560510   -0.0531739    2.4012503 
H     1.7550214    1.4964882    0.6246148 
C     3.9104487   -4.6013939    3.2436302 
C     3.8750931   -4.4077260    1.8515543 
C     3.4344777   -3.1933242    1.3194098 
C     3.0080508   -2.1400144    2.1684281 
C     3.0747586   -2.3453872    3.5688726 
C     3.5131486   -3.5630636    4.1002503 
H     4.2604242   -5.5527998    3.6571113 
H     4.2076526   -5.2062597    1.1800139 
H     3.4477571   -3.0470139    0.2340098 
H     2.7656192   -1.5369670    4.2416606 
H     3.5500522   -3.7025235    5.1856618 
C     3.5713752    1.8372794   -3.8631539 
C     2.2272480    2.1750207   -3.6506175 
C     1.5882951    1.8067893   -2.4585490 
C     2.2710131    1.0956142   -1.4493529 
C     3.6279253    0.7664209   -1.6799769 
C     4.2692363    1.1331274   -2.8707354 
H     4.0716325    2.1206993   -4.7948303 
H     1.6679145    2.7190190   -4.4190975 
H     0.5287252    2.0469186   -2.3110716 
H     4.1855386    0.2244847   -0.9086014 
H     5.3209316    0.8677028   -3.0218429 
C    -1.1730814    1.9117052    2.8875962 
C    -0.1166151    4.1752438    0.9399541 
C     0.1499668   -2.0174174   -3.2263413 
C    -1.1144688   -2.9096242   -0.4385347 
C    -2.7740325    2.9151465    0.5451362 
C    -2.5291207   -1.1134595   -2.3834026 
C     0.1356998    1.1870991    3.2611895 
C    -2.3227019    0.8814781    2.9530600 
C    -1.4730747    3.0487926    3.8829888 
C     0.1913494    4.3849612   -0.5593675 
C     1.2172526    4.1505723    1.7184786 
C    -0.9916656    5.3497454    1.4368595 
C    -0.4068297   -3.3319558   -3.8116377 
C     1.6522393   -2.1726517   -2.9043439 
C     0.0061494   -0.8899855   -4.2777483 
C    -2.2592220   -3.8443301   -0.8848954 
C    -1.4933489   -2.2613094    0.9133919 
C     0.1699495   -3.7374603   -0.2328802 
C    -3.4883358    1.6808592    0.0391551 
C    -3.3628785   -0.3277643   -1.4006483 
C    -2.8785344    0.9330142   -0.9897734 
C    -4.6853879    1.1936979    0.5877817 
C    -4.5525605   -0.7997851   -0.8237035 
C    -5.2198832   -0.0251433    0.1400853 
H    -2.6830168    3.6624847   -0.2638594 
H    -3.3113545    3.3966179    1.3789288 
H    -3.0166475   -2.0491453   -2.6966730 
H    -2.3604846   -0.5074048   -3.2894004 
H     1.0225276    1.8363482    3.1833251 
H     0.0703452    0.8327467    4.3062645 
H     0.2852736    0.3096847    2.6113461 
H    -2.2422558    0.1201482    2.1604246 
H    -3.3112184    1.3601016    2.8781923 
H    -2.2773979    0.3647705    3.9290737 
H    -0.6399538    3.7631389    3.9760631 
H    -2.3892574    3.6043380    3.6179089 
H    -1.6379865    2.6040195    4.8817100 
H    -0.7089704    4.2916676   -1.1939081 
H     0.5925060    5.4041498   -0.7058184 
H     0.9456948    3.6700849   -0.9198560 
H     1.7632321    5.0893367    1.5144355 
H     1.8681486    3.3183324    1.4007058 
H     1.0690139    4.0860653    2.8083531 
H    -1.2779782    5.2585471    2.4943507 
H    -0.4085135    6.2828815    1.3307292 
H    -1.9070855    5.4720012    0.8348153 
H    -1.4845033   -3.2671826   -4.0397833 
H     0.1172831   -3.5442589   -4.7618185 
H    -0.2383849   -4.1926756   -3.1448129 
H     2.1777385   -2.4883411   -3.8239740 
H     2.0941642   -1.2165335   -2.5843842 
H     1.8485126   -2.9353424   -2.1355256 
H     0.2481766    0.0978364   -3.8523111 
H     0.7215544   -1.0798192   -5.0979197 
H    -1.0005797   -0.8557937   -4.7265754 
H    -2.0921151   -4.2846572   -1.8801164 
H    -2.3297970   -4.6772769   -0.1614936 
H    -3.2348289   -3.3328730   -0.8828786 
H    -2.4059529   -1.6467484    0.8314035 
H    -0.6715836   -1.6290500    1.2951215 
H    -1.6874955   -3.0574981    1.6559751 
H     1.0142299   -3.1134391    0.0952606 
H    -0.0137774   -4.4763731    0.5681721 
H     0.4635938   -4.2971139   -1.1353652 
H    -2.0567468    1.3989319   -1.5717818 
H    -5.1991755    1.7580355    1.3731343 
H    -4.9674566   -1.7658222   -1.1292422 
H    -6.1592088   -0.3901713    0.5679378 
