99
Energy =
C     1.6467841   -0.3538724   -0.5793181 
C     2.0915234   -0.7537446    0.7526867 
C     2.3346582   -2.0352656    1.1637354 
H     2.2563942    0.0578781    1.4676221 
Pd   -0.4376580   -0.0447379   -0.1750784 
P    -0.5175460    2.0735715    1.1225039 
P    -1.2753621   -1.9135089   -1.5004670 
H     1.5974666   -1.1955630   -1.2851667 
H     2.1995254   -2.8442578    0.4368717 
C     3.6276015    3.0000748   -2.4893671 
C     4.1368343    2.4578022   -1.3005205 
C     3.4827941    1.3887906   -0.6720198 
C     2.2937149    0.8416962   -1.2101387 
C     1.8067159    1.3938383   -2.4176490 
C     2.4605381    2.4564828   -3.0497194 
H     4.1403520    3.8331846   -2.9805921 
H     5.0580560    2.8581648   -0.8646320 
H     3.9252986    0.9463860    0.2255159 
H     0.8912546    0.9886804   -2.8570852 
H     2.0548348    2.8659681   -3.9806217 
C     3.4898270   -3.4098861    5.0620200 
C     3.1514995   -4.3200356    4.0489440 
C     2.7896445   -3.8527035    2.7811179 
C     2.7476966   -2.4647489    2.4956431 
C     3.1035678   -1.5611605    3.5300129 
C     3.4677532   -2.0292594    4.7941569 
H     3.7777226   -3.7721638    6.0541903 
H     3.1737217   -5.3964421    4.2479810 
H     2.5267606   -4.5665215    1.9915996 
H     3.1091705   -0.4837865    3.3366120 
H     3.7449690   -1.3168161    5.5783161 
C    -1.1311280   -1.7168116   -3.3967020 
C    -0.8585383   -3.6802908   -0.8945905 
C     0.4558195    2.2819511    2.7627628 
C    -0.5101941    3.6514493    0.0259431 
C    -3.1378369   -1.8501121   -1.2036776 
C    -2.2898480    2.0287199    1.7800220 
C    -1.7490737   -0.3281604   -3.6936453 
C    -1.8836944   -2.8041611   -4.1904342 
C     0.3507459   -1.7175686   -3.8316020 
C    -0.8413147   -3.5661981    0.6499788 
C     0.5288767   -4.1099297   -1.4181058 
C    -1.8972371   -4.7473034   -1.3073523 
C     0.2830515    0.9285186    3.5001965 
C    -0.0884944    3.4199139    3.6523362 
C     1.9568212    2.5372207    2.4940635 
C    -1.3953825    4.7900630    0.5751092 
C    -1.0613549    3.2075457   -1.3504168 
C     0.9337118    4.1658431   -0.1475305 
C    -3.5871391   -0.4764797   -0.7748887 
C    -3.1991398    1.4350642    0.7373254 
C    -2.9126261    0.1256840    0.3041523 
C    -4.6150567    0.2440398   -1.4033542 
C    -4.2433321    2.1309271    0.1075519 
C    -4.9513376    1.5291664   -0.9463844 
H    -3.3493372   -2.5714004   -0.3949141 
H    -3.6733729   -2.2060596   -2.0982997 
H    -2.6104780    3.0309660    2.0998840 
H    -2.2710454    1.3831292    2.6752152 
H    -1.3115163    0.4594311   -3.0538102 
H    -1.5572901   -0.0648732   -4.7495240 
H    -2.8403495   -0.3164298   -3.5386665 
H    -2.9407422   -2.9030481   -3.8901183 
H    -1.3986784   -3.7893488   -4.0977483 
H    -1.8723150   -2.5312910   -5.2615824 
H     0.9500715   -0.9804526   -3.2774016 
H     0.8216196   -2.7050593   -3.7163773 
H     0.4048111   -1.4483124   -4.9020931 
H    -1.8367375   -3.3030399    1.0518741 
H    -0.5600901   -4.5418006    1.0868137 
H    -0.1217705   -2.8084361    1.0022481 
H     0.8731240   -4.9954251   -0.8533389 
H     1.2898430   -3.3215365   -1.3029894 
H     0.4882205   -4.3931903   -2.4824415 
H    -1.9747937   -4.8632673   -2.3988072 
H    -1.5787663   -5.7208151   -0.8910387 
H    -2.9028265   -4.5395588   -0.9062580 
H     0.5665513    0.0683171    2.8705819 
H     0.9250892    0.9218139    4.3992623 
H    -0.7537332    0.7704979    3.8433310 
H     0.4796577    3.4292355    4.6010073 
H     0.0424124    4.4078943    3.1816470 
H    -1.1525036    3.2893049    3.9107758 
H     2.1533570    3.5893914    2.2421033 
H     2.5321782    2.3023719    3.4079983 
H     2.3535078    1.9247876    1.6712511 
H    -1.1187257    5.0917579    1.5980617 
H    -1.2675555    5.6736083   -0.0768208 
H    -2.4667159    4.5316572    0.5607141 
H    -2.0824325    2.7987245   -1.2811437 
H    -0.4113141    2.4463750   -1.8083290 
H    -1.0889289    4.0840656   -2.0240296 
H     1.6415129    3.3581728   -0.3883728 
H     0.9550357    4.8881373   -0.9832632 
H     1.2886804    4.6918355    0.7531499 
H    -2.2123847   -0.4915341    0.9117912 
H    -5.1595274   -0.1976704   -2.2448300 
H    -4.4991043    3.1460973    0.4281973 
H    -5.7650483    2.0778416   -1.4316203 
