99
Energy =
C     1.6486159   -0.0246460    0.6881957 
C     2.2526191    0.2867621   -0.6038133 
C     2.7866960    1.4922412   -0.9672543 
H     2.2836631   -0.5317440   -1.3286630 
Pd   -0.4233924    0.1372497    0.1528307 
P    -0.8765865   -1.8876330   -1.2155058 
P    -0.9191976    2.1193888    1.4864436 
H     1.7381860    0.7975786    1.4128520 
H     2.7804859    2.3025059   -0.2293715 
C     2.7156196   -3.7601268    2.6178974 
C     3.4113062   -3.3242789    1.4810404 
C     3.0507241   -2.1283721    0.8445828 
C     1.9756261   -1.3421277    1.3225437 
C     1.2981928   -1.7926478    2.4791974 
C     1.6594244   -2.9826246    3.1189054 
H     2.9993559   -4.6930888    3.1152381 
H     4.2510782   -3.9101430    1.0930302 
H     3.6391744   -1.7801250   -0.0095454 
H     0.4648685   -1.2034441    2.8711548 
H     1.1107525   -3.3077995    4.0089318 
C     4.4226030    2.6426313   -4.7647520 
C     4.2148677    3.5926164   -3.7530450 
C     3.6943004    3.1955866   -2.5169039 
C     3.3585030    1.8418068   -2.2633891 
C     3.5869690    0.8947327   -3.2948606 
C     4.1102881    1.2919865   -4.5269936 
H     4.8338879    2.9490542   -5.7319541 
H     4.4628744    4.6445251   -3.9282781 
H     3.5335428    3.9402865   -1.7285203 
H     3.3667807   -0.1637565   -3.1235471 
H     4.2855661    0.5455974   -5.3090038 
C    -0.9407123    1.8644736    3.3810572 
C    -0.0923906    3.7626014    0.9589590 
C     0.1337370   -2.2776617   -2.7996902 
C    -1.2855643   -3.4467968   -0.1699273 
C    -2.7289234    2.4679067    1.0807223 
C    -2.5489590   -1.4421551   -1.9771558 
C    -1.4865263    3.0770694    4.1621608 
C     0.4755802    1.5331333    3.9002734 
C    -1.8641955    0.6404648    3.5997358 
C    -0.0030580    3.6730164   -0.5847309 
C     1.3194262    3.8703202    1.5743614 
C    -0.8986904    5.0235885    1.3428798 
C     0.3093699   -0.9072304   -3.5044033 
C    -0.5863202   -3.2527465   -3.7552314 
C     1.5216821   -2.8619508   -2.4488325 
C    -2.3598326   -4.3535337   -0.8065223 
C    -1.8150502   -2.9171033    1.1843137 
C    -0.0025669   -4.2681143    0.0735849 
C    -3.4356402    1.2338687    0.5804226 
C    -3.3739687   -0.6845670   -0.9711067 
C    -2.8393788    0.5217417   -0.4776506 
C    -4.6329193    0.7414312    1.1234063 
C    -4.5828049   -1.1483690   -0.4281191 
C    -5.2098121   -0.4290656    0.6031275 
H    -2.7278273    3.2342700    0.2859504 
H    -3.2311365    2.9133787    1.9541991 
H    -3.0583464   -2.3432008   -2.3492456 
H    -2.3307983   -0.7989729   -2.8472235 
H    -2.4751875    3.4107265    3.8037280 
H    -1.6031753    2.7904604    5.2233765 
H    -0.7931200    3.9328737    4.1278334 
H     1.1558462    2.3958162    3.8433025 
H     0.9342016    0.6930012    3.3586109 
H     0.4027216    1.2393217    4.9632092 
H    -2.9199909    0.8719847    3.3834542 
H    -1.5712257   -0.2126081    2.9613147 
H    -1.8002207    0.3224102    4.6560732 
H    -1.0045460    3.6440274   -1.0511986 
H     0.5132937    4.5689771   -0.9749886 
H     0.5525726    2.7803197   -0.9171858 
H     1.8813337    4.6701879    1.0585319 
H     1.8982428    2.9376672    1.4780047 
H     1.2744725    4.1357657    2.6431128 
H    -1.0158345    5.1365379    2.4311145 
H    -0.3519936    5.9107843    0.9733100 
H    -1.8987318    5.0462363    0.8797317 
H     0.7322785   -0.1407094   -2.8332838 
H     0.9947249   -1.0269931   -4.3625199 
H    -0.6432606   -0.5196361   -3.9041615 
H     0.0272019   -3.3708225   -4.6676496 
H    -0.7053829   -4.2533877   -3.3085029 
H    -1.5766849   -2.8867902   -4.0732053 
H     1.4666544   -3.9365988   -2.2223050 
H     2.1946032   -2.7407126   -3.3172334 
H     1.9863934   -2.3688804   -1.5825475 
H    -2.0895903   -4.6907281   -1.8200398 
H    -2.4706507   -5.2547471   -0.1760334 
H    -3.3474799   -3.8661626   -0.8481042 
H    -2.7154987   -2.2924724    1.0674683 
H    -1.0455749   -2.3259231    1.7037585 
H    -2.0770297   -3.7780748    1.8268878 
H     0.8466050   -3.6390629    0.3813626 
H    -0.1930478   -4.9918473    0.8865562 
H     0.2872347   -4.8437470   -0.8199731 
H    -1.9856616    0.9839834   -1.0229313 
H    -5.1217592    1.2733978    1.9466089 
H    -5.0315740   -2.0758321   -0.7986302 
H    -6.1529276   -0.7965319    1.0203847 
