99
Energy =
C     2.9751112    1.3210512    0.5776468 
C     2.3012425    0.1326643    0.6292656 
C     1.5163105   -0.3871770   -0.4955486 
H     2.3954606   -0.5143812    1.5098584 
Pd   -0.5213004    0.1871344   -0.3052259 
P    -0.9551475   -0.0081092   -2.6791826 
P    -0.9763017    0.4911578    2.1296958 
H     2.8265201    1.9484723   -0.3135131 
H     1.7513904    0.1988429   -1.3971794 
C     5.4738323    3.0651758    3.5976865 
C     5.2196749    1.6824592    3.6215405 
C     4.4246230    1.0947930    2.6346112 
C     3.8569659    1.8795864    1.5988950 
C     4.1472576    3.2660786    1.5744741 
C     4.9382936    3.8540466    2.5674375 
H     6.0997243    3.5217143    4.3713414 
H     5.6557392    1.0601484    4.4099880 
H     4.2548836    0.0130148    2.6523612 
H     3.7296013    3.8853870    0.7721788 
H     5.1429775    4.9292433    2.5363476 
C     2.2659717   -4.5863593   -1.3253396 
C     1.1876151   -4.2343504   -0.5017460 
C     0.9234620   -2.8853826   -0.2249798 
C     1.7216022   -1.8601483   -0.7656838 
C     2.8185121   -2.2318262   -1.5769343 
C     3.0851716   -3.5785005   -1.8575345 
H     2.4704844   -5.6384604   -1.5483422 
H     0.5415016   -5.0104057   -0.0780900 
H     0.0686391   -2.6167344    0.4002158 
H     3.4765068   -1.4551271   -1.9826280 
H     3.9377920   -3.8410805   -2.4925808 
C    -1.0848365   -1.1269584    3.1387067 
C    -0.1500626    1.9182519    3.1129565 
C     0.2019806    0.9239629   -3.8949529 
C    -1.4723717   -1.7636965   -3.2742462 
C    -2.7705716    1.0858249    2.1043820 
C    -2.5482750    0.9932048   -2.8492513 
C     0.3045387   -1.7984150    3.2014362 
C    -2.0571459   -2.0315132    2.3414803 
C    -1.6200811   -0.9304451    4.5714160 
C     0.1494304    2.9943757    2.0424434 
C     1.1596211    1.4459363    3.7732354 
C    -1.0557505    2.5264296    4.2090622 
C     0.5345824    2.2600944   -3.1842192 
C    -0.4829576    1.2126633   -5.2486157 
C     1.5186688    0.1595347   -4.1591742 
C    -2.1050577   -2.4586619   -2.0444548 
C    -0.2409665   -2.5742232   -3.7305407 
C    -2.5060818   -1.7260732   -4.4204851 
C    -3.4812078    0.7172962    0.8282860 
C    -3.4083565    0.7348438   -1.6395279 
C    -2.8649075    1.0759654   -0.3847273 
C    -4.7095506    0.0385090    0.7745230 
C    -4.6493342    0.0806826   -1.6714575 
C    -5.2961178   -0.2511745   -0.4682248 
H    -2.7309540    2.1860533    2.1800177 
H    -3.2996368    0.7246334    3.0009109 
H    -3.0585705    0.7619748   -3.7954872 
H    -2.2455059    2.0543974   -2.8818386 
H     1.0097814   -1.2378196    3.8330494 
H     0.1946578   -2.8073941    3.6390667 
H     0.7499237   -1.9162122    2.2023227 
H    -1.7895003   -2.0817938    1.2702252 
H    -3.0995070   -1.6787820    2.4074087 
H    -2.0233743   -3.0557079    2.7550102 
H    -2.5990439   -0.4215781    4.5951091 
H    -1.7568316   -1.9230958    5.0384452 
H    -0.9148004   -0.3647894    5.2015197 
H    -0.7749437    3.3552235    1.5539115 
H     0.6343369    3.8645625    2.5209976 
H     0.8251700    2.6063535    1.2628663 
H     1.7994104    0.8874995    3.0786963 
H     0.9637647    0.8178698    4.6581023 
H     1.7348702    2.3266834    4.1102459 
H    -1.3863427    1.7817369    4.9494428 
H    -0.4709078    3.2943228    4.7479814 
H    -1.9458535    3.0317594    3.8003916 
H     1.0480344    2.0963986   -2.2210743 
H     1.2017715    2.8549372   -3.8338759 
H    -0.3630416    2.8721216   -2.9890471 
H    -1.4003157    1.8155483   -5.1454889 
H     0.2166568    1.7874892   -5.8830056 
H    -0.7292782    0.2842573   -5.7895230 
H     1.3731650   -0.6911646   -4.8398336 
H     2.2350867    0.8506981   -4.6391557 
H     1.9844530   -0.2218798   -3.2387558 
H    -2.9663366   -1.9023946   -1.6414278 
H    -2.4581151   -3.4613603   -2.3482265 
H    -1.3644751   -2.5879871   -1.2413554 
H     0.5938870   -2.5153779   -3.0158743 
H     0.1139901   -2.2530663   -4.7226165 
H    -0.5340908   -3.6363395   -3.8126003 
H    -2.1531398   -1.1565156   -5.2956319 
H    -2.6893448   -2.7639809   -4.7533141 
H    -3.4765246   -1.3149508   -4.0984331 
H    -1.9812444    1.7510499   -0.3563484 
H    -5.2163046   -0.2531746    1.7005246 
H    -5.1062824   -0.1875877   -2.6295431 
H    -6.2640002   -0.7619599   -0.5008745 
