99
Energy =
C     2.5224261   -1.7778682    0.4371310 
C     2.2347466   -0.6035826   -0.2005581 
C     1.7351111    0.5913303    0.4633435 
H     2.3872934   -0.5347462   -1.2831307 
Pd   -0.4091953    0.6844886    0.1921025 
P    -0.9471263    0.5920517    2.5692733 
P    -0.8498154    0.4451700   -2.2390256 
H     2.3432557   -1.8262478    1.5186461 
H     1.7629820    0.5017125    1.5566355 
C     3.9437921   -5.4634045   -1.2391614 
C     3.4940573   -5.4040370    0.0889997 
C     3.0463535   -4.1911083    0.6223808 
C     3.0273150   -3.0092057   -0.1604014 
C     3.4998223   -3.0868138   -1.4958003 
C     3.9482089   -4.2981804   -2.0264862 
H     4.3000517   -6.4101349   -1.6579318 
H     3.4969775   -6.3054860    0.7104041 
H     2.6960571   -4.1483774    1.6603271 
H     3.5331020   -2.1852929   -2.1156253 
H     4.3148086   -4.3370591   -3.0576092 
C     3.1957239    4.4689928   -0.8248441 
C     3.7557687    3.2945249   -1.3470995 
C     3.2851451    2.0393564   -0.9373620 
C     2.2297911    1.9249620   -0.0021660 
C     1.6942145    3.1242564    0.5281973 
C     2.1651608    4.3769168    0.1253346 
H     3.5652112    5.4479008   -1.1466162 
H     4.5763561    3.3525294   -2.0698660 
H     3.7687945    1.1384469   -1.3254930 
H     0.8708251    3.0610412    1.2440808 
H     1.7229985    5.2850151    0.5481492 
C    -0.0310094    1.6493627   -3.4840307 
C    -0.8981578   -1.3582937   -2.9021015 
C    -0.9915973   -1.2629004    3.0921855 
C    -0.1902425    1.6976149    3.9516343 
C    -2.6636382    0.9725681   -2.3620539 
C    -2.7536537    1.1243898    2.6131123 
C     0.0724962    2.9957031   -2.7300587 
C    -0.8392852    1.8724152   -4.7817190 
C     1.3834639    1.1437895   -3.8317890 
C    -1.9641241   -2.1112536   -2.0733263 
C     0.4579691   -2.0435583   -2.6495242 
C    -1.2588541   -1.4531886   -4.3975855 
C     0.3641178   -1.6747326    3.7029253 
C    -1.2173432   -2.0702450    1.7909467 
C    -2.1291635   -1.5938190    4.0815558 
C    -0.7296293    1.3342881    5.3520499 
C    -0.5919425    3.1616080    3.6359061 
C     1.3535931    1.6047784    3.9448419 
C    -3.4259547    0.6173739   -1.1082825 
C    -3.4601854    0.6699349    1.3606128 
C    -2.9238140    1.0801114    0.1225520 
C    -4.5667246   -0.2025254   -1.0897191 
C    -4.5815942   -0.1735304    1.3548509 
C    -5.1441930   -0.5799744    0.1326977 
H    -3.1210683    0.5350564   -3.2646104 
H    -2.6527954    2.0689075   -2.4984309 
H    -2.7456968    2.2265987    2.6490358 
H    -3.2463480    0.7680857    3.5308753 
H     0.6757393    2.9079986   -1.8146912 
H     0.5535947    3.7423645   -3.3874246 
H    -0.9206175    3.3935512   -2.4528818 
H    -1.8463904    2.2767498   -4.5868539 
H    -0.9394853    0.9619305   -5.3893780 
H    -0.3045899    2.6216964   -5.3943861 
H     1.3553986    0.2460491   -4.4714519 
H     1.9254678    1.9320236   -4.3850313 
H     1.9667040    0.9200226   -2.9244858 
H    -2.9890881   -1.8400831   -2.3671964 
H    -1.8453452   -3.1962653   -2.2472445 
H    -1.8511252   -1.9247580   -0.9919465 
H     0.6707455   -2.1129826   -1.5724440 
H     1.2960149   -1.5277781   -3.1433737 
H     0.4206033   -3.0721346   -3.0515452 
H    -0.4546968   -1.0676182   -5.0449376 
H    -1.4059498   -2.5183780   -4.6550820 
H    -2.1956642   -0.9247684   -4.6450995 
H     0.5253289   -1.2430596    4.7035645 
H     0.3869948   -2.7748485    3.8086551 
H     1.2098642   -1.3868415    3.0577262 
H    -1.2601045   -3.1475392    2.0374741 
H    -2.1680669   -1.7966411    1.3027372 
H    -0.3958418   -1.9141779    1.0683139 
H    -3.1222007   -1.4601604    3.6222728 
H    -2.0454319   -2.6588076    4.3661766 
H    -2.0837652   -1.0000726    5.0076130 
H    -0.3878816    0.3434395    5.6905342 
H    -0.3528698    2.0776307    6.0787996 
H    -1.8318742    1.3626268    5.3959493 
H    -1.6355569    3.3776234    3.9176596 
H    -0.4633407    3.4158474    2.5689246 
H     0.0520641    3.8422363    4.2207224 
H     1.7862250    1.9999349    3.0122301 
H     1.7454836    2.2234809    4.7726312 
H     1.7234067    0.5800799    4.0982911 
H    -2.1489379    1.8785535    0.1133551 
H    -5.0002662   -0.5591553   -2.0300667 
H    -5.0257282   -0.5051616    2.2992749 
H    -6.0336545   -1.2183240    0.1342354 
