101
Energy =
C    -1.2202428    0.0966184   -2.5841455 
C    -0.7757176    1.4286139   -2.3793106 
C     0.6286917    1.6870519   -2.3307455 
H    -1.4940089    2.2002470   -2.0745894 
Pd    0.0664372    0.2302209   -0.7545476 
P     1.9252120    0.2271944    0.6266811 
P    -0.8623074   -1.2724851    0.7390225 
H    -0.5183665   -0.5730630   -3.1060617 
H     1.2793265    1.0248667   -2.9217310 
C    -5.2173401   -1.4745941   -2.4059813 
C    -4.9151521   -0.2714384   -1.7445811 
C    -3.6248921    0.2647736   -1.7983853 
C    -2.6074356   -0.3929267   -2.5268321 
C    -2.9233868   -1.6034471   -3.1875029 
C    -4.2161534   -2.1399050   -3.1289239 
H    -6.2288299   -1.8905444   -2.3562316 
H    -5.6888974    0.2498870   -1.1726016 
H    -3.4005610    1.1828296   -1.2454497 
H    -2.1432126   -2.1229875   -3.7556998 
H    -4.4414268   -3.0769427   -3.6482487 
C     2.5169277    5.3582605   -1.0922252 
C     3.2327319    4.3873537   -1.8090183 
C     2.5986549    3.2092508   -2.2248963 
C     1.2381922    2.9688867   -1.9253419 
C     0.5284372    3.9599569   -1.2086014 
C     1.1592846    5.1414320   -0.8028032 
H     3.0091817    6.2802746   -0.7672799 
H     4.2873897    4.5524998   -2.0535305 
H     3.1555391    2.4588147   -2.7948998 
H    -0.5239707    3.7983931   -0.9546826 
H     0.5911091    5.8974417   -0.2504952 
C     2.8082774    1.7300597    1.3438418 
C     3.4800914   -0.4837513   -0.2112770 
C    -2.0240197   -2.6793515    0.2481667 
C    -1.9631390   -0.5970548    2.1205853 
C     1.5561010   -0.8927671    2.0789366 
C     0.5703282   -2.0097680    1.6919065 
C     4.2853210    1.2786796    1.3813616 
C     4.5643226    0.5954837    0.0334191 
C    -3.1992801   -2.6137978    1.2650120 
C    -2.7610624   -1.8552714    2.5345541 
C     2.1584204    2.2528390    2.6049140 
C     3.2056352   -0.8966945   -1.6500200 
C    -1.2440684   -3.9714431    0.1201092 
C    -2.7596000    0.6273805    1.6855190 
C     1.1132891    3.1933966    2.4971377 
C     3.8233641   -0.2744716   -2.7499219 
C    -1.0862107   -4.8748271    1.1893180 
C    -4.1648457    0.6540424    1.6342941 
C     2.5190240    1.7933808    3.8881407 
C     2.2608663   -1.9152192   -1.9088385 
C    -0.5828708   -4.2450644   -1.0954404 
C    -2.0590080    1.8092449    1.3601156 
C     0.4331837    3.6484531    3.6342457 
C     3.4769881   -0.6220480   -4.0667668 
C    -0.2844130   -6.0171229    1.0468863 
C    -4.8498502    1.8205260    1.2559342 
C     1.8436989    2.2543371    5.0282052 
C     1.9187356   -2.2684277   -3.2201019 
C     0.2246723   -5.3815042   -1.2370939 
C    -2.7389816    2.9733408    0.9834214 
C     0.7942989    3.1770421    4.9054287 
C     2.5144140   -1.6108634   -4.3083103 
C     0.3790505   -6.2712358   -0.1627270 
C    -4.1423687    2.9822962    0.9210130 
H     2.6974608    2.4881592    0.5450190 
H     3.7280404   -1.3877531    0.3766657 
H    -2.3884509   -2.3948746   -0.7525990 
H    -1.2826730   -0.2834229    2.9336554 
H     2.4911756   -1.3087585    2.4938702 
H     1.1210053   -0.2383039    2.8569008 
H     1.0419672   -2.7632459    1.0360313 
H     0.2084460   -2.5477147    2.5853434 
H     4.4587526    0.5704429    2.2124095 
H     4.9489842    2.1451021    1.5467620 
H     4.5054137    1.3639377   -0.7567087 
H     5.5734265    0.1512588   -0.0113297 
H    -3.5646433   -3.6262915    1.5053265 
H    -4.0322787   -2.0791586    0.7793850 
H    -3.6202528   -1.5899940    3.1753832 
H    -2.1065272   -2.5003101    3.1482864 
H     0.8435705    3.5739211    1.5060309 
H     4.5891674    0.4898830   -2.5915606 
H    -1.5924611   -4.6926487    2.1435936 
H    -4.7467854   -0.2343839    1.8948678 
H     3.3367169    1.0747650    4.0067502 
H     1.7899622   -2.4499471   -1.0758995 
H    -0.7139220   -3.5541730   -1.9362838 
H    -0.9650906    1.8216847    1.4273634 
H    -0.3781904    4.3761865    3.5272988 
H     3.9694951   -0.1181507   -4.9048780 
H    -0.1783931   -6.7122481    1.8863664 
H    -5.9445546    1.8174981    1.2276656 
H     2.1425053    1.8919290    6.0174257 
H     1.1886639   -3.0656777   -3.3932659 
H     0.7277576   -5.5788142   -2.1898040 
H    -2.1734202    3.8838558    0.7577631 
H     0.2679914    3.5342725    5.7964476 
H     2.2450110   -1.8814384   -5.3342388 
H     1.0047015   -7.1629843   -0.2709845 
H    -4.6781503    3.8910443    0.6286123 
