101
Energy =
C    -1.2969265    0.1392290   -2.5446529 
C    -0.7548189    1.4351001   -2.3928343 
C     0.6757107    1.5868236   -2.3834941 
H    -1.4047439    2.2725538   -2.1086357 
Pd    0.0770656    0.2764084   -0.7285715 
P     2.0612534   -0.0353559    0.3991526 
P    -0.9562328   -0.8643264    1.0054594 
H    -0.6164546   -0.6121719   -2.9778290 
H     1.2577355    0.9184180   -3.0340125 
C    -5.3535543   -1.2603763   -2.4000546 
C    -4.3155808   -2.0998017   -2.8321335 
C    -3.0035852   -1.6147763   -2.8815587 
C    -2.7006131   -0.2860496   -2.4939032 
C    -3.7569625    0.5464031   -2.0603919 
C    -5.0674364    0.0622910   -2.0201451 
H    -6.3828590   -1.6319154   -2.3648263 
H    -4.5287519   -3.1293999   -3.1370054 
H    -2.1957616   -2.2681853   -3.2314676 
H    -3.5548532    1.5710403   -1.7365656 
H    -5.8726132    0.7223352   -1.6840883 
C     2.7979363    5.0862219   -1.0249260 
C     1.4896388    4.8429995   -0.5736826 
C     0.7823219    3.7254097   -1.0305936 
C     1.3646621    2.8216093   -1.9520646 
C     2.6742637    3.0896114   -2.4089749 
C     3.3834120    4.2072708   -1.9489648 
H     3.3525157    5.9579501   -0.6632920 
H     1.0218582    5.5254640    0.1438111 
H    -0.2282774    3.5369844   -0.6525969 
H     3.1321183    2.4090731   -3.1333744 
H     4.3968496    4.3965790   -2.3186457 
C     2.8562235    1.3784622    1.3497458 
C     3.6445022   -0.5192467   -0.5190434 
C    -2.0000675   -2.3816979    0.5863230 
C    -2.2376053   -0.0911790    2.1519629 
C     1.7596317   -1.4491707    1.5846676 
C     0.3726579   -1.3624148    2.2367849 
C     4.3629792    1.0553264    1.2825747 
C     4.6408536    0.6118205   -0.1665218 
C    -3.2195549   -2.3369461    1.5527541 
C    -2.9453056   -1.3503723    2.7083884 
C     2.1541762    1.5738035    2.6727434 
C     3.3770273   -0.8229747   -1.9829798 
C    -1.1085969   -3.6046001    0.5485578 
C    -3.0936788    0.9783647    1.4874499 
C     0.9530712    2.3147293    2.6885031 
C     2.3850589   -1.7726290   -2.3130681 
C    -0.9355241   -4.4617400    1.6526729 
C    -2.4569177    2.1295268    0.9732962 
C     2.5784093    0.9547446    3.8647777 
C     4.0527326   -0.1744053   -3.0309894 
C    -0.3444248   -3.8455384   -0.6140365 
C    -4.4977181    0.9211245    1.4392882 
C     0.1760282    2.4064860    3.8502684 
C     2.0509260   -2.0369667   -3.6464849 
C    -0.0183709   -5.5231758    1.5981567 
C    -3.1954693    3.1914900    0.4385293 
C     1.8033688    1.0492811    5.0315606 
C     3.7191815   -0.4369235   -4.3711694 
C     0.5754208   -4.9011855   -0.6688442 
C    -5.2428062    1.9858384    0.9060680 
C     0.5949000    1.7624913    5.0261787 
C     2.7105645   -1.3579551   -4.6846177 
C     0.7448910   -5.7427230    0.4420687 
C    -4.5985477    3.1238757    0.4036656 
H     2.6586750    2.2555387    0.7036454 
H     3.9753382   -1.4501414   -0.0183076 
H    -2.3458607   -2.1780223   -0.4413126 
H    -1.6543267    0.4056795    2.9486007 
H     1.8363953   -2.3658624    0.9700659 
H     2.5575597   -1.4879043    2.3478118 
H     0.1131920   -2.3209024    2.7166503 
H     0.3642455   -0.5767044    3.0132567 
H     4.6227743    0.2395811    1.9827973 
H     4.9650128    1.9358777    1.5663822 
H     4.4761325    1.4745093   -0.8368998 
H     5.6822894    0.2741766   -0.3047198 
H    -3.4633195   -3.3421969    1.9350219 
H    -4.0935941   -1.9967223    0.9725540 
H    -3.8688389   -1.0865907    3.2532841 
H    -2.2741060   -1.8217664    3.4493259 
H     0.6378571    2.8249558    1.7715945 
H     1.8639333   -2.3114435   -1.5132460 
H    -1.5224207   -4.3074311    2.5650664 
H    -1.3632403    2.1898780    1.0104990 
H     3.5178893    0.3928878    3.8906358 
H     4.8478582    0.5442696   -2.8115379 
H    -0.4816581   -3.1924255   -1.4841338 
H    -5.0304196    0.0500451    1.8319101 
H    -0.7544594    2.9844114    3.8379761 
H     1.2770712   -2.7778168   -3.8772810 
H     0.0978335   -6.1826038    2.4646302 
H    -2.6792066    4.0799221    0.0576961 
H     2.1484260    0.5640011    5.9504911 
H     4.2549113    0.0827940   -5.1723597 
H     1.1553752   -5.0723850   -1.5822605 
H    -6.3359096    1.9225726    0.8894972 
H    -0.0074947    1.8317599    5.9377088 
H     2.4504389   -1.5571614   -5.7290861 
H     1.4585009   -6.5719196    0.4022016 
H    -5.1821880    3.9542020   -0.0065275 
