101
Energy =
C    -1.2383403    0.0816106   -2.6665520 
C    -0.7678905    1.4025828   -2.4540705 
C     0.6417147    1.6268510   -2.3581775 
H    -1.4744669    2.1962937   -2.1790487 
Pd   -0.0095884    0.1972539   -0.7925931 
P     1.7819408    0.1884178    0.6690587 
P    -1.0495936   -1.1926185    0.7305897 
H    -0.5279325   -0.6103491   -3.1461497 
H     1.2974644    0.9620426   -2.9401607 
C    -5.2665263   -1.4178066   -2.6529362 
C    -4.2339523   -2.1369802   -3.2729534 
C    -2.9311188   -1.6227986   -3.2783788 
C    -2.6346797   -0.3822886   -2.6650432 
C    -3.6838600    0.3288637   -2.0394864 
C    -4.9844400   -0.1846036   -2.0399507 
H    -6.2869579   -1.8144233   -2.6468122 
H    -4.4429531   -3.0975720   -3.7546930 
H    -2.1267212   -2.1838998   -3.7680568 
H    -3.4796177    1.2743224   -1.5266658 
H    -5.7836543    0.3794096   -1.5493935 
C     2.5354188    5.2432690   -0.9779695 
C     3.2275191    4.3407104   -1.7991681 
C     2.5946924    3.1793938   -2.2634691 
C     1.2557381    2.8934910   -1.9136746 
C     0.5681208    3.8173346   -1.0907493 
C     1.1992378    4.9782160   -0.6314995 
H     3.0304478    6.1480607   -0.6114670 
H     4.2656033    4.5436271   -2.0828324 
H     3.1368744    2.4785804   -2.9060539 
H    -0.4625052    3.6073439   -0.7882549 
H     0.6510903    5.6779412    0.0083700 
C     2.7612488    1.7331243    1.1443015 
C     3.2532464   -0.8257089    0.0532327 
C    -2.1722196   -2.6186366    0.2177181 
C    -2.2447117   -0.4544261    1.9961355 
C     1.2541760   -0.7068610    2.2219259 
C     0.3015772   -1.8584297    1.8430649 
C     4.2243466    1.4176138    0.7214243 
C     4.4692135   -0.1063162    0.6853145 
C    -3.4133749   -2.5230438    1.1508266 
C    -3.0702237   -1.6970952    2.4081128 
C     2.4853053    2.1124333    2.5845180 
C     3.1860602   -0.9621522   -1.4600780 
C    -1.3726964   -3.9042751    0.1774083 
C    -3.0023901    0.7576855    1.4705632 
C     3.2511528    1.6215217    3.6601404 
C     3.9705951   -0.2033823   -2.3452984 
C    -1.2723654   -4.7734601    1.2810813 
C    -4.4014830    0.7862129    1.3320741 
C     1.3716918    2.9314095    2.8679609 
C     2.2432178   -1.8636346   -2.0038897 
C    -0.6265922   -4.2001721   -0.9833608 
C    -2.2773959    1.9286182    1.1557051 
C     2.9098515    1.9386155    4.9833072 
C     3.7996258   -0.3202864   -3.7358884 
C    -0.4457092   -5.9056870    1.2255694 
C    -5.0583173    1.9443665    0.8850703 
C     1.0249762    3.2418762    4.1898026 
C     2.0724740   -1.9828175   -3.3882760 
C     0.2066786   -5.3257290   -1.0369656 
C    -2.9297527    3.0836975    0.7078493 
C     1.7928023    2.7429873    5.2534678 
C     2.8444291   -1.2001131   -4.2630573 
C     0.3017775   -6.1820228    0.0710253 
C    -4.3272657    3.0949478    0.5639574 
H     2.3567302    2.5267051    0.4948317 
H     3.1354517   -1.8340765    0.4887132 
H    -2.4706013   -2.3658686   -0.8132843 
H    -1.6184530   -0.1141532    2.8412718 
H     2.1378333   -1.0753849    2.7719774 
H     0.7571434    0.0351096    2.8733287 
H     0.8265803   -2.6503635    1.2785450 
H    -0.1282107   -2.3335720    2.7419710 
H     4.9363485    1.9213809    1.3969950 
H     4.3783164    1.8487594   -0.2818048 
H     5.3995359   -0.3569968    0.1456163 
H     4.5926781   -0.4859550    1.7154032 
H    -3.7820887   -3.5275800    1.4178454 
H    -4.2189898   -2.0257464    0.5851204 
H    -3.9742032   -1.4066943    2.9715679 
H    -2.4605437   -2.3073691    3.0988627 
H     4.1255940    0.9893862    3.4709928 
H     4.7254349    0.4883285   -1.9602071 
H    -1.8428468   -4.5712835    2.1942462 
H    -5.0002914   -0.0953227    1.5775909 
H     0.7839245    3.3384618    2.0366737 
H     1.6434486   -2.4894305   -1.3317585 
H    -0.7103711   -3.5374760   -1.8530948 
H    -1.1873157    1.9360891    1.2802600 
H     3.5215215    1.5554888    5.8068844 
H     4.4213731    0.2798692   -4.4085754 
H    -0.3859969   -6.5753531    2.0899519 
H    -6.1493479    1.9433928    0.7912737 
H     0.1598471    3.8832251    4.3890751 
H     1.3423915   -2.6963359   -3.7864446 
H     0.7757875   -5.5398718   -1.9479832 
H    -2.3514355    3.9875062    0.4876636 
H     1.5281302    2.9880059    6.2871054 
H     2.7144855   -1.2887100   -5.3463368 
H     0.9472940   -7.0652812    0.0312322 
H    -4.8401671    3.9979804    0.2179890 
