101
Energy =
C    -1.4691442    0.1228119   -2.4839203 
C    -0.8529619    1.3947600   -2.3720935 
C     0.5756082    1.4873257   -2.4243232 
H    -1.4456025    2.2606269   -2.0497045 
Pd   -0.0327103    0.1566222   -0.7656322 
P     1.9185066   -0.0237626    0.4661776 
P    -1.0862180   -1.0676898    0.8991180 
H    -0.8758918   -0.6583572   -2.9870195 
H     1.1081694    0.7721900   -3.0684764 
C    -5.6078615   -0.9691098   -2.0745561 
C    -4.6613582   -1.8921654   -2.5460104 
C    -3.3217594   -1.5092037   -2.6805932 
C    -2.8973350   -0.2022810   -2.3374626 
C    -3.8608484    0.7140638   -1.8594606 
C    -5.2011004    0.3328297   -1.7381089 
H    -6.6587014   -1.2599421   -1.9757280 
H    -4.9691082   -2.9066398   -2.8196791 
H    -2.5874874   -2.2253907   -3.0682731 
H    -3.5652411    1.7255254   -1.5642424 
H    -5.9327760    1.0576937   -1.3686003 
C     2.8681045    4.9568584   -1.2855521 
C     1.5940245    4.7463463   -0.7309815 
C     0.8361584    3.6333692   -1.1107703 
C     1.3306998    2.7042823   -2.0566770 
C     2.6065302    2.9363171   -2.6151489 
C     3.3674756    4.0494061   -2.2319525 
H     3.4633784    5.8248535   -0.9846815 
H     1.1949102    5.4495381    0.0077963 
H    -0.1432009    3.4632525   -0.6518956 
H     2.9969138    2.2344476   -3.3581458 
H     4.3536074    4.2122127   -2.6797173 
C     2.6840718    1.4425978    1.3751358 
C     3.5278159   -0.5188094   -0.4052177 
C    -1.7664573   -2.7828910    0.5188147 
C    -2.6651955   -0.4853236    1.7778975 
C     1.5914868   -1.3620683    1.7296984 
C     0.1618082   -1.2440836    2.2822937 
C     4.1962198    1.1340604    1.3398840 
C     4.5039109    0.6373943   -0.0816321 
C    -2.9234563   -2.9576355    1.5221728 
C    -3.6867899   -1.6253826    1.5324367 
C     2.0037826    1.7102994    2.6970402 
C     3.3042999   -0.8671232   -1.8671716 
C    -0.6887047   -3.8368985    0.4291661 
C    -3.1424457    0.9209426    1.4467586 
C     0.8753089    2.5556458    2.7225364 
C     2.3158308   -1.8169269   -2.2017276 
C    -0.2339489   -4.5532478    1.5552153 
C    -2.2283993    1.9531376    1.1601253 
C     2.3990626    1.0843831    3.8970648 
C     4.0289610   -0.2649847   -2.9105838 
C    -0.0726590   -4.0845285   -0.8152315 
C    -4.5145464    1.2398655    1.4707265 
C     0.1327793    2.7370050    3.8965088 
C     2.0309957   -2.1273609   -3.5366912 
C     0.8226924   -5.4689922    1.4422086 
C    -2.6657051    3.2573749    0.8902977 
C     1.6623285    1.2710807    5.0763869 
C     3.7466055   -0.5750139   -4.2522038 
C     0.9821839   -4.9999206   -0.9308834 
C    -4.9566869    2.5432576    1.2009437 
C     0.5195705    2.0855233    5.0778604 
C     2.7399885   -1.4962369   -4.5720518 
C     1.4400768   -5.6896588    0.2018918 
C    -4.0360273    3.5580476    0.9030791 
H     2.4864445    2.2899693    0.6913413 
H     3.8618390   -1.4285921    0.1312309 
H    -2.2118660   -2.6421435   -0.4841612 
H    -2.3763599   -0.5048764    2.8482949 
H     1.7228126   -2.3243299    1.1995918 
H     2.3372889   -1.3204520    2.5425627 
H    -0.0905922   -2.1094743    2.9196424 
H     0.0619158   -0.3320103    2.9004124 
H     4.4545318    0.3518304    2.0776243 
H     4.7793887    2.0346102    1.5991846 
H     4.3397393    1.4692459   -0.7904563 
H     5.5512921    0.3071115   -0.1894716 
H    -2.5370993   -3.1792100    2.5345224 
H    -3.5683946   -3.8031719    1.2261011 
H    -4.1790286   -1.4686565    0.5546314 
H    -4.4729524   -1.6174072    2.3063925 
H     0.5857020    3.0776460    1.8043878 
H     1.7627808   -2.3245010   -1.4038483 
H    -0.7120806   -4.4091673    2.5297054 
H    -1.1552919    1.7302538    1.1460462 
H     3.2909549    0.4494988    3.9210502 
H     4.8210179    0.4556589   -2.6876959 
H    -0.4324117   -3.5493024   -1.7023006 
H    -5.2557013    0.4673137    1.6944922 
H    -0.7469303    3.3889075    3.8869915 
H     1.2567440   -2.8667597   -3.7706007 
H     1.1590488   -6.0189965    2.3273388 
H    -1.9351063    4.0456261    0.6774247 
H     1.9859700    0.7792188    5.9996782 
H     4.3206646   -0.0918735   -5.0498305 
H     1.4465265   -5.1761280   -1.9068268 
H    -6.0289679    2.7645445    1.2224868 
H    -0.0555989    2.2256200    5.9988066 
H     2.5197410   -1.7320304   -5.6181152 
H     2.2623552   -6.4071999    0.1154092 
H    -4.3819152    4.5749077    0.6915228 
