101
Energy =
C    -1.6054795    0.1080879   -2.5063821 
C    -1.0792329    1.4146179   -2.3362111 
C     0.3294023    1.6255699   -2.4051445 
H    -1.7322399    2.2184521   -1.9739673 
Pd   -0.1671597    0.1524073   -0.7920631 
P     1.6621554    0.1507274    0.6411247 
P    -1.1602579   -1.2862449    0.7251421 
H    -0.9822597   -0.6014957   -3.0742846 
H     0.9050131    0.9525188   -3.0569067 
C    -5.7022075   -1.1576804   -2.1578658 
C    -4.7382416   -1.9963252   -2.7377892 
C    -3.4107301   -1.5636191   -2.8483602 
C    -3.0177942   -0.2890551   -2.3738676 
C    -3.9984228    0.5414826   -1.7860604 
C    -5.3257321    0.1121005   -1.6880748 
H    -6.7428095   -1.4880600   -2.0771214 
H    -5.0217855   -2.9846736   -3.1137846 
H    -2.6647458   -2.2146698   -3.3191507 
H    -3.7247963    1.5229798   -1.3871303 
H    -6.0715063    0.7720321   -1.2336650 
C     2.3382627    5.2885770   -1.3458210 
C     2.9222052    4.3915204   -2.2521185 
C     2.2528606    3.2126055   -2.6078238 
C     0.9897549    2.8985252   -2.0561459 
C     0.4106628    3.8181842   -1.1496863 
C     1.0741905    4.9998986   -0.8041593 
H     2.8602618    6.2091468   -1.0663779 
H     3.8996311    4.6141403   -2.6924723 
H     2.7049618    2.5331992   -3.3379598 
H    -0.5588269    3.5899165   -0.6948854 
H     0.6100194    5.6970088   -0.0985207 
C     2.7194189    1.6797438    1.0260343 
C     3.1003802   -1.0045921    0.2582106 
C    -1.9472075   -2.9040189    0.1933351 
C    -2.6649281   -0.7074818    1.7357974 
C     1.0512125   -0.5333292    2.2721648 
C     0.1301491   -1.7341165    1.9991319 
C     4.1856655    1.2108746    0.8012820 
C     4.2929726   -0.3149516    0.9855363 
C    -3.0546261   -3.1329936    1.2400110 
C    -3.7481745   -1.7746782    1.4304088 
C     2.3538764    2.2335907    2.3905298 
C     3.3086667   -1.2663185   -1.2205632 
C    -0.9176990   -3.9776696   -0.0780916 
C    -3.0752697    0.7465295    1.5588418 
C     3.0299758    1.8607566    3.5688966 
C     3.3210068   -0.2253280   -2.1698771 
C    -0.6510929   -5.0187777    0.8321206 
C    -2.1085586    1.7732221    1.5377088 
C     1.2456475    3.0990624    2.4985792 
C     3.5213706   -2.5839521   -1.6692489 
C    -0.1590170   -3.9104288   -1.2664711 
C    -4.4319682    1.1145313    1.4710467 
C     2.6049037    2.3367440    4.8183586 
C     3.5398901   -0.4921112   -3.5282956 
C     0.3436712   -5.9702961    0.5578329 
C    -2.4824926    3.1176048    1.4081619 
C     0.8140492    3.5683019    3.7460329 
C     3.7408178   -2.8541501   -3.0278432 
C     0.8318441   -4.8606266   -1.5417074 
C    -4.8094150    2.4592581    1.3373219 
C     1.4921153    3.1852578    4.9133886 
C     3.7494922   -1.8095400   -3.9634121 
C     1.0882468   -5.8948538   -0.6278691 
C    -3.8367814    3.4674714    1.2962211 
H     2.4364124    2.4229861    0.2608554 
H     2.8695795   -1.9673660    0.7458337 
H    -2.4403602   -2.6334402   -0.7600609 
H    -2.3313268   -0.8412276    2.7838207 
H     1.9081832   -0.8153292    2.9082506 
H     0.5178378    0.2797273    2.7968474 
H     0.6962976   -2.5830047    1.5726488 
H    -0.3486182   -2.0938557    2.9269192 
H     4.8697727    1.7477196    1.4801913 
H     4.4876235    1.4801341   -0.2243523 
H     5.2511017   -0.7061533    0.6022829 
H     4.2453325   -0.5708833    2.0601686 
H    -2.6261628   -3.4773594    2.1995145 
H    -3.7607706   -3.9093837    0.8978236 
H    -4.2758032   -1.5022357    0.4978970 
H    -4.4971798   -1.8090827    2.2399460 
H     3.8994766    1.1966833    3.5210505 
H     3.1484262    0.8063259   -1.8474494 
H    -1.2269624   -5.0999161    1.7593886 
H    -1.0451931    1.5260150    1.6342322 
H     0.7286427    3.4101890    1.5850245 
H     3.5086875   -3.4082192   -0.9474619 
H    -0.3504675   -3.1024496   -1.9828901 
H    -5.2120767    0.3491842    1.5005210 
H     3.1480921    2.0419252    5.7223467 
H     3.5505476    0.3308443   -4.2516733 
H     0.5300971   -6.7788469    1.2724521 
H    -1.7136115    3.8973826    1.4096052 
H    -0.0497679    4.2389592    3.8062912 
H     3.9075134   -3.8858280   -3.3557953 
H     1.4019966   -4.7926212   -2.4732892 
H    -5.8713394    2.7173458    1.2671061 
H     1.1610962    3.5526733    5.8900384 
H     3.9224345   -2.0191503   -5.0239037 
H     1.8579398   -6.6432812   -0.8432026 
H    -4.1307468    4.5169292    1.1929819 
