101
Energy =
C    -0.9419502    0.2169239   -2.8264436 
C    -0.6873967    1.5522166   -2.4359111 
C     0.6579202    1.9479286   -2.1434239 
H    -1.5207680    2.2169788   -2.1758442 
Pd    0.0705081    0.2950290   -0.8016707 
P     1.8729085    0.1758696    0.6386547 
P    -0.8945607   -1.2864886    0.5757473 
H    -0.0801851   -0.3562392   -3.2063623 
H     1.4524753    1.4613218   -2.7257171 
C    -4.6966162   -1.7569800   -3.5252632 
C    -3.4812029   -2.4443615   -3.6680851 
C    -2.2703725   -1.7750187   -3.4551868 
C    -2.2464150   -0.4084244   -3.0857341 
C    -3.4781979    0.2767559   -2.9751565 
C    -4.6882578   -0.3926440   -3.1883548 
H    -5.6459252   -2.2759852   -3.6919020 
H    -3.4771973   -3.5029249   -3.9475785 
H    -1.3200319   -2.3084215   -3.5716091 
H    -3.4893517    1.3436396   -2.7343927 
H    -5.6326455    0.1546693   -3.1011282 
C     1.7979782    5.6400552   -0.2399244 
C     2.7053681    4.9477852   -1.0559435 
C     2.3195571    3.7551528   -1.6833366 
C     1.0208455    3.2268992   -1.5030755 
C     0.1200071    3.9294855   -0.6681728 
C     0.5035215    5.1257021   -0.0528439 
H     2.0970616    6.5725911    0.2490664 
H     3.7149322    5.3423202   -1.2115602 
H     3.0273397    3.2270800   -2.3327093 
H    -0.8774386    3.5217653   -0.4720206 
H    -0.2095286    5.6535746    0.5894729 
C     2.8203225    1.6076553    1.4239266 
C     3.3819622   -0.5316171   -0.2812244 
C    -2.1387163   -2.6193946    0.0689042 
C    -1.9571524   -0.4951514    1.9201063 
C     1.4757661   -1.0243740    2.0174391 
C     0.4671566   -2.0968205    1.5672284 
C     4.3017584    1.1942793    1.2631940 
C     4.4451699    0.5818612   -0.1376448 
C    -3.4220278   -2.2857374    0.8803870 
C    -3.0584312   -1.5613582    2.1916679 
C     2.3201261    1.9894503    2.7999760 
C     3.0237481   -1.0024969   -1.6818360 
C    -1.5310891   -4.0002771    0.2173652 
C    -2.4313085    0.8980625    1.5476978 
C     1.2986807    2.9537132    2.9188519 
C     3.3681116   -0.2757689   -2.8375359 
C    -1.6747632   -4.7795408    1.3819673 
C    -3.1740059    1.1558106    0.3762163 
C     2.8182007    1.3888830    3.9748517 
C     2.2740880   -2.1886286   -1.8439667 
C    -0.7316055   -4.5025988   -0.8312503 
C    -2.1167642    1.9804802    2.3916766 
C     0.7948715    3.3131383    4.1761285 
C     2.9488560   -0.6986556   -4.1096167 
C    -1.0319814   -6.0217895    1.4951090 
C    -3.6056666    2.4549633    0.0738031 
C     2.3108994    1.7456043    5.2327037 
C     1.8609723   -2.6170258   -3.1117329 
C    -0.0835276   -5.7393505   -0.7175547 
C    -2.5376887    3.2823751    2.0844020 
C     1.2966653    2.7089478    5.3386765 
C     2.1863603   -1.8660383   -4.2525255 
C    -0.2294583   -6.5035206    0.4507533 
C    -3.2895193    3.5248311    0.9260225 
H     2.6178073    2.4448164    0.7295584 
H     3.6975729   -1.4060198    0.3187852 
H    -2.3238165   -2.4385349   -1.0033005 
H    -1.3129726   -0.3980003    2.8104136 
H     2.4025270   -1.4806387    2.4078979 
H     1.0547967   -0.4058549    2.8314499 
H     0.9357186   -2.8580163    0.9196781 
H     0.0384862   -2.6332415    2.4316266 
H     4.5854782    0.4491010    2.0285840 
H     4.9589235    2.0703257    1.4009015 
H     4.2653485    1.3743208   -0.8855438 
H     5.4563118    0.1795170   -0.3209997 
H    -4.0016613   -3.2041160    1.0758781 
H    -4.0652145   -1.6372148    0.2621112 
H    -3.9429535   -1.0906759    2.6542582 
H    -2.6600932   -2.2884611    2.9223272 
H     0.9038635    3.4278773    2.0144625 
H     3.9713087    0.6331134   -2.7561708 
H    -2.2969108   -4.4246823    2.2104137 
H    -3.4175832    0.3409128   -0.3133352 
H     3.6153597    0.6402768    3.9164294 
H     2.0164226   -2.7931190   -0.9671421 
H    -0.6245204   -3.9107726   -1.7470855 
H    -1.5291075    1.8031703    3.2988612 
H     0.0113684    4.0752850    4.2481859 
H     3.2289303   -0.1143560   -4.9922559 
H    -1.1619943   -6.6167221    2.4052201 
H    -4.1990809    2.6340098   -0.8293267 
H     2.7167613    1.2741361    6.1338690 
H     1.2938136   -3.5484347   -3.2112164 
H     0.5284878   -6.1127696   -1.5457755 
H    -2.2810558    4.1081151    2.7565263 
H     0.9072760    2.9930732    6.3216917 
H     1.8647465   -2.1982685   -5.2447736 
H     0.2711453   -7.4727198    0.5423463 
H    -3.6278806    4.5384009    0.6876920 
