101
Energy =
C    -1.2175960    0.1120995   -2.5891529 
C    -0.7587771    1.4389505   -2.3822934 
C     0.6488720    1.6805638   -2.3323266 
H    -1.4681874    2.2190630   -2.0780897 
Pd    0.0688498    0.2323445   -0.7571629 
P     1.9241070    0.2193741    0.6287022 
P    -0.8740136   -1.2631623    0.7352621 
H    -0.5216330   -0.5643957   -3.1102357 
H     1.2913369    1.0128024   -2.9259975 
C    -5.2293770   -1.4219850   -2.4178912 
C    -4.2323497   -2.0978536   -3.1367888 
C    -2.9347100   -1.5731393   -3.1931286 
C    -2.6094225   -0.3641686   -2.5340346 
C    -3.6228758    0.3042766   -1.8097869 
C    -4.9180524   -0.2201939   -1.7582844 
H    -6.2447671   -1.8285614   -2.3700864 
H    -4.4646917   -3.0339183   -3.6547553 
H    -2.1578886   -2.1007374   -3.7585005 
H    -3.3919914    1.2216943   -1.2585177 
H    -5.6885015    0.3092618   -1.1893656 
C     2.5819143    5.3243746   -1.0828111 
C     3.2776351    4.3604396   -1.8281593 
C     2.6290113    3.1915130   -2.2478162 
C     1.2737923    2.9540222   -1.9238639 
C     0.5841536    3.9380166   -1.1782816 
C     1.2293865    5.1101718   -0.7682336 
H     3.0857175    6.2390214   -0.7547323 
H     4.3280129    4.5236917   -2.0916127 
H     3.1700532    2.4469708   -2.8403648 
H    -0.4631694    3.7762532   -0.9039504 
H     0.6771996    5.8604062   -0.1923533 
C     2.8066164    1.7203052    1.3534805 
C     3.4794645   -0.4886799   -0.2098601 
C    -2.0445129   -2.6617055    0.2412618 
C    -1.9731334   -0.5819845    2.1152423 
C     1.5476916   -0.9036531    2.0768826 
C     0.5527218   -2.0118799    1.6882253 
C     4.2856527    1.2745692    1.3794100 
C     4.5590093    0.5964753    0.0280547 
C    -3.2192027   -2.5915970    1.2584834 
C    -2.7768447   -1.8366043    2.5287263 
C     2.1628563    2.2283039    2.6238226 
C     3.2052509   -0.9074740   -1.6469216 
C    -1.2725632   -3.9582942    0.1101651 
C    -2.7648490    0.6450694    1.6782948 
C     1.1085845    3.1602865    2.5322618 
C     3.8305820   -0.2946722   -2.7478414 
C    -1.1199494   -4.8647077    1.1775653 
C    -4.1701137    0.6783984    1.6313088 
C     2.5370325    1.7612707    3.9004399 
C     2.2553214   -1.9216514   -1.9036833 
C    -0.6133313   -4.2335250   -1.1060813 
C    -2.0598557    1.8228509    1.3478521 
C     0.4321335    3.5987834    3.6780449 
C     3.4869255   -0.6472465   -4.0640421 
C    -0.3253672   -6.0117045    1.0326547 
C    -4.8507675    1.8474210    1.2529461 
C     1.8663518    2.2065286    5.0494306 
C     1.9156510   -2.2796340   -3.2143186 
C     0.1871139   -5.3746798   -1.2501627 
C    -2.7354097    2.9895817    0.9713106 
C     0.8069898    3.1197783    4.9423965 
C     2.5193280   -1.6315960   -4.3037942 
C     0.3363641   -6.2674104   -0.1775674 
C    -4.1389451    3.0052920    0.9138680 
H     2.6879153    2.4851654    0.5622848 
H     3.7332911   -1.3892183    0.3810304 
H    -2.4072737   -2.3725673   -0.7588116 
H    -1.2924111   -0.2703579    2.9289113 
H     2.4799897   -1.3279769    2.4896379 
H     1.1185458   -0.2483459    2.8574029 
H     1.0182451   -2.7685154    1.0316255 
H     0.1864849   -2.5478885    2.5810532 
H     4.4671523    0.5641340    2.2068312 
H     4.9467707    2.1431586    1.5434673 
H     4.4889369    1.3659119   -0.7603160 
H     5.5704332    0.1584215   -0.0249010 
H    -3.5894531   -3.6025329    1.4978385 
H    -4.0497865   -2.0523513    0.7738150 
H    -3.6344579   -1.5679181    3.1702486 
H    -2.1251545   -2.4854037    3.1415295 
H     0.8286264    3.5472215    1.5466153 
H     4.5999282    0.4662991   -2.5905631 
H    -1.6245422   -4.6810766    2.1324474 
H    -4.7555506   -0.2066221    1.8955763 
H     3.3608806    1.0478413    4.0068142 
H     1.7784506   -2.4495118   -1.0697578 
H    -0.7401468   -3.5400415   -1.9454435 
H    -0.9656910    1.8291757    1.4106028 
H    -0.3871562    4.3192557    3.5830836 
H     3.9855838   -0.1509508   -4.9030639 
H    -0.2238628   -6.7094047    1.8705538 
H    -5.9455537    1.8494371    1.2280383 
H     2.1765709    1.8391836    6.0333018 
H     1.1811727   -3.0731022   -3.3858904 
H     0.6885606   -5.5733828   -2.2034467 
H    -2.1666763    3.8970222    0.7410096 
H     0.2837304    3.4639988    5.8403049 
H     2.2520086   -1.9060891   -5.3292274 
H     0.9568928   -7.1625144   -0.2875822 
H    -4.6712878    3.9161355    0.6217372 
