101
Energy =
C    -1.6678227    0.0640706   -2.4642127 
C    -1.1475836    1.3765308   -2.3239874 
C     0.2571459    1.5977544   -2.4305191 
H    -1.7977340    2.1799001   -1.9556651 
Pd   -0.1871541    0.1408699   -0.7874086 
P     1.6781508    0.1694286    0.5965295 
P    -1.1304026   -1.2856974    0.7711729 
H    -1.0535437   -0.6481565   -3.0385197 
H     0.8224847    0.9210346   -3.0874973 
C    -5.7446610   -1.2269159   -1.9956143 
C    -4.7894936   -2.0656918   -2.5897061 
C    -3.4684912   -1.6248770   -2.7393451 
C    -3.0732508   -0.3416697   -2.2908631 
C    -4.0448625    0.4890756   -1.6885018 
C    -5.3659221    0.0512779   -1.5511051 
H    -6.7801916   -1.5640524   -1.8836798 
H    -5.0752265   -3.0603717   -2.9468597 
H    -2.7298565   -2.2763506   -3.2209909 
H    -3.7687262    1.4777477   -1.3094924 
H    -6.1048221    0.7113445   -1.0857831 
C     2.2543195    5.2958386   -1.4754454 
C     1.0083021    5.0015922   -0.8962848 
C     0.3493010    3.8076870   -1.2067284 
C     0.9146440    2.8807852   -2.1144347 
C     2.1602943    3.1991414   -2.7021314 
C     2.8251109    4.3907959   -2.3821754 
H     2.7722570    6.2269559   -1.2248969 
H     0.5550331    5.7040510   -0.1888536 
H    -0.6057777    3.5763115   -0.7239260 
H     2.6015702    2.5129369   -3.4324795 
H     3.7882511    4.6171622   -2.8511638 
C     2.7356782    1.7090906    0.9358157 
C     3.1127959   -0.9812300    0.1880063 
C    -1.9202597   -2.9148723    0.2805382 
C    -2.6116908   -0.7035226    1.8138837 
C     1.1153291   -0.4996494    2.2510128 
C     0.1957886   -1.7097207    2.0164005 
C     4.1990574    1.2456770    0.6819152 
C     4.3195613   -0.2777854    0.8777248 
C    -2.9979612   -3.1377414    1.3590462 
C    -3.6953222   -1.7816741    1.5514503 
C     2.3997139    2.2783033    2.3015765 
C     3.2841623   -1.2561736   -1.2930952 
C    -0.8911395   -3.9854608   -0.0044978 
C    -3.0365429    0.7453946    1.6294326 
C     3.1042261    1.9216117    3.4682378 
C     3.4873371   -2.5776309   -1.7348743 
C    -0.1646108   -3.9290279   -1.2133600 
C    -4.3975202    1.1034592    1.5719025 
C     1.2901691    3.1399596    2.4252500 
C     3.2709820   -0.2239535   -2.2519659 
C    -0.5939982   -5.0132187    0.9114431 
C    -2.0776692    1.7780203    1.5709482 
C     2.7044533    2.4081333    4.7219637 
C     3.6731293   -2.8600740   -3.0959939 
C     0.8245495   -4.8768428   -1.5026887 
C    -4.7873819    2.4439293    1.4312171 
C     0.8839606    3.6197876    3.6772156 
C     3.4566705   -0.5029548   -3.6128541 
C     0.3993931   -5.9620455    0.6231669 
C    -2.4639575    3.1182271    1.4346446 
C     1.5896263    3.2519979    4.8330581 
C     3.6573018   -1.8240677   -4.0409709 
C     1.1117093   -5.8975672   -0.5828365 
C    -3.8230134    3.4578867    1.3533178 
H     2.4298078    2.4407045    0.1681392 
H     2.9002042   -1.9404946    0.6906203 
H    -2.4401305   -2.6595715   -0.6627650 
H    -2.2493575   -0.8211702    2.8542486 
H     1.9907440   -0.7683844    2.8673662 
H     0.5903569    0.3159214    2.7802385 
H     0.7565296   -2.5599722    1.5855194 
H    -0.2561021   -2.0613701    2.9606608 
H     4.8954887    1.7926230    1.3398815 
H     4.4760494    1.5069975   -0.3527589 
H     5.2697998   -0.6674043    0.4737702 
H     4.3010393   -0.5236732    1.9556040 
H    -2.5418424   -3.4676968    2.3108503 
H    -3.7079051   -3.9227108    1.0454156 
H    -4.2497068   -1.5244585    0.6302093 
H    -4.4219558   -1.8107282    2.3813185 
H     3.9762906    1.2619102    3.4077639 
H     3.4940002   -3.3951686   -1.0054319 
H    -0.3798894   -3.1314766   -1.9346373 
H    -5.1714196    0.3335436    1.6310609 
H     0.7518974    3.4398084    1.5202324 
H     3.1044444    0.8103551   -1.9349216 
H    -1.1444525   -5.0857371    1.8546984 
H    -1.0105457    1.5389216    1.6431941 
H     3.2688146    2.1249029    5.6166376 
H     3.8334194   -3.8944714   -3.4185344 
H     1.3692556   -4.8176150   -2.4499604 
H    -5.8524616    2.6941088    1.3840073 
H     0.0180211    4.2864419    3.7499578 
H     3.4483525    0.3133263   -4.3437846 
H     0.6100721   -6.7599038    1.3430337 
H    -1.7006119    3.9029109    1.4065939 
H     1.2786479    3.6280792    5.8129893 
H     3.8040653   -2.0431967   -5.1034787 
H     1.8798964   -6.6442864   -0.8091687 
H    -4.1266858    4.5041602    1.2459679 
