101
Energy =
C    -1.1952000   -0.0040786   -2.7528295 
C    -0.7928236    1.3313471   -2.4955019 
C     0.5869474    1.6289618   -2.2933401 
H    -1.5474369    2.0962768   -2.2742224 
Pd   -0.0869486    0.1371071   -0.7901975 
P     1.6366934    0.2692543    0.7585869 
P    -0.9945348   -1.4823803    0.6042186 
H    -0.4284085   -0.6775642   -3.1663271 
H     1.3171446    0.9845739   -2.8052110 
C    -5.1898175   -1.5858969   -3.0349775 
C    -4.0739274   -2.3865084   -3.3222382 
C    -2.7853188   -1.8433554   -3.2485988 
C    -2.5784773   -0.4931655   -2.8778404 
C    -3.7170490    0.3092097   -2.6291499 
C    -5.0047925   -0.2334404   -2.7013800 
H    -6.1992242   -2.0057668   -3.0900221 
H    -4.2070975   -3.4346739   -3.6094354 
H    -1.9167327   -2.4663784   -3.4898700 
H    -3.6010958    1.3713075   -2.3914881 
H    -5.8720775    0.4050900   -2.5042029 
C     2.1705314    5.4355004   -1.0397875 
C     2.9768074    4.5129278   -1.7230274 
C     2.4455115    3.2824771   -2.1323908 
C     1.1011793    2.9427183   -1.8574790 
C     0.3047759    3.8757899   -1.1539629 
C     0.8313047    5.1117162   -0.7627703 
H     2.5808955    6.3999954   -0.7243597 
H     4.0200220    4.7572160   -1.9491948 
H     3.0709122    2.5736212   -2.6849757 
H    -0.7249344    3.6212780   -0.8830029 
H     0.1961941    5.8243400   -0.2257981 
C     2.4907976    1.7896903    1.4838161 
C     3.2409569   -0.4754469    0.0369669 
C    -1.9278781   -3.0219514    0.0295267 
C    -2.3858462   -0.8645281    1.7262445 
C     1.1785508   -0.8047631    2.2164115 
C     0.3585914   -2.0252149    1.7691782 
C     3.9651499    1.3314706    1.6082509 
C     4.3165728    0.6040788    0.3063293 
C    -3.1886072   -3.0712482    0.9269842 
C    -3.6257564   -1.6223708    1.1865140 
C     1.8724463    2.4046901    2.7210828 
C     3.0644641   -0.9327084   -1.4044317 
C    -1.0585647   -4.2560510   -0.0622117 
C    -2.4858427    0.6417377    1.8103522 
C     1.1460181    3.6061016    2.6103836 
C     3.6945559   -0.2861555   -2.4843621 
C    -0.7697214   -5.0593998    1.0603555 
C    -2.8661440    1.4006852    0.6850540 
C     2.0462497    1.8427983    4.0040862 
C     2.2082489   -2.0187871   -1.6942129 
C    -0.4725578   -4.6005696   -1.2969935 
C    -2.1977448    1.3160233    3.0107705 
C     0.6219330    4.2375572    3.7455492 
C     3.4446564   -0.6756044   -3.8107391 
C     0.0858248   -6.1646261    0.9504070 
C    -2.9607454    2.7959262    0.7594861 
C     1.5075971    2.4647740    5.1390650 
C     1.9636228   -2.4144858   -3.0155900 
C     0.3868076   -5.7019798   -1.4095161 
C    -2.2958779    2.7129049    3.0888490 
C     0.7973861    3.6683638    5.0149584 
C     2.5682607   -1.7337515   -4.0837773 
C     0.6722511   -6.4870326   -0.2827896 
C    -2.6738489    3.4580878    1.9637805 
H     2.4264063    2.5226839    0.6576953 
H     3.4478067   -1.3608306    0.6674751 
H    -2.2529119   -2.7408658   -0.9886101 
H    -2.1454110   -1.2667337    2.7281668 
H     2.0828115   -1.1117774    2.7711596 
H     0.5827369   -0.1553597    2.8839063 
H     0.9826480   -2.7580952    1.2259298 
H    -0.0757227   -2.5540449    2.6354385 
H     4.0894537    0.6570703    2.4754485 
H     4.6169967    2.2051925    1.7813847 
H     4.3086696    1.3474175   -0.5093499 
H     5.3234908    0.1532050    0.3319769 
H    -2.9613813   -3.5670044    1.8880436 
H    -3.9780693   -3.6632107    0.4328875 
H    -3.9743027   -1.1597174    0.2443874 
H    -4.4553866   -1.5567225    1.9111149 
H     1.0065480    4.0535832    1.6219780 
H     4.3947538    0.5333338   -2.3026334 
H    -1.2182674   -4.8276185    2.0323936 
H    -3.1079602    0.8874445   -0.2508634 
H     2.6263819    0.9226977    4.1301069 
H     1.7326113   -2.5763496   -0.8794527 
H    -0.7037188   -3.9957964   -2.1801903 
H    -1.9024624    0.7443703    3.8986066 
H     0.0737475    5.1793155    3.6359233 
H     3.9460152   -0.1507031   -4.6305572 
H     0.2920301   -6.7795384    1.8327362 
H    -3.2748024    3.3684516   -0.1208627 
H     1.6599628    2.0162633    6.1264321 
H     1.3052290   -3.2662359   -3.2098009 
H     0.8277406   -5.9528828   -2.3801228 
H    -2.0739526    3.2166230    4.0334766 
H     0.3913645    4.1623243    5.9038818 
H     2.3747430   -2.0399662   -5.1168028 
H     1.3395589   -7.3507480   -0.3667749 
H    -2.7521864    4.5485104    2.0264690 
