101
Energy =
C    -1.1966684    0.0194778   -2.7538101 
C    -0.7482642    1.3413596   -2.5026866 
C     0.6410141    1.5925814   -2.3027587 
H    -1.4760922    2.1325292   -2.2841779 
Pd   -0.0828151    0.1325949   -0.7918504 
P     1.6434332    0.2189569    0.7570914 
P    -1.0420702   -1.4500505    0.6105537 
H    -0.4538389   -0.6820051   -3.1643364 
H     1.3485985    0.9212767   -2.8118576 
C    -5.2449031   -1.4217612   -3.0266203 
C    -4.1580521   -2.2639106   -3.3064297 
C    -2.8509500   -1.7665172   -3.2358721 
C    -2.5962596   -0.4217004   -2.8755463 
C    -3.7057097    0.4226137   -2.6340561 
C    -5.0119573   -0.0742636   -2.7033437 
H    -6.2686301   -1.8057079   -3.0796156 
H    -4.3282782   -3.3088403   -3.5857173 
H    -2.0052974   -2.4223409   -3.4717149 
H    -3.5522050    1.4817372   -2.4044917 
H    -5.8560014    0.5963299   -2.5118829 
C     2.3579755    5.3449983   -1.0616928 
C     3.1315425    4.3912872   -1.7399191 
C     2.5567341    3.1794354   -2.1458932 
C     1.2006066    2.8894331   -1.8721914 
C     0.4370647    3.8535407   -1.1740962 
C     1.0073387    5.0710496   -0.7864381 
H     2.8023334    6.2952781   -0.7491692 
H     4.1834391    4.5966473   -1.9646290 
H     3.1567997    2.4462168   -2.6946354 
H    -0.6018998    3.6378790   -0.9045498 
H     0.3973546    5.8084690   -0.2538524 
C     2.5350984    1.7185695    1.4806735 
C     3.2293644   -0.5684648    0.0402252 
C    -2.0233456   -2.9624074    0.0438784 
C    -2.4113940   -0.7848464    1.7325775 
C     1.1538376   -0.8379540    2.2175530 
C     0.2954291   -2.0330248    1.7739842 
C     3.9970619    1.2232623    1.6085186 
C     4.3316634    0.4839624    0.3090092 
C    -3.2807594   -2.9717480    0.9467590 
C    -3.6747541   -1.5096736    1.2012357 
C     1.9307149    2.3511391    2.7159502 
C     3.0456476   -1.0239955   -1.4008313 
C    -1.1879043   -4.2197506   -0.0472658 
C    -2.4699625    0.7241106    1.8071820 
C     1.2308662    3.5678947    2.6018240 
C     3.7091914   -0.4067829   -2.4778896 
C    -0.9331785   -5.0387770    1.0721001 
C    -2.8195498    1.4861290    0.6739839 
C     2.0923325    1.7893035    4.0006026 
C     2.1505234   -2.0773869   -1.6936498 
C    -0.5958934   -4.5694438   -1.2777789 
C    -2.1767517    1.3974839    3.0067786 
C     0.7214247    4.2142149    3.7353143 
C     3.4548654   -0.7912399   -3.8048982 
C    -0.1053979   -6.1651459    0.9630110 
C    -2.8789959    2.8837030    0.7397400 
C     1.5682820    2.4265499    5.1339096 
C     1.9011028   -2.4681601   -3.0156202 
C     0.2364358   -5.6914503   -1.3891177 
C    -2.2411173    2.7968196    3.0764877 
C     0.8849903    3.6452704    5.0063922 
C     2.5399405   -1.8153210   -4.0813131 
C     0.4875110   -6.4928026   -0.2656349 
C    -2.5884524    3.5450660    1.9436125 
H     2.4907363    2.4514002    0.6531383 
H     3.4121582   -1.4574071    0.6731894 
H    -2.3443122   -2.6750852   -0.9738556 
H    -2.1798102   -1.1871985    2.7365342 
H     2.0487457   -1.1719031    2.7719889 
H     0.5794367   -0.1689141    2.8845467 
H     0.8950877   -2.7857015    1.2301734 
H    -0.1534465   -2.5472417    2.6416376 
H     4.1030920    0.5481858    2.4776363 
H     4.6706999    2.0805757    1.7803749 
H     4.3434887    1.2252361   -0.5085303 
H     5.3268100    0.0078016    0.3372711 
H    -3.0638115   -3.4689363    1.9094550 
H    -4.0892511   -3.5430212    0.4590933 
H    -4.0136192   -1.0411323    0.2584310 
H    -4.4992201   -1.4166711    1.9287042 
H     1.1008750    4.0154247    1.6121304 
H     4.4396509    0.3852108   -2.2933955 
H    -1.3866365   -4.8028240    2.0408013 
H    -3.0657302    0.9739034   -0.2614586 
H     2.6514822    0.8566304    4.1290937 
H     1.6475976   -2.6132924   -0.8807912 
H    -0.8001005   -3.9513868   -2.1584473 
H    -1.9041992    0.8235803    3.9003698 
H     0.1939925    5.1674099    3.6229844 
H     3.9828554   -0.2894290   -4.6224430 
H     0.0740797   -6.7922062    1.8426263 
H    -3.1688945    3.4590546   -0.1470365 
H     1.7111959    1.9777787    6.1225712 
H     1.2114758   -3.2941980   -3.2127062 
H     0.6831439   -5.9455718   -2.3562407 
H    -2.0168618    3.3000111    4.0208604 
H     0.4906642    4.1509627    5.8939823 
H     2.3423850   -2.1173751   -5.1147908 
H     1.1333041   -7.3727941   -0.3488149 
H    -2.6402326    4.6374264    1.9998029 
