101
Energy =
C    -1.0001106    0.1708038   -2.8133961 
C    -0.7869628    1.5162489   -2.4333123 
C     0.5486671    1.9618897   -2.1684540 
H    -1.6385248    2.1516908   -2.1593748 
Pd    0.0476867    0.2952856   -0.8096568 
P     1.8839472    0.2452130    0.5911564 
P    -0.8355107   -1.3049511    0.6008881 
H    -0.1253816   -0.3728880   -3.2068363 
H     1.3488022    1.5045626   -2.7664641 
C    -4.6922759   -1.9437163   -3.4281044 
C    -3.4553150   -2.5878304   -3.5872391 
C    -2.2661225   -1.8732109   -3.4017793 
C    -2.2854477   -0.5033698   -3.0441656 
C    -3.5392356    0.1375945   -2.9166779 
C    -4.7277307   -0.5771805   -3.1022900 
H    -5.6248362   -2.4983305   -3.5732701 
H    -3.4177983   -3.6480016   -3.8580377 
H    -1.2990819   -2.3725637   -3.5306841 
H    -3.5850980    1.2057087   -2.6854412 
H    -5.6896988   -0.0637535   -3.0024235 
C     1.5872246    5.6947448   -0.2867924 
C     0.3206455    5.1271773   -0.0659853 
C    -0.0301328    3.9175812   -0.6745973 
C     0.8758967    3.2543357   -1.5358572 
C     2.1463914    3.8358223   -1.7496922 
C     2.4996755    5.0422066   -1.1294308 
H     1.8610366    6.6377314    0.1969401 
H    -0.3956027    5.6237966    0.5973213 
H    -1.0043060    3.4685100   -0.4527694 
H     2.8574072    3.3385532   -2.4196192 
H     3.4874540    5.4784513   -1.3113097 
C     2.7944423    1.7152482    1.3496842 
C     3.3959354   -0.4082135   -0.3622739 
C    -2.0517885   -2.6785029    0.1354860 
C    -1.8868505   -0.5371763    1.9670374 
C     1.5604667   -0.9618966    1.9831843 
C     0.5741025   -2.0669007    1.5633595 
C     4.2862236    1.3638602    1.1450310 
C     4.4127052    0.7518243   -0.2576879 
C    -3.3210147   -2.3798755    0.9821768 
C    -2.9407417   -1.6397088    2.2794994 
C     2.3162474    2.0728426    2.7399989 
C     3.0203332   -0.9080084   -1.7481735 
C    -1.3969637   -4.0387964    0.2738435 
C    -2.4263603    0.8326821    1.5969931 
C     2.8866241    1.5096791    3.9002457 
C     3.3061665   -0.1810291   -2.9196430 
C    -1.4863027   -4.8168057    1.4446517 
C    -3.1760029    1.0583056    0.4233210 
C     1.2400323    2.9714620    2.8878700 
C     2.3140635   -2.1242657   -1.8788761 
C    -0.6077882   -4.5198869   -0.7923579 
C    -2.1715948    1.9252019    2.4480126 
C     2.3965945    1.8394334    5.1723019 
C     2.8709115   -0.6337132   -4.1760307 
C    -0.8003995   -6.0367386    1.5467402 
C    -3.6708641    2.3357013    0.1247953 
C     0.7532308    3.3038466    4.1591796 
C     1.8856292   -2.5822884   -3.1310636 
C     0.0833448   -5.7340498   -0.6898244 
C    -2.6551592    3.2060693    2.1444166 
C     1.3273600    2.7373685    5.3072082 
C     2.1514118   -1.8314458   -4.2873039 
C    -0.0083418   -6.4968773    0.4848407 
C    -3.4121225    3.4161252    0.9830170 
H     2.5368563    2.5436589    0.6632027 
H     3.7654814   -1.2618724    0.2368841 
H    -2.2721496   -2.5095807   -0.9320045 
H    -1.2223770   -0.4071075    2.8380822 
H     2.5109368   -1.3873948    2.3507764 
H     1.1421737   -0.3532304    2.8059795 
H     1.0493929   -2.8174110    0.9083777 
H     0.1833804   -2.6109275    2.4409191 
H     4.6242412    0.6340140    1.9029935 
H     4.9100762    2.2671197    1.2601379 
H     4.1739200    1.5315499   -1.0025537 
H     5.4344710    0.3937359   -0.4715060 
H    -3.8677159   -3.3140235    1.1969692 
H    -4.0002894   -1.7519484    0.3814516 
H    -3.8252440   -1.1977079    2.7696351 
H    -2.4935716   -2.3497161    2.9987706 
H     3.7265857    0.8118547    3.8189994 
H     3.8753596    0.7513782   -2.8630806 
H    -2.0989537   -4.4785648    2.2869825 
H    -3.3752883    0.2352747   -0.2711049 
H     0.7887119    3.4162840    1.9949641 
H     2.1030969   -2.7287100   -0.9896702 
H    -0.5428155   -3.9292056   -1.7128710 
H    -1.5805709    1.7722203    3.3573890 
H     2.8586157    1.3981115    6.0616177 
H     3.1048461   -0.0485730   -5.0714579 
H    -0.8883362   -6.6312593    2.4621542 
H    -4.2682735    2.4894991   -0.7803263 
H    -0.0740760    4.0156585    4.2533913 
H     1.3534676   -3.5363403   -3.2063416 
H     0.6867282   -6.0911608   -1.5314701 
H    -2.4438445    4.0404962    2.8216737 
H     0.9510780    3.0006847    6.3010632 
H     1.8174176   -2.1866840   -5.2674155 
H     0.5263570   -7.4484660    0.5680876 
H    -3.7988806    4.4127616    0.7469954 
