101
Energy =
C    -1.3875609   -0.0420465   -2.5835036 
C    -0.8526667    1.2668859   -2.4465526 
C     0.5600830    1.4578193   -2.3877697 
H    -1.5221329    2.0963778   -2.1866396 
Pd   -0.0995520    0.0838142   -0.7673922 
P     1.6664038    0.1891572    0.7313878 
P    -1.1269430   -1.3132508    0.7590761 
H    -0.7449526   -0.7881316   -3.0768809 
H     1.1961337    0.7453418   -2.9345672 
C    -5.5195109   -1.2203865   -2.3254770 
C    -4.5720423   -2.0573851   -2.9334442 
C    -3.2340435   -1.6512496   -3.0216811 
C    -2.8139523   -0.4058577   -2.4986992 
C    -3.7790555    0.4245274   -1.8844599 
C    -5.1161075    0.0222567   -1.8070043 
H    -6.5672456   -1.5308739   -2.2591508 
H    -4.8758650   -3.0243818   -3.3473364 
H    -2.5015058   -2.3005716   -3.5148096 
H    -3.4822729    1.3799621   -1.4404455 
H    -5.8482349    0.6811340   -1.3293479 
C     2.5368302    5.1066905   -1.2282983 
C     3.2119697    4.1339636   -1.9805462 
C     2.5527074    2.9606254   -2.3719572 
C     1.2044977    2.7330618   -2.0156673 
C     0.5340866    3.7254774   -1.2609559 
C     1.1920126    4.8985705   -0.8763243 
H     3.0516987    6.0219432   -0.9195774 
H     4.2570228    4.2911327   -2.2676120 
H     3.0811551    2.2040038   -2.9600824 
H    -0.5027967    3.5636586   -0.9486820 
H     0.6573766    5.6533893   -0.2898773 
C     2.6475329    1.7586244    1.1282517 
C     3.1525506   -0.8655344    0.2299420 
C    -1.9784806   -2.9171047    0.2730911 
C    -2.6017069   -0.6656241    1.7769676 
C     1.0808121   -0.5667544    2.3379050 
C     0.1694877   -1.7681859    2.0293569 
C     4.1248299    1.3986086    0.7993408 
C     4.3473399   -0.1268539    0.8766534 
C    -3.0610569   -3.0971796    1.3576282 
C    -3.7143769   -1.7190554    1.5370057 
C     2.3279383    2.2575412    2.5223464 
C     3.1503003   -1.0575271   -1.2800477 
C    -1.0189928   -4.0471452   -0.0189356 
C    -2.9868731    0.7866793    1.5338028 
C     1.2543530    3.1555736    2.6919645 
C     3.9996074   -0.3582280   -2.1548531 
C    -0.5417566   -4.9113323    0.9877894 
C    -4.3330853    1.1698231    1.3771412 
C     3.0202669    1.8135863    3.6666943 
C     2.2081268   -1.9524053   -1.8346657 
C    -0.5477980   -4.2281106   -1.3360132 
C    -2.0044754    1.7984800    1.5055374 
C     0.8675820    3.5850576    3.9683770 
C     3.8913614   -0.5245005   -3.5467154 
C     0.3842080   -5.9205296    0.6852816 
C    -4.6840782    2.5122099    1.1674528 
C     2.6411299    2.2500270    4.9445103 
C     2.0981510   -2.1186229   -3.2202086 
C     0.3776474   -5.2355434   -1.6398585 
C    -2.3518278    3.1401724    1.2997250 
C     1.5591507    3.1295678    5.1011107 
C     2.9337922   -1.3939208   -4.0860678 
C     0.8505375   -6.0837548   -0.6275787 
C    -3.6949459    3.5035304    1.1179900 
H     2.2820262    2.5040033    0.4034233 
H     3.0084197   -1.8553307    0.6993712 
H    -2.4895803   -2.6373136   -0.6681624 
H    -2.2509073   -0.7568857    2.8238135 
H     1.9432495   -0.8625700    2.9602936 
H     0.5420223    0.2226788    2.8931822 
H     0.7499623   -2.5980239    1.5847970 
H    -0.3038285   -2.1574361    2.9481855 
H     4.8090086    1.9374470    1.4764232 
H     4.3353152    1.7608644   -0.2205153 
H     5.2990824   -0.4252668    0.4024985 
H     4.4131736   -0.4395680    1.9342888 
H    -2.6146930   -3.4383346    2.3098845 
H    -3.7946527   -3.8614387    1.0477683 
H    -4.2629232   -1.4623800    0.6123598 
H    -4.4398128   -1.7123051    2.3684229 
H     0.7316056    3.5271508    1.8037407 
H     4.7581808    0.3247726   -1.7619907 
H    -0.8989400   -4.8052706    2.0175018 
H    -5.1266530    0.4188837    1.4125202 
H     3.8662684    1.1247055    3.5670020 
H     1.5613486   -2.5398694   -1.1723073 
H    -0.9179614   -3.5684129   -2.1288297 
H    -0.9499985    1.5419193    1.6552270 
H     0.0301780    4.2823533    4.0773317 
H     4.5639862    0.0294521   -4.2100277 
H     0.7376578   -6.5866477    1.4793081 
H    -5.7384384    2.7814328    1.0447841 
H     3.1950241    1.9009831    5.8223312 
H     1.3649053   -2.8247820   -3.6243703 
H     0.7274131   -5.3624551   -2.6697567 
H    -1.5709630    3.9076626    1.2926427 
H     1.2636147    3.4658860    6.1001092 
H     2.8513669   -1.5200898   -5.1703209 
H     1.5707750   -6.8740553   -0.8622514 
H    -3.9680209    4.5510144    0.9546778 
