101
Energy =
C    -1.4132386   -0.0839975   -2.5685845 
C    -0.8679200    1.2236206   -2.4636630 
C     0.5465588    1.4055788   -2.4232346 
H    -1.5288609    2.0629345   -2.2138216 
Pd   -0.1056946    0.0685529   -0.7681677 
P     1.6736375    0.1933221    0.7116924 
P    -1.1282552   -1.2911187    0.7947371 
H    -0.7803405   -0.8444001   -3.0526785 
H     1.1718710    0.6769418   -2.9611403 
C    -5.5496414   -1.2300072   -2.2456405 
C    -4.6123174   -2.0880117   -2.8399541 
C    -3.2729107   -1.6921171   -2.9502922 
C    -2.8410290   -0.4363579   -2.4627513 
C    -3.7960511    0.4154110   -1.8622293 
C    -5.1347114    0.0232884   -1.7632191 
H    -6.5984973   -1.5325008   -2.1622584 
H    -4.9252486   -3.0636297   -3.2258848 
H    -2.5484312   -2.3580715   -3.4330789 
H    -3.4900262    1.3803084   -1.4458631 
H    -5.8589842    0.6987176   -1.2968298 
C     2.5609405    5.0628175   -1.3588055 
C     3.2220315    4.0691475   -2.0960243 
C     2.5505010    2.8929159   -2.4566515 
C     1.2038591    2.6833197   -2.0837962 
C     0.5476158    3.6967652   -1.3446815 
C     1.2177384    4.8726413   -0.9908482 
H     3.0854143    5.9804188   -1.0741590 
H     4.2656625    4.2120871   -2.3954380 
H     3.0679037    2.1199955   -3.0332605 
H    -0.4876971    3.5497525   -1.0201401 
H     0.6939795    5.6438587   -0.4160446 
C     2.6676940    1.7649813    1.0675304 
C     3.1495464   -0.8802550    0.2196023 
C    -1.9933823   -2.8996752    0.3496105 
C    -2.5913258   -0.6129309    1.8100273 
C     1.0975110   -0.5251343    2.3388059 
C     0.1760150   -1.7269434    2.0638471 
C     4.1396105    1.3894261    0.7324029 
C     4.3541945   -0.1353331    0.8400448 
C    -3.0699003   -3.0489795    1.4447438 
C    -3.7128010   -1.6629744    1.5986015 
C     2.3642932    2.2940928    2.4540613 
C     3.1327732   -1.1033532   -1.2859845 
C    -1.0434215   -4.0422917    0.0761157 
C    -2.9684217    0.8368279    1.5407167 
C     3.0643932    1.8687825    3.6007677 
C     3.9793582   -0.4286613   -2.1824503 
C    -0.5786898   -4.2523484   -1.2389586 
C    -4.3133630    1.2259426    1.3878335 
C     1.2980946    3.2024316    2.6154023 
C     2.1794405   -2.0026528   -1.8137132 
C    -0.5687008   -4.8902670    1.0976737 
C    -1.9795857    1.8411152    1.4833523 
C     2.6996676    2.3329521    4.8729980 
C     3.8579151   -0.6233356   -3.5695505 
C     0.3383154   -5.2721732   -1.5265658 
C    -4.6572093    2.5661126    1.1536105 
C     0.9256411    3.6596455    3.8864350 
C     2.0560968   -2.1969221   -3.1944661 
C     0.3485450   -5.9120803    0.8113757 
C    -2.3197344    3.1806201    1.2527840 
C     1.6246224    3.2222924    5.0217748 
C     2.8894437   -1.4966872   -4.0824219 
C     0.8087096   -6.1041499   -0.4997425 
C    -3.6619189    3.5493687    1.0750065 
H     2.2995868    2.4975141    0.3310062 
H     3.0036748   -1.8591680    0.7108061 
H    -2.5089876   -2.6368143   -0.5940219 
H    -2.2333587   -0.6861989    2.8558773 
H     1.9636919   -0.8132088    2.9596127 
H     0.5687876    0.2793186    2.8820200 
H     0.7473641   -2.5700214    1.6325478 
H    -0.2921601   -2.0932494    2.9947033 
H     4.8333026    1.9385184    1.3913477 
H     4.3423593    1.7286471   -0.2968817 
H     5.2999426   -0.4492653    0.3639041 
H     4.4278534   -0.4261021    1.9034181 
H    -2.6196074   -3.3724540    2.4013310 
H    -3.8105011   -3.8148591    1.1562198 
H    -4.2650134   -1.4217263    0.6719576 
H    -4.4332632   -1.6338736    2.4338508 
H     3.9053458    1.1728745    3.5072350 
H     4.7460526    0.2570294   -1.8106050 
H    -0.9469740   -3.6053618   -2.0430850 
H    -5.1116313    0.4813777    1.4453498 
H     0.7698396    3.5599991    1.7246867 
H     1.5344321   -2.5713807   -1.1335064 
H    -0.9209825   -4.7614456    2.1264773 
H    -0.9256645    1.5803249    1.6294730 
H     3.2594028    1.9978646    5.7525511 
H     4.5287312   -0.0883243   -4.2500231 
H     0.6834366   -5.4214068   -2.5550322 
H    -5.7107821    2.8399831    1.0344871 
H     0.0936353    4.3643366    3.9889606 
H     1.3143395   -2.9059766   -3.5775146 
H     0.7000923   -6.5652987    1.6168829 
H    -1.5339229    3.9425114    1.2233500 
H     1.3402869    3.5802692    6.0164909 
H     2.7967212   -1.6448555   -5.1630543 
H     1.5220743   -6.9043036   -0.7216924 
H    -3.9293890    4.5950994    0.8923106 
