101
Energy =
C    -0.9616268    0.1496538   -2.8283548 
C    -0.7637255    1.4981254   -2.4520817 
C     0.5649942    1.9554605   -2.1706385 
H    -1.6237518    2.1285474   -2.1933764 
Pd    0.0590218    0.2942519   -0.8099953 
P     1.8824555    0.2550346    0.6068490 
P    -0.8350862   -1.2972404    0.6043593 
H    -0.0772855   -0.3904808   -3.2048348 
H     1.3765410    1.5036812   -2.7573030 
C    -4.6287059   -1.9985202   -3.4740149 
C    -4.6790531   -0.6290586   -3.1628059 
C    -3.4986803    0.0965968   -2.9677301 
C    -2.2384690   -0.5361254   -3.0710390 
C    -2.2037877   -1.9092475   -3.4145689 
C    -3.3848095   -2.6347830   -3.6092438 
H    -5.5549345   -2.5616727   -3.6266902 
H    -5.6461628   -0.1220502   -3.0816796 
H    -3.5558158    1.1666990   -2.7483141 
H    -1.2312002   -2.4021658   -3.5246884 
H    -3.3355620   -3.6974037   -3.8683087 
C     1.5449429    5.7048565   -0.2902794 
C     0.2797284    5.1281369   -0.0861260 
C    -0.0521700    3.9131587   -0.6946343 
C     0.8721771    3.2533281   -1.5390079 
C     2.1411805    3.8440169   -1.7360028 
C     2.4752711    5.0560210   -1.1160613 
H     1.8038008    6.6521963    0.1931842 
H    -0.4503205    5.6216350    0.5643209 
H    -1.0262128    3.4575362   -0.4857822 
H     2.8664695    3.3492719   -2.3924262 
H     3.4622504    5.4993237   -1.2847496 
C     2.7828623    1.7320122    1.3625623 
C     3.4039267   -0.4032486   -0.3272249 
C    -2.0478388   -2.6755198    0.1424175 
C    -1.8971491   -0.5187973    1.9554111 
C     1.5481404   -0.9413473    2.0054319 
C     0.5661357   -2.0503586    1.5858572 
C     4.2770520    1.3820946    1.1750447 
C     4.4182930    0.7589158   -0.2215543 
C    -3.3192049   -2.3769576    0.9861705 
C    -2.9426009   -1.6262826    2.2783525 
C     2.2875171    2.0970976    2.7449410 
C     3.0421251   -0.9148514   -1.7124586 
C    -1.3887668   -4.0330899    0.2882955 
C    -2.4492866    0.8404516    1.5653304 
C     1.1920545    2.9755003    2.8728485 
C     2.3465562   -2.1375559   -1.8399708 
C    -1.4811568   -4.8076634    1.4611258 
C    -3.1746690    1.0487701    0.3733521 
C     2.8585281    1.5586367    3.9163775 
C     3.3304203   -0.1932555   -2.8866706 
C    -0.5915101   -4.5140977   -0.7719003 
C    -2.2337908    1.9403774    2.4177295 
C     0.6876022    3.3128191    4.1359101 
C     1.9316805   -2.6077839   -3.0922097 
C    -0.7905309   -6.0242865    1.5709530 
C    -3.6837195    2.3165485    0.0577808 
C     2.3508836    1.8935126    5.1802660 
C     2.9088791   -0.6583142   -4.1431848 
C     0.1041753   -5.7249644   -0.6616726 
C    -2.7311795    3.2117952    2.0972392 
C     1.2631117    2.7716272    5.2954745 
C     2.2006257   -1.8630151   -4.2516517 
C     0.0092952   -6.4844649    0.5149117 
C    -3.4635233    3.4045271    0.9171420 
H     2.5303136    2.5550838    0.6677441 
H     3.7688375   -1.2516643    0.2821063 
H    -2.2661686   -2.5119184   -0.9263845 
H    -1.2376231   -0.3707751    2.8273579 
H     2.4958479   -1.3631799    2.3841904 
H     1.1226894   -0.3264187    2.8198649 
H     1.0476269   -2.8057205    0.9410668 
H     0.1680084   -2.5874401    2.4643417 
H     4.6090122    0.6585384    1.9416952 
H     4.8985239    2.2871451    1.2889934 
H     4.1864418    1.5323495   -0.9751740 
H     5.4425372    0.4003069   -0.4221429 
H    -3.8621631   -3.3118968    1.2068807 
H    -4.0007696   -1.7554119    0.3814473 
H    -3.8293590   -1.1871148    2.7669797 
H    -2.4891189   -2.3283149    3.0016208 
H     0.7397623    3.4010629    1.9710249 
H     2.1335890   -2.7374984   -0.9481772 
H    -2.0997052   -4.4692715    2.2990885 
H    -3.3433486    0.2199212   -0.3224687 
H     3.7126153    0.8765491    3.8505817 
H     3.8913077    0.7443210   -2.8321750 
H    -0.5234650   -3.9257102   -1.6935629 
H    -1.6623530    1.8004536    3.3415917 
H    -0.1543787    4.0091735    4.2144297 
H     1.4080013   -3.5667260   -3.1648377 
H    -0.8807637   -6.6161052    2.4878948 
H    -4.2618834    2.4568444   -0.8618906 
H     2.8138021    1.4719339    6.0786495 
H     3.1448793   -0.0774529   -5.0408560 
H     0.7138305   -6.0821252   -1.4987971 
H    -2.5501319    4.0523853    2.7756927 
H     0.8731000    3.0389825    6.2829444 
H     1.8775615   -2.2280275   -5.2318387 
H     0.5475729   -7.4334938    0.6041448 
H    -3.8610398    4.3936000    0.6675702 
