101
Energy =
C    -1.3170039    0.0895547   -2.7815377 
C    -1.0431215    1.4404845   -2.4616733 
C     0.3060448    1.8951294   -2.3289902 
H    -1.8601216    2.0918454   -2.1272526 
Pd   -0.0910163    0.2551462   -0.8775154 
P     1.6771465    0.4547515    0.6227308 
P    -0.9009255   -1.3504683    0.5825757 
H    -0.5024892   -0.4896863   -3.2457509 
H     1.0534637    1.4251819   -2.9825092 
C    -5.1615525   -1.8326294   -3.0183174 
C    -3.9780204   -2.5653603   -3.1977438 
C    -2.7374741   -1.9192789   -3.1381318 
C    -2.6495513   -0.5296852   -2.8838857 
C    -3.8530349    0.1997547   -2.7386820 
C    -5.0928422   -0.4465070   -2.8003034 
H    -6.1334803   -2.3338571   -3.0677472 
H    -4.0199180   -3.6425921   -3.3889751 
H    -1.8189143   -2.4978656   -3.2837786 
H    -3.8233033    1.2844849   -2.5964098 
H    -6.0129193    0.1365994   -2.6892446 
C     1.4621962    5.7219339   -0.7233351 
C     2.2900433    5.0529997   -1.6377261 
C     1.8978844    3.8174138   -2.1709304 
C     0.6734931    3.2210144   -1.7942939 
C    -0.1477954    3.9023641   -0.8644971 
C     0.2396751    5.1418088   -0.3442332 
H     1.7672703    6.6875166   -0.3077569 
H     3.2420544    5.4988377   -1.9441209 
H     2.5426403    3.3104974   -2.8979956 
H    -1.0776207    3.4414755   -0.5159833 
H    -0.4117872    5.6521236    0.3733023 
C     2.3306281    2.1367615    1.2075172 
C     3.3402768   -0.1257967   -0.0481962 
C    -1.8873537   -2.9021665    0.2011426 
C    -2.1723888   -0.6486905    1.8107007 
C     1.3071308   -0.6277692    2.0994567 
C     0.5236108   -1.8771030    1.6598603 
C     3.8231771    2.1577229    0.7686100 
C     4.0091251    1.2148853   -0.4279743 
C    -2.8639085   -3.0135771    1.3914176 
C    -3.3912098   -1.6015717    1.6752533 
C     2.0574988    2.4482446    2.6635989 
C     3.2757141   -1.1984914   -1.1119076 
C    -1.0417138   -4.1124944   -0.1450626 
C    -2.4769841    0.8242571    1.6315534 
C     1.0574155    3.3790083    3.0049463 
C     3.6064797   -2.5294831   -0.7912514 
C    -1.1299564   -5.3111350    0.5893908 
C    -2.0788471    1.7695881    2.5943239 
C     2.7752442    1.8221630    3.7049675 
C     2.9040840   -0.9020141   -2.4391222 
C    -0.1655998   -4.0659915   -1.2514513 
C    -3.1923577    1.2752546    0.5028337 
C     0.7823309    3.6779595    4.3471727 
C     3.5817125   -3.5331557   -1.7695254 
C    -0.3786464   -6.4373280    0.2193203 
C    -2.4077586    3.1262578    2.4455394 
C     2.4971598    2.1141497    5.0466679 
C     2.8702770   -1.9041113   -3.4181018 
C     0.5713185   -5.1950250   -1.6291956 
C    -3.5209102    2.6279250    0.3521326 
C     1.4976622    3.0440450    5.3732078 
C     3.2158836   -3.2232281   -3.0872189 
C     0.4675420   -6.3867442   -0.8957783 
C    -3.1332034    3.5609247    1.3282701 
H     1.7694078    2.8521528    0.5832076 
H     3.8667925   -0.5345607    0.8353779 
H    -2.4718428   -2.6150019   -0.6959451 
H    -1.7133874   -0.8011558    2.8044436 
H     2.2454653   -0.8977881    2.6131876 
H     0.7196766   -0.0098650    2.8033356 
H     1.1481836   -2.5526174    1.0470178 
H     0.1584913   -2.4523251    2.5294337 
H     4.4634489    1.8191885    1.6020422 
H     4.1189824    3.1928246    0.5290553 
H     3.5219481    1.6411989   -1.3233247 
H     5.0732529    1.0579730   -0.6751747 
H    -2.3382100   -3.4046353    2.2828322 
H    -3.6820119   -3.7177362    1.1589810 
H    -4.0302481   -1.2725227    0.8365552 
H    -4.0079465   -1.5585692    2.5889950 
H     0.4977917    3.8745427    2.2054343 
H     3.9066141   -2.7793776    0.2333697 
H    -1.8014949   -5.3834056    1.4498641 
H    -1.5160709    1.4465321    3.4777573 
H     3.5664679    1.1006006    3.4699122 
H     2.6663029    0.1287090   -2.7174093 
H    -0.0532347   -3.1344607   -1.8197530 
H    -3.5097835    0.5565177   -0.2601621 
H     0.0118709    4.4167141    4.5934356 
H     3.8529384   -4.5588876   -1.5002922 
H    -0.4677347   -7.3605417    0.8014277 
H    -2.1040916    3.8422022    3.2154723 
H     3.0677305    1.6198312    5.8399101 
H     2.5943977   -1.6499271   -4.4472336 
H     1.2286213   -5.1413629   -2.5009945 
H    -4.0925810    2.9557049   -0.5233453 
H     1.2854634    3.2789520    6.4212676 
H     3.2094025   -4.0027576   -3.8563271 
H     1.0423943   -7.2697163   -1.1934730 
H    -3.3994599    4.6173120    1.2187333 
