101
Energy =
C    -1.2071738   -0.0801582   -2.8149386 
C    -0.7858217    1.2475631   -2.5603934 
C     0.5933975    1.5333847   -2.3232762 
H    -1.5336724    2.0237406   -2.3546799 
Pd   -0.1280486    0.0734239   -0.8205482 
P     1.5640195    0.2210804    0.7608144 
P    -1.1483312   -1.3675552    0.6710022 
H    -0.4377805   -0.7818940   -3.1731003 
H     1.3379866    0.9089518   -2.8387381 
C    -5.2341422   -1.5408108   -3.2537355 
C    -4.1373189   -2.4115454   -3.3459241 
C    -2.8351430   -1.9123001   -3.2245142 
C    -2.5957348   -0.5365214   -2.9939692 
C    -3.7114687    0.3320251   -2.9424215 
C    -5.0134277   -0.1662762   -3.0655030 
H    -6.2542263   -1.9261104   -3.3499566 
H    -4.2958225   -3.4808256   -3.5202983 
H    -1.9826809   -2.5945445   -3.3144625 
H    -3.5630102    1.4098096   -2.8231072 
H    -5.8624906    0.5238150   -3.0243416 
C     2.0796172    5.2929443   -0.8341021 
C     2.8804189    4.4836278   -1.6537717 
C     2.3842812    3.2690243   -2.1484026 
C     1.0763145    2.8401347   -1.8316547 
C     0.2795470    3.6649079   -1.0005455 
C     0.7752278    4.8785796   -0.5128917 
H     2.4689921    6.2388473   -0.4444075 
H     3.8961925    4.8007898   -1.9121197 
H     3.0100262    2.6419706   -2.7921871 
H    -0.7184935    3.3309365   -0.6963037 
H     0.1462173    5.4975141    0.1358075 
C     2.4616212    1.8096995    1.2695903 
C     3.1116741   -0.7414388    0.2404535 
C    -2.1120077   -2.9218614    0.2246067 
C    -2.5403049   -0.6025681    1.7094683 
C     0.9836149   -0.6403941    2.3127830 
C     0.1384867   -1.8671811    1.9281335 
C     3.9350859    1.5698058    0.8393015 
C     4.2719839    0.0646255    0.8692881 
C    -3.2885384   -2.9324418    1.2248074 
C    -3.7725205   -1.4794774    1.3585941 
C     2.1997491    2.1533049    2.7226391 
C     3.1108638   -0.9375942   -1.2681068 
C    -1.2057499   -4.1285171    0.1136075 
C    -2.6907081    0.8918365    1.5221111 
C     3.0202005    1.6939564    3.7726218 
C     3.8715536   -0.1537916   -2.1534380 
C    -1.0305229   -5.0465763    1.1673247 
C    -3.1607334    1.4186711    0.3018018 
C     1.0664344    2.9286235    3.0444484 
C     2.2578334   -1.9236994   -1.8112933 
C    -0.4469366   -4.3071436   -1.0630433 
C    -2.3530318    1.7872335    2.5535382 
C     2.7150794    1.9998206    5.1069249 
C     3.7613629   -0.3294118   -3.5437880 
C    -0.1221557   -6.1095557    1.0470043 
C    -3.2976514    2.8002381    0.1200387 
C     0.7601873    3.2321231    4.3778248 
C     2.1479985   -2.1018980   -3.1958946 
C     0.4658375   -5.3630573   -1.1824119 
C    -2.4893054    3.1728533    2.3734281 
C     1.5818610    2.7663637    5.4154643 
C     2.8923271   -1.2943862   -4.0716572 
C     0.6327578   -6.2693417   -0.1238273 
C    -2.9603904    3.6855622    1.1571345 
H     2.0186682    2.5995117    0.6421424 
H     3.0302411   -1.7367407    0.7126869 
H    -2.5177021   -2.6846482   -0.7771918 
H    -2.2546364   -0.8057921    2.7578958 
H     1.8474639   -0.9162891    2.9423696 
H     0.3905704    0.0989310    2.8814412 
H     0.7570315   -2.6526905    1.4551525 
H    -0.3429362   -2.3209407    2.8125577 
H     4.6186857    2.1498338    1.4824738 
H     4.0509685    1.9626352   -0.1846127 
H     5.2246748   -0.1507961    0.3540937 
H     4.3982440   -0.2697622    1.9141399 
H    -2.9588989   -3.3036469    2.2126369 
H    -4.0889151   -3.6064233    0.8729100 
H    -4.2130864   -1.1458290    0.4012134 
H    -4.5505669   -1.3656505    2.1325386 
H     3.9131329    1.0984224    3.5559071 
H     4.5599097    0.6044611   -1.7695146 
H    -1.6087603   -4.9418513    2.0908953 
H    -3.4327292    0.7378868   -0.5113409 
H     0.4233379    3.2972470    2.2377010 
H     1.6826901   -2.5701590   -1.1384064 
H    -0.5753703   -3.6019940   -1.8918848 
H    -1.9838391    1.4012694    3.5108816 
H     3.3693001    1.6402108    5.9080782 
H     4.3629149    0.2919642   -4.2155442 
H    -0.0073265   -6.8179796    1.8740748 
H    -3.6781976    3.1897654   -0.8308484 
H    -0.1179518    3.8447311    4.6084318 
H     1.4879091   -2.8811183   -3.5930133 
H     1.0445048   -5.4817912   -2.1047548 
H    -2.2349799    3.8531690    3.1925995 
H     1.3464305    3.0072989    6.4571273 
H     2.8090049   -1.4285987   -5.1548277 
H     1.3405640   -7.0994727   -0.2147226 
H    -3.0737572    4.7659241    1.0199057 
