101
Energy =
C    -1.3132481    0.3832877   -2.8223389 
C    -1.1168300    1.7075838   -2.3655846 
C     0.2126285    2.2173520   -2.2166362 
H    -1.9624854    2.2726520   -1.9531476 
Pd   -0.0669823    0.4301869   -0.9239274 
P     1.7687176    0.5143594    0.4877144 
P    -0.7360754   -1.3650549    0.3750804 
H    -0.4666453   -0.0887449   -3.3461383 
H     0.9614869    1.8563001   -2.9346636 
C    -4.9971176   -1.7786327   -3.3349846 
C    -3.7623487   -2.3777268   -3.6284083 
C    -2.5761155   -1.6518173   -3.4679041 
C    -2.5956416   -0.3167942   -2.9974752 
C    -3.8496746    0.2817390   -2.7344264 
C    -5.0350558   -0.4435990   -2.8981800 
H    -5.9269598   -2.3419810   -3.4626151 
H    -3.7243107   -3.4107290   -3.9891295 
H    -1.6137898   -2.1173582   -3.7117972 
H    -3.8997278    1.3259315   -2.4128084 
H    -5.9970406    0.0377966   -2.6936851 
C     1.2568446    5.9033245   -0.2491568 
C     2.0893318    5.3648199   -1.2419337 
C     1.7320681    4.1760102   -1.8929562 
C     0.5379261    3.4973995   -1.5595102 
C    -0.2892391    4.0484664   -0.5527160 
C     0.0638983    5.2409735    0.0874049 
H     1.5351658    6.8315481    0.2597996 
H     3.0178626    5.8762837   -1.5162182 
H     2.3815381    3.7694975   -2.6768041 
H    -1.1973859    3.5215177   -0.2429833 
H    -0.5911675    5.6503098    0.8640612 
C     2.4960594    2.1382824    1.1294763 
C     3.3593611   -0.0503995   -0.3525337 
C    -1.6383868   -2.8859754   -0.2823677 
C    -2.0232267   -0.8872415    1.6844421 
C     1.4875187   -0.6781593    1.8944859 
C     0.7335231   -1.9177584    1.3782828 
C     3.9501415    2.1619424    0.5792172 
C     4.0184293    1.3043088   -0.6961527 
C    -3.1002225   -2.6258608    0.1604602 
C    -3.1355566   -1.9715198    1.5583471 
C     2.3020729    2.3326505    2.6179773 
C     3.1373849   -1.0596552   -1.4575893 
C    -0.9694898   -4.1807813    0.1368373 
C    -2.4725883    0.5571851    1.5517869 
C     3.1119640    1.6818805    3.5716559 
C     3.3780031   -2.4272134   -1.2195245 
C    -1.3404466   -4.9068927    1.2860013 
C    -3.4276769    0.9462425    0.5913295 
C     1.2481066    3.1478094    3.0764316 
C     2.6453736   -0.6789773   -2.7231096 
C     0.1013492   -4.6654827   -0.6449596 
C    -1.9390893    1.5438617    2.4041937 
C     2.8718976    1.8400574    4.9435358 
C     3.1202035   -3.3881538   -2.2081219 
C    -0.6578856   -6.0793924    1.6441453 
C    -3.8471598    2.2805031    0.4954536 
C     1.0055717    3.3059804    4.4480771 
C     2.3790877   -1.6372138   -3.7105908 
C     0.7850802   -5.8336442   -0.2859337 
C    -2.3610882    2.8780580    2.3128700 
C     1.8152544    2.6500646    5.3872909 
C     2.6094732   -2.9982710   -3.4545985 
C     0.4098801   -6.5448855    0.8640450 
C    -3.3191021    3.2526540    1.3595719 
H     1.9063168    2.9029092    0.5958600 
H     3.9515405   -0.5272200    0.4517949 
H    -1.5766769   -2.8069980   -1.3797955 
H    -1.5097806   -0.9916594    2.6556292 
H     2.4509140   -0.9533870    2.3565801 
H     0.9039088   -0.1365254    2.6612017 
H     1.3669173   -2.5259329    0.7088132 
H     0.4021641   -2.5721643    2.2034547 
H     4.6462424    1.7495888    1.3305219 
H     4.2538325    3.2053242    0.3902072 
H     3.4643231    1.8009095   -1.5137041 
H     5.0555548    1.1559519   -1.0431128 
H    -3.6803964   -3.5647110    0.1373839 
H    -3.5610681   -1.9504880   -0.5830392 
H    -4.1245255   -1.5278551    1.7636068 
H    -2.9637867   -2.7336218    2.3363305 
H     3.9423914    1.0451440    3.2455243 
H     3.7809485   -2.7440006   -0.2501833 
H    -2.1760320   -4.5708953    1.9069983 
H    -3.8589335    0.2001413   -0.0825374 
H     0.6196687    3.6623164    2.3424167 
H     2.4829373    0.3797022   -2.9450069 
H     0.4013652   -4.1176206   -1.5460482 
H    -1.1967552    1.2680552    3.1622294 
H     3.5150635    1.3311938    5.6691805 
H     3.3252914   -4.4438183   -2.0031545 
H    -0.9679183   -6.6335610    2.5362911 
H    -4.6031855    2.5602408   -0.2465410 
H     0.1867306    3.9508106    4.7854936 
H     2.0049466   -1.3184717   -4.6896232 
H     1.6071353   -6.1963984   -0.9122242 
H    -1.9470472    3.6243378    2.9986200 
H     1.6304346    2.7753238    6.4590857 
H     2.4106022   -3.7467980   -4.2284900 
H     0.9396186   -7.4609061    1.1446868 
H    -3.6561855    4.2921792    1.2931855 
