119
Energy =
C     2.8369013    1.1571147   -0.0223042 
C     3.0895506   -0.2129535   -0.2975358 
C     2.4903922   -0.8359031   -1.4167027 
H     3.6972389   -0.8088240    0.3945283 
Pd    0.9099795   -0.0877234    0.0701329 
P    -0.3525251   -2.1114589    0.1936944 
P    -0.3756871    1.3933445    1.4020019 
H     2.5826304    1.8019035   -0.8744374 
H     2.1253282   -0.1489009   -2.1968358 
C     4.4408820    3.2715560    3.3591530 
C     4.2356581    1.8837667    3.4448577 
C     3.7175377    1.1834103    2.3518942 
C     3.3860458    1.8551911    1.1517278 
C     3.6103404    3.2483803    1.0748753 
C     4.1326209    3.9473999    2.1695026 
H     4.8443430    3.8200490    4.2166169 
H     4.4799562    1.3490449    4.3687552 
H     3.5641215    0.1010970    2.4328538 
H     3.3684661    3.7713230    0.1441420 
H     4.2969322    5.0269421    2.0924129 
C     3.3639302   -4.7516892   -2.9497499 
C     2.7570802   -3.7801940   -3.7594779 
C     2.4477253   -2.5229889   -3.2308232 
C     2.7488444   -2.2036144   -1.8864439 
C     3.3459493   -3.1996043   -1.0784164 
C     3.6488046   -4.4581913   -1.6059555 
H     3.6102918   -5.7355920   -3.3618098 
H     2.5228086   -4.0024968   -4.8050809 
H     1.9822750   -1.7666484   -3.8735070 
H     3.5800116   -2.9922801   -0.0310041 
H     4.1157122   -5.2140803   -0.9661761 
O    -2.8836249   -0.9959947   -2.6523114 
O     1.6353618    3.7333628   -1.6920324 
N    -0.8226031   -0.0200713   -2.7665309 
N    -0.3742918    2.6773101   -1.5181134 
C    -1.3494427    1.2432491   -3.3098776 
C    -0.4546305    2.4473260   -2.9676939 
C    -1.5341593    1.1025573   -4.8396733 
C    -0.9654054    3.7313024   -3.6657605 
C    -2.0542210    2.3870993   -5.4980736 
C    -1.1214161    3.5639668   -5.1825179 
C    -1.6551874   -1.1022613   -2.6313978 
C     0.6473004    3.4329511   -1.0083453 
C    -1.0063569   -2.4721306   -2.5517936 
C     0.5677720    3.9142759    0.4230572 
C    -0.4258435   -3.0523829   -1.3946535 
C     0.2711826    3.1182390    1.5618986 
C    -1.1257336   -3.2405700   -3.7272883 
C     0.9721219    5.2517036    0.6084166 
C     0.0664082   -4.3712666   -1.4710014 
C     0.4412926    3.6745149    2.8460301 
C    -0.6444760   -4.5526262   -3.7833022 
C     1.0829920    5.8073762    1.8865273 
C    -0.0374710   -5.1138445   -2.6526867 
C     0.8390508    5.0074172    3.0104018 
C     0.5007277   -3.2088150    1.4102847 
C    -2.0827746   -2.2169543    0.8356523 
C    -0.5304136    0.7974291    3.1366331 
C    -2.1140603    1.7434970    0.8797525 
C    -0.1009771   -4.4132775    1.8365332 
C    -2.2844036   -1.8981535    2.1961167 
C     0.5545272    0.0790718    3.6771023 
C    -2.7891769    2.9038550    1.3247090 
C     1.7251869   -2.8168866    1.9801862 
C    -3.1868638   -2.5728881    0.0371773 
C    -1.6956900    0.9740916    3.9093211 
C    -2.7704620    0.8629486    0.0021652 
C     0.5341382   -5.2174062    2.7912709 
C    -3.5743534   -1.9022382    2.7380795 
C     0.4782052   -0.4619935    4.9662551 
C    -4.1067047    3.1474908    0.9119318 
C     2.3570701   -3.6186167    2.9411957 
C    -4.4768382   -2.5731366    0.5885703 
C    -1.7678254    0.4336294    5.2012662 
C    -4.0843277    1.1110367   -0.4150466 
C     1.7640962   -4.8236256    3.3437257 
C    -4.6763631   -2.2299001    1.9328069 
C    -0.6865658   -0.2883367    5.7299904 
C    -4.7564982    2.2525058    0.0457797 
H    -2.3415964    1.3809569   -2.8451616 
H     0.5792037    2.2540220   -3.3085037 
H    -0.5548617    0.8298718   -5.2818732 
H    -2.2234283    0.2596212   -5.0205387 
H    -1.9431330    3.9972992   -3.2176463 
H    -0.2604153    4.5456560   -3.4280621 
H    -3.0714425    2.6074954   -5.1202118 
H    -2.1460902    2.2369792   -6.5880850 
H    -0.1283004    3.3837060   -5.6381732 
H    -1.5063139    4.5002786   -5.6230227 
H     0.1664472   -0.2181816   -2.9142846 
H    -1.2503794    2.6319627   -0.9918415 
H    -1.6109739   -2.7949212   -4.6020095 
H     1.2225455    5.8424584   -0.2779397 
H     0.5454009   -4.8230996   -0.5990463 
H     0.2569930    3.0568163    3.7296380 
H    -0.7398825   -5.1311500   -4.7076686 
H     1.3858920    6.8526712    2.0041732 
H     0.3608742   -6.1326017   -2.6849848 
H     0.9585160    5.4151768    4.0192659 
H    -1.0718855   -4.7145585    1.4289610 
H    -1.4301715   -1.6639437    2.8377477 
H     1.4542017   -0.0627422    3.0739884 
H    -2.2844163    3.6191924    1.9825569 
H     2.1690669   -1.8642255    1.6733207 
H    -3.0620507   -2.8259902   -1.0177073 
H    -2.5569316    1.5075898    3.4973728 
H    -2.2428646   -0.0096368   -0.3783293 
H     0.0622070   -6.1516254    3.1126994 
H    -3.7139635   -1.6506707    3.7943442 
H     1.3236731   -1.0294382    5.3683982 
H    -4.6243593    4.0464560    1.2625466 
H     3.3086970   -3.2983107    3.3787358 
H    -5.3283176   -2.8450980   -0.0436499 
H    -2.6791913    0.5688875    5.7930494 
H    -4.5556809    0.4109486   -1.1108556 
H     2.2530236   -5.4523285    4.0951316 
H    -5.6863150   -2.2281035    2.3558134 
H    -0.7534796   -0.7182986    6.7347031 
H    -5.7827153    2.4546680   -0.2784761 
