119
Energy =
C     2.8276513   -1.2657718   -0.7373552 
C     2.8541330    0.1503033   -0.6737086 
C     2.9675314    0.8333697    0.5595582 
H     2.7479917    0.7131799   -1.6100192 
Pd    0.9829689   -0.4012458    0.3563114 
P    -0.2323958    0.9405372    1.9453322 
P    -0.4556459   -2.3112273   -0.0806936 
H     3.2396787   -1.8107088    0.1255812 
H     3.2986986    0.2341614    1.4188967 
C     3.2531908   -3.2167293   -4.5328180 
C     2.2659638   -2.2307611   -4.3688329 
C     2.0916090   -1.6041425   -3.1313249 
C     2.8983816   -1.9692510   -2.0303221 
C     3.8677190   -2.9840059   -2.1966643 
C     4.0550119   -3.5904267   -3.4438574 
H     3.3873803   -3.7023682   -5.5048789 
H     1.6173249   -1.9603237   -5.2082007 
H     1.2901704   -0.8726866   -2.9914843 
H     4.4917986   -3.2797974   -1.3456747 
H     4.8222171   -4.3622838   -3.5645257 
C     3.6477165    5.0427780    1.0822678 
C     3.6412867    4.1755429    2.1848136 
C     3.3982868    2.8110595    2.0020801 
C     3.1633383    2.2808254    0.7119650 
C     3.1875746    3.1681463   -0.3907009 
C     3.4224542    4.5325066   -0.2067976 
H     3.8331660    6.1121417    1.2249063 
H     3.8181958    4.5655789    3.1916888 
H     3.3864124    2.1401886    2.8680310 
H     3.0381011    2.7879599   -1.4047997 
H     3.4375327    5.2013767   -1.0733162 
O    -1.1874864    4.4205480   -0.7760632 
O    -0.7941168   -0.4686942   -2.0517976 
N     0.0989994    2.5496586   -0.9469621 
N    -2.2930339    1.2495348   -1.8862638 
C    -0.0916416    2.3531368   -2.3845464 
C    -1.5885125    2.1955278   -2.7602643 
C     0.5362461    3.4679661   -3.2471306 
C    -1.7174304    1.8178470   -4.2497163 
C     0.4100406    3.1196468   -4.7400167 
C    -1.0564603    2.8853057   -5.1382789 
C    -0.4279332    3.5934270   -0.2555126 
C    -1.8905587   -0.0223945   -1.6568453 
C    -0.0095422    3.7673415    1.1906425 
C    -2.8290871   -0.9368907   -0.9359620 
C     0.1393770    2.7624423    2.1879375 
C    -2.2955053   -2.0358291   -0.2143894 
C     0.1501782    5.1226840    1.5474678 
C    -4.2231256   -0.8001135   -1.0785315 
C     0.4838943    3.1768586    3.4957018 
C    -3.1901472   -2.9537092    0.3665814 
C     0.4902421    5.5090010    2.8450134 
C    -5.0975557   -1.7402352   -0.5222348 
C     0.6603122    4.5249754    3.8243006 
C    -4.5758762   -2.8178807    0.2033205 
C    -2.0776893    0.9216146    1.8943013 
C     0.1512930    0.2729974    3.6317557 
C    -0.3377441   -3.5429272    1.3021516 
C    -0.1373905   -3.3985793   -1.5357801 
C    -2.7448032   -0.2501923    2.3129936 
C     1.4470398   -0.2284254    3.8749970 
C    -0.6430536   -4.9138450    1.1361241 
C     0.9563763   -4.2874691   -1.4953396 
C    -2.8401017    2.0312550    1.4770944 
C    -0.7779600    0.3012514    4.6924591 
C     0.0422854   -3.0864274    2.5768203 
C    -0.9804976   -3.3984351   -2.6634724 
C    -4.1430024   -0.2916172    2.3599195 
C     1.8070456   -0.7006259    5.1441028 
C    -0.5746534   -5.7902703    2.2274098 
C     1.1903878   -5.1709112   -2.5560878 
C    -4.2421679    1.9684781    1.4882475 
C    -0.4196561   -0.1824530    5.9588480 
C     0.1071704   -3.9622626    3.6700713 
C    -0.7404153   -4.2813634   -3.7238600 
C    -4.8967966    0.8149276    1.9415640 
C     0.8705696   -0.6836194    6.1888920 
C    -0.2024372   -5.3181447    3.4967852 
C     0.3437059   -5.1695286   -3.6736673 
H     0.4095750    1.4008907   -2.6127621 
H    -2.0682854    3.1706542   -2.5829703 
H     0.0287843    4.4233119   -3.0244403 
H     1.5969913    3.5891124   -2.9658066 
H    -1.2386981    0.8330993   -4.4089370 
H    -2.7871321    1.7074912   -4.5019123 
H     0.9976889    2.2040046   -4.9516405 
H     0.8495543    3.9263306   -5.3527679 
H    -1.6164965    3.8352820   -5.0395536 
H    -1.1251820    2.5854026   -6.1988724 
H     0.7037300    1.8856725   -0.4558460 
H    -3.1141429    1.5876232   -1.3877741 
H    -0.0159998    5.8696472    0.7664016 
H    -4.6267702    0.0279826   -1.6699877 
H     0.6106348    2.4356619    4.2861142 
H    -2.8078874   -3.7924061    0.9532828 
H     0.6167969    6.5688457    3.0875246 
H    -6.1779924   -1.6326441   -0.6597562 
H     0.9245565    4.7969190    4.8513835 
H    -5.2459128   -3.5615618    0.6469153 
H    -2.1706202   -1.1278140    2.6284110 
H     2.1722491   -0.2664158    3.0567725 
H    -0.9328958   -5.2983375    0.1532236 
H     1.6202566   -4.3022326   -0.6249453 
H    -2.3623198    2.9616077    1.1623565 
H    -1.7801988    0.7103122    4.5357199 
H     0.2984986   -2.0343945    2.7159726 
H    -1.8288287   -2.7126154   -2.7141122 
H    -4.6431720   -1.1980504    2.7131371 
H     2.8163773   -1.0896505    5.3127334 
H    -0.8125359   -6.8496197    2.0843326 
H     2.0437067   -5.8544803   -2.5114313 
H    -4.8198887    2.8417890    1.1672062 
H    -1.1528337   -0.1592493    6.7717153 
H     0.4067304   -3.5780459    4.6506005 
H    -1.4082309   -4.2763079   -4.5916796 
H    -5.9905712    0.7776818    1.9717858 
H     1.1458048   -1.0584254    7.1801376 
H    -0.1488454   -6.0091791    4.3445734 
H     0.5292795   -5.8594000   -4.5033427 
