119
Energy =
C     2.6579222   -1.1917522    1.6408207 
C     2.0140396   -2.1933218    0.8960771 
C     2.1233322   -2.2841723   -0.5273104 
H     1.3720425   -2.9093513    1.4234035 
Pd    1.0277011   -0.3888205    0.0036576 
P     0.5351726    0.2079922   -2.2462288 
P     0.2476321    1.4674714    1.3102283 
H     3.3844636   -0.5542829    1.1162125 
H     3.0178365   -1.8417097   -0.9845177 
C     2.9230567   -0.8842670    5.9122141 
C     2.1886953   -1.9385080    5.3404082 
C     2.0847413   -2.0510300    3.9533618 
C     2.7097507   -1.1059174    3.1011160 
C     3.4641176   -0.0655610    3.6929427 
C     3.5655336    0.0465796    5.0832945 
H     3.0018712   -0.7992347    7.0008617 
H     1.7012652   -2.6781049    5.9836410 
H     1.5188516   -2.8871892    3.5300197 
H     3.9713074    0.6600925    3.0489917 
H     4.1492120    0.8633747    5.5192945 
C     0.4663711   -5.4979869   -2.8659901 
C    -0.0073450   -5.2753398   -1.5632787 
C     0.5215688   -4.2375450   -0.7898683 
C     1.5308702   -3.3880092   -1.3055281 
C     1.9992431   -3.6315664   -2.6172682 
C     1.4774543   -4.6763265   -3.3860626 
H     0.0520299   -6.3113374   -3.4699893 
H    -0.7908172   -5.9164518   -1.1465800 
H     0.1391631   -4.0898726    0.2260459 
H     2.7856216   -2.9911179   -3.0302510 
H     1.8562854   -4.8458439   -4.3984514 
O    -3.3344594   -1.8679182   -2.4842075 
O    -4.2564528    1.9044110    0.6618934 
N    -1.6026745   -1.8555627   -0.9831883 
N    -2.5094725    0.4744365    0.3410927 
C    -2.3988898   -1.9602071    0.2486367 
C    -3.3280008   -0.7420708    0.4353994 
C    -3.1825044   -3.2839627    0.3421352 
C    -4.0591314   -0.8532192    1.7889737 
C    -3.9221193   -3.3859273    1.6847301 
C    -4.8402789   -2.1719224    1.8915182 
C    -2.1255512   -1.8750959   -2.2455235 
C    -3.0530964    1.7227019    0.4681971 
C    -1.1095491   -1.9147037   -3.3682226 
C    -2.1144732    2.9116590    0.4016041 
C     0.0710490   -1.1253389   -3.4663472 
C    -0.7209056    2.9368703    0.6956284 
C    -1.4522356   -2.7849949   -4.4205626 
C    -2.7698746    4.1234320    0.1063415 
C     0.8965994   -1.3035027   -4.5989329 
C    -0.0447100    4.1773157    0.6373919 
C    -0.6288009   -2.9373659   -5.5392646 
C    -2.0889859    5.3423434    0.0648258 
C     0.5574265   -2.1990521   -5.6202353 
C    -0.7135678    5.3660476    0.3228128 
C    -0.6827967    1.5541294   -2.5881048 
C     2.0882652    0.9334303   -2.9472664 
C     1.7829686    2.2677960    1.9493568 
C    -0.6904648    0.9635342    2.8110484 
C    -0.2480137    2.8921347   -2.4478998 
C     3.3188462    0.7496519   -2.2885749 
C     2.8697343    2.4151306    1.0607792 
C    -0.6157498   -0.3724378    3.2414462 
C    -2.0044454    1.3040731   -3.0089798 
C     2.0615650    1.6831552   -4.1458353 
C     1.8940611    2.7597494    3.2633383 
C    -1.4628819    1.8859047    3.5475024 
C    -1.0995597    3.9505207   -2.7807829 
C     4.5009156    1.2992417   -2.8076050 
C     4.0468641    3.0509523    1.4774406 
C    -1.2817095   -0.7850509    4.4019540 
C    -2.8644665    2.3726059   -3.3018117 
C     3.2422552    2.2284905   -4.6641533 
C     3.0742672    3.3961300    3.6769694 
C    -2.1404037    1.4666444    4.7008456 
C    -2.4115735    3.6944700   -3.2062388 
C     4.4638674    2.0394863   -3.9969028 
C     4.1504325    3.5434617    2.7891536 
C    -2.0475734    0.1346657    5.1332838 
H    -1.6547318   -1.9258501    1.0670201 
H    -4.0725978   -0.7394509   -0.3823471 
H    -3.8994067   -3.3227735   -0.4964437 
H    -2.4781640   -4.1251423    0.2098716 
H    -3.3090242   -0.7900478    2.5983115 
H    -4.7326517    0.0096362    1.8952678 
H    -3.1825292   -3.4307221    2.5100015 
H    -4.4990292   -4.3269361    1.7239375 
H    -5.6411796   -2.1853426    1.1274099 
H    -5.3412160   -2.2293595    2.8740717 
H    -0.6116788   -2.0915747   -0.9082494 
H    -1.6147287    0.3787658   -0.1491752 
H    -2.3921878   -3.3383274   -4.3353285 
H    -3.8473093    4.0698374   -0.0735987 
H     1.8212292   -0.7304589   -4.6951998 
H     1.0216124    4.2276754    0.8677824 
H    -0.9113549   -3.6284297   -6.3396980 
H    -2.6294134    6.2657521   -0.1669411 
H     1.2238063   -2.3080656   -6.4821185 
H    -0.1554652    6.3077750    0.2988217 
H     0.7679463    3.1102548   -2.1047763 
H     3.3482822    0.1814465   -1.3531010 
H     2.7852382    2.0434966    0.0329419 
H    -0.0405303   -1.0905881    2.6506217 
H    -2.3852312    0.2896399   -3.1368905 
H     1.1145838    1.8403070   -4.6718898 
H     1.0658662    2.6392239    3.9678567 
H    -1.5478639    2.9255570    3.2154216 
H    -0.7388987    4.9793238   -2.6915786 
H     5.4479912    1.1488896   -2.2790224 
H     4.8807330    3.1648994    0.7767387 
H    -1.2125298   -1.8282552    4.7266886 
H    -3.8887788    2.1592241   -3.6226144 
H     3.2078336    2.8061263   -5.5935996 
H     3.1533779    3.7723039    4.7021907 
H    -2.7470573    2.1850673    5.2614107 
H    -3.0800070    4.5247053   -3.4556483 
H     5.3836376    2.4714719   -4.4043972 
H     5.0692370    4.0400807    3.1176229 
H    -2.5805448   -0.1872685    6.0337022 
