119
Energy =
C     2.9367990    1.1320677    0.6544618 
C     3.1572343   -0.0709741   -0.0752323 
C     2.6272923   -0.1979578   -1.3804653 
H     3.6809850   -0.9168697    0.3863211 
Pd    0.9772839    0.0304695    0.2458222 
P    -0.4107411   -1.8580456   -0.0367165 
P    -0.3503702    1.3294917    1.7315286 
H     2.7383487    2.0321089    0.0583140 
H     2.3244458    0.7478211   -1.8582162 
C     4.3050485    1.9407823    4.6521572 
C     3.7441335    2.9555931    3.8625917 
C     3.3207680    2.6786780    2.5580839 
C     3.4273552    1.3750390    2.0202861 
C     4.0087710    0.3655542    2.8247315 
C     4.4467456    0.6473719    4.1216931 
H     4.6404114    2.1565410    5.6716935 
H     3.6437154    3.9704535    4.2612190 
H     2.9038286    3.4782669    1.9377396 
H     4.1112963   -0.6545515    2.4394503 
H     4.8986140   -0.1456634    4.7268825 
C     3.3371647   -3.3446402   -4.2043232 
C     2.9008640   -2.0813308   -4.6295052 
C     2.6511052   -1.0779646   -3.6884158 
C     2.8362534   -1.3151606   -2.3040881 
C     3.2616919   -2.6001509   -1.8922429 
C     3.5161909   -3.5990216   -2.8336076 
H     3.5338591   -4.1336980   -4.9371689 
H     2.7600527   -1.8767973   -5.6955786 
H     2.3291309   -0.0852353   -4.0220371 
H     3.3889084   -2.8200107   -0.8274396 
H     3.8438031   -4.5881965   -2.4999035 
O    -2.0839284   -2.0126788   -3.8218731 
O     1.6507099    2.8791603   -1.7507724 
N    -0.5676575   -0.5407389   -2.9634516 
N    -0.5107249    2.1550023   -1.6060588 
C    -1.2385616    0.6306185   -3.5358228 
C    -0.5951656    1.9519677   -3.0706230 
C    -1.2033727    0.5874159   -5.0853701 
C    -1.3265546    3.1626246   -3.6957807 
C    -1.9459699    1.7746592   -5.7113898 
C    -1.3530583    3.1049675   -5.2298475 
C    -1.0537141   -1.8043075   -3.1806260 
C     0.5935656    2.8178107   -1.1107083 
C    -0.2723737   -2.9807047   -2.6261751 
C     0.4889010    3.5920699    0.1896504 
C     0.0518430   -3.1682049   -1.2563529 
C     0.1134310    3.1031427    1.4688417 
C    -0.0358243   -4.0275993   -3.5352649 
C     0.9192165    4.9318302    0.0665620 
C     0.6054718   -4.3975381   -0.8425502 
C     0.1624707    3.9791110    2.5734367 
C     0.5372372   -5.2338281   -3.1180867 
C     0.9416928    5.7925448    1.1682758 
C     0.8501564   -5.4216965   -1.7654443 
C     0.5597945    5.3130960    2.4286038 
C    -0.1786444   -2.6421890    1.6159039 
C    -2.2166809   -1.7887902   -0.3596526 
C    -0.1127604    0.9523911    3.5141056 
C    -2.1923427    1.4084270    1.6379504 
C    -1.2437584   -2.9196479    2.4937415 
C    -2.9868675   -2.9715211   -0.3610232 
C    -0.9582687    1.4870681    4.5136797 
C    -2.9435291    0.3638446    2.2176923 
C     1.1461377   -2.8825704    2.0500537 
C    -2.8015806   -0.5818406   -0.7735729 
C     0.9132199    0.0659900    3.8809663 
C    -2.8690966    2.4754917    1.0131703 
C    -0.9882007   -3.4220885    3.7792630 
C    -4.3338995   -2.9266085   -0.7398693 
C    -0.7473848    1.1583212    5.8579085 
C    -4.3413077    0.3839140    2.1671422 
C     1.3950935   -3.4068423    3.3234251 
C    -4.1413994   -0.5435906   -1.1759551 
C     1.1213715   -0.2600792    5.2276299 
C    -4.2716534    2.4832733    0.9505396 
C     0.3266308   -3.6703784    4.1954995 
C    -4.9107339   -1.7147767   -1.1520026 
C     0.2962615    0.2890004    6.2176100 
C    -5.0092367    1.4385574    1.5254730 
H    -2.2997106    0.5923625   -3.2196146 
H     0.4547432    1.9617066   -3.4088261 
H    -0.1425766    0.5892649   -5.4051050 
H    -1.6487975   -0.3655342   -5.4079564 
H    -2.3634476    3.1863359   -3.3034980 
H    -0.8265715    4.0844204   -3.3487250 
H    -3.0172412    1.7217445   -5.4347718 
H    -1.9025460    1.7051862   -6.8123721 
H    -0.3191775    3.2085716   -5.6118229 
H    -1.9257301    3.9625859   -5.6249161 
H     0.3055400   -0.4206915   -2.4497186 
H    -1.3945466    2.3110099   -1.1160727 
H    -0.3317307   -3.8842263   -4.5787107 
H     1.2486475    5.2833119   -0.9156959 
H     0.8204318   -4.5721124    0.2151402 
H    -0.0805514    3.6040753    3.5705935 
H     0.7197381   -6.0319305   -3.8447502 
H     1.2718769    6.8286878    1.0439270 
H     1.2733351   -6.3707940   -1.4204702 
H     0.5907023    5.9679285    3.3053072 
H    -2.2758439   -2.7466124    2.1749004 
H    -2.5274567   -3.9284924   -0.0902628 
H    -1.7917170    2.1429153    4.2405396 
H    -2.4275442   -0.4582608    2.7224588 
H     1.9859239   -2.6512183    1.3844777 
H    -2.1846146    0.3169717   -0.8007593 
H     1.5398736   -0.3792482    3.1051789 
H    -2.3084570    3.3282791    0.6123592 
H    -1.8252138   -3.6254621    4.4551597 
H    -4.9283763   -3.8459125   -0.7400014 
H    -1.4043701    1.5765902    6.6275441 
H    -4.9118610   -0.4318860    2.6223010 
H     2.4257754   -3.5969000    3.6410239 
H    -4.5827878    0.4011817   -1.5077142 
H     1.9269745   -0.9500808    5.4961383 
H    -4.7870612    3.3207374    0.4686681 
H     0.5199723   -4.0664731    5.1974976 
H    -5.9580374   -1.6893980   -1.4701232 
H     0.4554375    0.0333741    7.2704318 
H    -6.1029476    1.4499420    1.4813530 
