101
Energy =
C     1.6872223   -1.3518526   -1.7965064 
C     2.5009907   -1.0614878   -0.6708037 
C     2.2061905   -1.6677062    0.5851730 
H     3.2228395   -0.2378277   -0.7265800 
Pd    0.4434511   -0.5126677   -0.1446834 
P    -0.9484414   -0.3356211    1.7090679 
P    -1.0929841    0.8359479   -1.2420490 
H     1.1543609   -2.3156954   -1.7844326 
H     1.7052626   -2.6472371    0.5641750 
C     1.8049358    0.4981530   -5.6787197 
C     1.2131868   -0.7615355   -5.5025020 
C     1.2003227   -1.3577094   -4.2344202 
C     1.7733516   -0.7062192   -3.1181824 
C     2.3744843    0.5578481   -3.3122995 
C     2.3902549    1.1501454   -4.5790403 
H     1.8166937    0.9676923   -6.6675823 
H     0.7638663   -1.2827917   -6.3540109 
H     0.7512907   -2.3485121   -4.1017775 
H     2.8081312    1.0951415   -2.4639162 
H     2.8592817    2.1310738   -4.7096156 
C     4.1454768   -0.7702955    4.3305616 
C     4.4124853    0.0215704    3.2012345 
C     3.7851639   -0.2494578    1.9796877 
C     2.8831581   -1.3313723    1.8537356 
C     2.6302483   -2.1238383    2.9979534 
C     3.2486873   -1.8446793    4.2231798 
H     4.6353338   -0.5533111    5.2850027 
H     5.1140451    0.8593987    3.2740028 
H     3.9998456    0.3910595    1.1193083 
H     1.9448892   -2.9738457    2.9129203 
H     3.0393618   -2.4738447    5.0946128 
C    -1.7650819    0.6372276   -2.9933573 
C    -0.5423620    2.6468858   -1.4997544 
C    -0.5645786   -0.1330358    3.5371997 
C    -1.9553299   -1.9341768    1.9523743 
C    -2.6064425    0.9472754   -0.1506113 
C    -2.2142495    0.9877158    1.3329506 
C    -2.0370507    2.0926250   -3.4353981 
C    -0.8165549    2.9129619   -3.0010233 
C    -1.7764731   -0.8163763    4.2111977 
C    -1.9947417   -2.1564995    3.4895398 
C    -2.8849715   -0.3702010   -3.1267732 
C     0.8618650    2.9643479   -1.0036265 
C    -0.2089591    1.2780807    3.9484295 
C    -1.3782677   -3.0467658    1.0873648 
C    -4.2311331   -0.0389581   -2.8654545 
C     1.8250414    3.5613659   -1.8400909 
C     1.1481883    1.6546540    4.0014348 
C    -0.4664987   -4.0003344    1.5784130 
C    -2.5859932   -1.6923691   -3.5128856 
C     1.2289910    2.6854860    0.3307276 
C    -1.1883694    2.2402397    4.2705979 
C    -1.6929602   -3.0780415   -0.2893463 
C    -5.2419032   -1.0050351   -2.9728792 
C     3.1224154    3.8301752   -1.3758700 
C     1.5172374    2.9567590    4.3636007 
C     0.1344690   -4.9377196    0.7228222 
C    -3.5950078   -2.6585657   -3.6243762 
C     2.5227041    2.9505723    0.7967761 
C    -0.8185841    3.5457983    4.6254553 
C    -1.0971481   -4.0145936   -1.1442906 
C    -4.9277596   -2.3196549   -3.3480306 
C     3.4816427    3.5135174   -0.0591827 
C     0.5350162    3.9099833    4.6707528 
C    -0.1708377   -4.9432250   -0.6451221 
H    -0.8872797    0.2661266   -3.5555910 
H    -1.2647946    3.2298250   -0.8958178 
H     0.3265623   -0.7738735    3.6805134 
H    -2.9688703   -1.6931691    1.5837515 
H    -3.2190475    1.8239665   -0.4258828 
H    -3.2084064    0.0472537   -0.3740455 
H    -1.7430258    1.9526109    1.5971382 
H    -3.1005329    0.8710706    1.9811593 
H    -2.9542394    2.4831060   -2.9575651 
H    -2.1947207    2.1368985   -4.5269656 
H     0.0533659    2.5791886   -3.5941600 
H    -0.9519118    3.9925084   -3.1858711 
H    -2.6768280   -0.1806288    4.1274372 
H    -1.5859640   -0.9597104    5.2892664 
H    -1.1844691   -2.8418587    3.7878874 
H    -2.9427837   -2.6370220    3.7841672 
H    -4.5013360    0.9842039   -2.5847231 
H     1.5737060    3.8200040   -2.8720455 
H     1.9193490    0.9147192    3.7642022 
H    -0.2124540   -4.0243757    2.6421406 
H    -1.5468096   -1.9559405   -3.7343482 
H     0.4976866    2.2656478    1.0304607 
H    -2.2500225    1.9725668    4.2592821 
H    -2.4180159   -2.3671684   -0.7028661 
H    -6.2813160   -0.7258432   -2.7708787 
H     3.8514537    4.2921427   -2.0499501 
H     2.5779415    3.2254140    4.4138591 
H     0.8399889   -5.6681064    1.1324158 
H    -3.3425749   -3.6779651   -3.9353415 
H     2.7725438    2.7203766    1.8355931 
H    -1.5926476    4.2782868    4.8773962 
H    -1.3665476   -4.0217780   -2.2044510 
H    -5.7182922   -3.0717147   -3.4366366 
H     4.4938742    3.7208318    0.3033373 
H     0.8222810    4.9275060    4.9546136 
H     0.2944381   -5.6757408   -1.3125392 
