101
Energy =
C     1.8842030   -0.8945166   -2.1790458 
C     2.5998062   -0.9036122   -0.9580806 
C     2.2024626   -1.8137779    0.0742945 
H     3.3117464   -0.0969675   -0.7434566 
Pd    0.5056640   -0.4954769   -0.4421964 
P    -1.0064621   -0.8005609    1.2972626 
P    -0.8707917    1.2068390   -1.1965893 
H     1.3105308   -1.8076214   -2.4089440 
H     1.8003361   -2.7880248   -0.2348857 
C     2.3183633    1.6298584   -5.6293173 
C     1.4388822    0.5355858   -5.6416432 
C     1.3190501   -0.2736273   -4.5063902 
C     2.0637355   -0.0002119   -3.3325277 
C     2.9395094    1.1082927   -3.3333381 
C     3.0682385    1.9067450   -4.4743549 
H     2.4249972    2.2599991   -6.5182236 
H     0.8570569    0.3057060   -6.5401374 
H     0.6483920   -1.1410304   -4.5250212 
H     3.5167709    1.3596031   -2.4384088 
H     3.7559868    2.7575232   -4.4582012 
C     3.3548802   -1.6261280    4.2177720 
C     3.6169529   -0.5326056    3.3752773 
C     3.2743362   -0.5875112    2.0192454 
C     2.6660206   -1.7425630    1.4726366 
C     2.4251017   -2.8416725    2.3277259 
C     2.7614483   -2.7817607    3.6856404 
H     3.6163711   -1.5774635    5.2796147 
H     4.0828650    0.3713935    3.7812382 
H     3.4653913    0.2825770    1.3823740 
H     1.9584753   -3.7432398    1.9195553 
H     2.5608451   -3.6439459    4.3304264 
C    -1.8786698    0.8561986   -2.7436425 
C    -0.3092254    2.9195691   -1.7690836 
C    -0.3950961   -0.4563420    3.0553584 
C    -1.8801899   -2.4140743    1.7368970 
C    -2.0578670    1.5873464    0.1935226 
C    -2.4679252    0.3232272    0.9584205 
C    -2.1091795    2.2450240   -3.3673910 
C    -0.7678718    2.9934486   -3.2489696 
C    -1.1264289   -1.4915684    3.9603302 
C    -2.3053182   -2.1364977    3.1991726 
C    -3.0287708   -0.0620743   -2.4014651 
C     1.1387007    3.2769937   -1.4726277 
C    -0.5371506    1.0198196    3.3609266 
C    -1.0342106   -3.6526909    1.4775182 
C    -4.3243743    0.4102569   -2.1174074 
C     1.7888393    2.7698171   -0.3302536 
C     0.5001505    1.8940786    2.9747543 
C    -0.6653945   -4.5564208    2.4911617 
C    -2.7631006   -1.4397148   -2.2370078 
C     1.8486090    4.1693067   -2.2990248 
C    -1.6989706    1.5719065    3.9367692 
C    -0.6440143   -3.9445810    0.1524561 
C    -5.3187658   -0.4673956   -1.6561288 
C     3.1110585    3.1238704   -0.0291489 
C     0.3710715    3.2812258    3.1256179 
C     0.0818846   -5.7076230    2.1927078 
C    -3.7524670   -2.3162584   -1.7735659 
C     3.1710048    4.5288314   -1.9997764 
C    -1.8282274    2.9601951    4.0955892 
C     0.1039024   -5.0892744   -0.1489584 
C    -5.0350083   -1.8288640   -1.4719762 
C     3.8120111    4.0032757   -0.8684177 
C    -0.8001332    3.8202494    3.6802479 
C     0.4760433   -5.9758674    0.8750593 
H    -1.1601062    0.3125983   -3.3857141 
H    -0.9543032    3.6026668   -1.1797186 
H     0.6799454   -0.6985952    3.0132048 
H    -2.7640593   -2.4616524    1.0747024 
H    -1.5141203    2.2825998    0.8611632 
H    -2.9438106    2.1189306   -0.1983029 
H    -2.9749897    0.5910788    1.8998891 
H    -3.1661690   -0.2837366    0.3548318 
H    -2.8945373    2.7981488   -2.8192063 
H    -2.4414809    2.1566735   -4.4164026 
H    -0.0084652    2.5121508   -3.8927394 
H    -0.8647234    4.0425353   -3.5763078 
H    -1.4671071   -1.0235340    4.8988491 
H    -0.3921492   -2.2656947    4.2379234 
H    -2.6596607   -3.0578018    3.6941628 
H    -3.1665505   -1.4445950    3.1852625 
H    -4.5658119    1.4694201   -2.2532124 
H     1.2518239    2.0847062    0.3359223 
H     1.4209185    1.4675754    2.5620332 
H    -0.9618157   -4.3770090    3.5284221 
H    -1.7613883   -1.8197319   -2.4733572 
H     1.3747620    4.5860506   -3.1926349 
H    -2.5115527    0.9174665    4.2722901 
H    -0.9355038   -3.2581493   -0.6513057 
H    -6.3214505   -0.0833514   -1.4414717 
H     3.5919622    2.7196368    0.8687134 
H     1.1871899    3.9402562    2.8110778 
H     0.3568197   -6.3959680    2.9986107 
H    -3.5249014   -3.3807398   -1.6517523 
H     3.7042905    5.2220178   -2.6588479 
H    -2.7367003    3.3708889    4.5485640 
H     0.3907873   -5.2961210   -1.1857028 
H    -5.8128061   -2.5097695   -1.1115877 
H     4.8449908    4.2832976   -0.6381318 
H    -0.9053051    4.9031272    3.8023501 
H     1.0598965   -6.8725750    0.6444577 
