101
Energy =
C     2.0989799   -1.4154085   -1.8433086 
C     2.8885190   -0.8561328   -0.8111614 
C     2.7786416   -1.3669043    0.5214249 
H     3.4377610    0.0769047   -0.9902332 
Pd    0.8084261   -0.5953581   -0.1648118 
P    -0.4220445   -0.4832524    1.7953699 
P    -1.0375167    0.3944025   -1.1487293 
H     1.6785269   -2.4164512   -1.6553089 
H     2.5707317   -2.4410793    0.6204379 
C     1.8538668   -0.2656988   -5.9816249 
C     1.0873059   -1.3298672   -5.4819714 
C     1.1916249   -1.6959396   -4.1347574 
C     2.0532023   -0.9990595   -3.2539084 
C     2.8397529    0.0521755   -3.7794463 
C     2.7370673    0.4154231   -5.1268933 
H     1.7778052    0.0209997   -7.0352979 
H     0.4118205   -1.8799117   -6.1451708 
H     0.6025251   -2.5369875   -3.7501960 
H     3.5469777    0.5805259   -3.1337925 
H     3.3576214    1.2288254   -5.5171896 
C     4.4744837    0.4504969    4.0384354 
C     4.2194243   -0.9287507    4.0010616 
C     3.6872128   -1.5158611    2.8448893 
C     3.3922882   -0.7346169    1.7044196 
C     3.6489890    0.6556154    1.7578826 
C     4.1911401    1.2371943    2.9088094 
H     4.8897629    0.9101316    4.9408606 
H     4.4425360   -1.5520996    4.8732034 
H     3.5044316   -2.5963274    2.8191412 
H     3.3898587    1.2923445    0.9060478 
H     4.3828994    2.3155134    2.9288109 
C    -1.6489468    0.0233078   -2.8946532 
C    -0.8330749    2.2670715   -1.3743060 
C     0.3391744   -0.0055566    3.4599601 
C    -1.0244284   -2.1733268    2.3758662 
C    -2.4645319    0.2427748    0.0397752 
C    -1.9621157    0.5181266    1.4692686 
C    -1.1490242    1.2534571   -3.6931673 
C    -1.2718593    2.5375010   -2.8448936 
C     0.1139467   -1.2485285    4.3659419 
C     0.0061071   -2.5011633    3.4796212 
C    -3.1267603   -0.3155925   -2.9290206 
C     0.5548983    2.7459430   -0.9865615 
C    -0.1370762    1.3366180    3.9728541 
C    -1.2344481   -3.1631847    1.2511549 
C    -3.5150458   -1.6490325   -2.6754214 
C     0.7696417    3.3455495    0.2700748 
C     0.6744894    2.4737123    3.7891583 
C    -2.5358893   -3.4262424    0.7801043 
C    -4.1343557    0.6400491   -3.1680573 
C     1.6510964    2.6133984   -1.8621207 
C    -1.3952812    1.5014950    4.5882473 
C    -0.1522217   -3.8067685    0.6162975 
C    -4.8668038   -2.0143756   -2.6528283 
C     2.0388460    3.8175875    0.6341379 
C     0.2413382    3.7410411    4.2033104 
C    -2.7503499   -4.2919226   -0.3023932 
C    -5.4887840    0.2737186   -3.1490938 
C     2.9218706    3.0797077   -1.4974642 
C    -1.8296171    2.7677092    5.0039147 
C    -0.3620646   -4.6661942   -0.4706608 
C    -5.8612139   -1.0521664   -2.8866774 
C     3.1209530    3.6891953   -0.2487675 
C    -1.0143424    3.8933906    4.8098518 
C    -1.6632506   -4.9074176   -0.9394848 
H    -1.0842500   -0.8667856   -3.2159283 
H    -1.5547486    2.7294850   -0.6791285 
H     1.4153672    0.0690020    3.2283478 
H    -1.9986150   -1.9754422    2.8624334 
H    -3.2739769    0.9339852   -0.2531807 
H    -2.8558164   -0.7849187   -0.0599734 
H    -1.6885649    1.5801869    1.6071426 
H    -2.7341744    0.2832825    2.2218148 
H    -1.7007478    1.3419485   -4.6451460 
H    -0.0904484    1.0757497   -3.9557052 
H    -0.6721783    3.3566964   -3.2764883 
H    -2.3183214    2.8842099   -2.8340113 
H    -0.8195187   -1.1321950    4.9440593 
H     0.9401932   -1.3279212    5.0923981 
H     0.9893375   -2.7277576    3.0276549 
H    -0.3066163   -3.3913035    4.0521086 
H    -2.7456238   -2.4086827   -2.4931986 
H    -0.0660726    3.4634925    0.9694926 
H     1.6557443    2.3528109    3.3192851 
H    -3.3943592   -2.9541151    1.2725619 
H    -3.8707840    1.6794475   -3.3844126 
H     1.5121639    2.1527702   -2.8445934 
H    -2.0467373    0.6349218    4.7495836 
H     0.8650429   -3.6470560    0.9854044 
H    -5.1448523   -3.0565297   -2.4626733 
H     2.1779956    4.2987154    1.6076479 
H     0.8902358    4.6119765    4.0600005 
H    -3.7718459   -4.4889724   -0.6433688 
H    -6.2555764    1.0303490   -3.3458393 
H     3.7578456    2.9829770   -2.1989847 
H    -2.8076612    2.8750586    5.4845939 
H     0.4926101   -5.1618932   -0.9438283 
H    -6.9185279   -1.3357417   -2.8743259 
H     4.1102654    4.0659981    0.0303394 
H    -1.3531415    4.8815379    5.1375006 
H    -1.8291399   -5.5860146   -1.7825433 
