101
Energy =
C     1.7627393   -1.3333240   -1.8167715 
C     2.5601021   -1.1479332   -0.6578878 
C     2.2189312   -1.8600038    0.5333566 
H     3.2973822   -0.3355802   -0.6289071 
Pd    0.5191389   -0.5882426   -0.1049218 
P    -0.8281501   -0.5546769    1.7769208 
P    -1.0450255    0.8171580   -1.0693711 
H     1.2159143   -2.2875870   -1.8796156 
H     1.7326254   -2.8391987    0.4072061 
C     1.9009687    0.7674104   -5.5641932 
C     1.3430198   -0.5169643   -5.4813775 
C     1.3225362   -1.1916936   -4.2538907 
C     1.8582536   -0.5965625   -3.0874459 
C     2.4126263    0.7003164   -3.1842291 
C     2.4355579    1.3695451   -4.4117956 
H     1.9207493    1.2980799   -6.5215911 
H     0.9235695   -0.9943453   -6.3728204 
H     0.8901514   -2.1970970   -4.1922380 
H     2.7985405    1.2020416   -2.2907268 
H     2.8653993    2.3744240   -4.4665122 
C     3.8467345   -1.2027923    4.4697548 
C     3.1651435   -2.3901513    4.1624176 
C     2.6615211   -2.5992211    2.8717586 
C     2.8182280   -1.6230086    1.8614513 
C     3.5122303   -0.4341456    2.1850894 
C     4.0240618   -0.2300913    3.4714839 
H     4.2439372   -1.0380587    5.4762881 
H     3.0332666   -3.1611856    4.9289132 
H     2.1419078   -3.5319817    2.6305320 
H     3.6383231    0.3447508    1.4264631 
H     4.5589419    0.6974488    3.7016574 
C    -1.5021536    0.8019353   -2.9026072 
C    -0.7545773    2.6829394   -0.9675647 
C    -0.2946913   -0.1714273    3.5441313 
C    -1.5644415   -2.2586231    2.2000162 
C    -2.6183076    0.5999915   -0.0784660 
C    -2.2785194    0.5728060    1.4224441 
C    -1.5068503    2.2957080   -3.3370522 
C    -1.6634517    3.2080445   -2.1030622 
C    -1.2070600   -1.0878113    4.3894677 
C    -1.2110596   -2.4585802    3.6950786 
C    -2.7555177   -0.0215676   -3.1155050 
C     0.7243138    3.0467067   -1.0279309 
C    -0.2519446    1.3106763    3.8402900 
C    -1.1100128   -3.3283594    1.2176507 
C    -4.0470095    0.5407212   -3.1051105 
C     1.2861712    3.8180514   -2.0610904 
C     0.9263089    2.0320612    3.5575629 
C    -0.3245684   -4.4294387    1.6041470 
C    -2.6314901   -1.4199043   -3.2527705 
C     1.5671322    2.6305556    0.0256867 
C    -1.3677251    2.0152224    4.3367704 
C    -1.4462938   -3.2008062   -0.1490353 
C    -5.1822239   -0.2749448   -3.2229708 
C     2.6508210    4.1509529   -2.0513196 
C     0.9849084    3.4192183    3.7450781 
C     0.1517614   -5.3481016    0.6532600 
C    -3.7645311   -2.2368829   -3.3637794 
C     2.9270691    2.9621195    0.0390034 
C    -1.3073299    3.4029848    4.5333640 
C    -0.9791076   -4.1189527   -1.0977450 
C    -5.0463117   -1.6657348   -3.3459083 
C     3.4795192    3.7188469   -1.0077774 
C    -0.1347501    4.1110920    4.2310349 
C    -0.1621497   -5.1904617   -0.7029235 
H    -0.6603058    0.2816218   -3.3883126 
H    -1.1393667    3.0030098    0.0182727 
H     0.7357237   -0.5736731    3.5855712 
H    -2.6584887   -2.1257073    2.1000020 
H    -3.3382002    1.4047673   -0.3081317 
H    -3.0818175   -0.3460100   -0.4108527 
H    -1.9683030    1.5749030    1.7719842 
H    -3.1542761    0.2778762    2.0272292 
H    -2.2991655    2.4836156   -4.0809903 
H    -0.5448384    2.5020237   -3.8345810 
H    -1.4396393    4.2635471   -2.3378392 
H    -2.7114536    3.1864778   -1.7528419 
H    -2.2340848   -0.6815528    4.4387927 
H    -0.8323781   -1.1542687    5.4256799 
H    -0.1973091   -2.8869262    3.7803823 
H    -1.9111137   -3.1673521    4.1696783 
H    -4.1754076    1.6244136   -3.0076664 
H     0.6650799    4.1767160   -2.8867232 
H     1.8054094    1.4885919    3.1948570 
H    -0.0783594   -4.5870622    2.6578193 
H    -1.6289329   -1.8624403   -3.2771085 
H     1.1426692    2.0598692    0.8596981 
H    -2.2929679    1.4821754    4.5793846 
H    -2.0904322   -2.3779303   -0.4801959 
H    -6.1783195    0.1799567   -3.2195583 
H     3.0639688    4.7554949   -2.8655434 
H     1.9087400    3.9601550    3.5144750 
H     0.7649585   -6.1941226    0.9805928 
H    -3.6480111   -3.3204775   -3.4734132 
H     3.5554169    2.6469203    0.8790839 
H    -2.1812531    3.9319916    4.9278438 
H    -1.2591774   -4.0007671   -2.1494402 
H    -5.9338157   -2.2999933   -3.4378126 
H     4.5426192    3.9799426   -1.0013410 
H    -0.0909876    5.1944237    4.3828941 
H     0.2085659   -5.9065764   -1.4432531 
