101
Energy =
C     1.8769558   -1.5583785   -1.9056025 
C     2.6684676   -1.1516989   -0.8046615 
C     2.3833188   -1.6741190    0.4958332 
H     3.3616916   -0.3074230   -0.9101830 
Pd    0.6035141   -0.6126407   -0.2804767 
P    -0.6751882   -0.4254794    1.6400034 
P    -1.0722797    0.6131651   -1.2926770 
H     1.3162118   -2.4975849   -1.7786768 
H     1.9858314   -2.6982363    0.5504039 
C     2.0429875   -0.2434330   -5.9992149 
C     1.1179984   -1.2167944   -5.5905221 
C     1.0916884   -1.6409198   -4.2566662 
C     1.9782220   -1.0941074   -3.2980031 
C     2.9238101   -0.1368279   -3.7330159 
C     2.9516746    0.2853471   -5.0669528 
H     2.0689321    0.0886965   -7.0419351 
H     0.4206862   -1.6509152   -6.3144100 
H     0.3786376   -2.4127821   -3.9437615 
H     3.6515438    0.2713872   -3.0258183 
H     3.6935427    1.0251319   -5.3853799 
C     4.0170621   -0.1695164    4.1855132 
C     3.6180852   -1.5101424    4.0762199 
C     3.1068426   -1.9981545    2.8653369 
C     2.9834249   -1.1531209    1.7398495 
C     3.3881823    0.1977979    1.8637632 
C     3.9026963    0.6803624    3.0715126 
H     4.4124646    0.2124814    5.1320538 
H     3.7078622   -2.1803810    4.9375841 
H     2.7990180   -3.0459497    2.7821095 
H     3.2591100    0.8861462    1.0215376 
H     4.2036309    1.7306896    3.1490157 
C    -1.6577379    0.3267425   -3.0629866 
C    -0.6672513    2.4556183   -1.4812079 
C    -0.0030165   -0.0989618    3.3785777 
C    -1.5691022   -2.0439432    2.0536677 
C    -2.5491941    0.5974509   -0.1495482 
C    -2.0696106    0.7716655    1.3032100 
C    -1.0004176    1.5040508   -3.8285171 
C    -0.9999228    2.7866230   -2.9682497 
C    -0.4032062   -1.3611057    4.1933421 
C    -1.6650189   -2.0202280    3.5978967 
C    -3.1592957    0.1409112   -3.1483605 
C     0.7417576    2.7725828   -1.0137216 
C    -0.4484029    1.2523104    3.8997519 
C    -0.8576646   -3.2144575    1.3930091 
C    -4.0592418    1.2055929   -3.3537198 
C     1.8662854    2.4706114   -1.8075751 
C    -1.6612035    1.4402125    4.5926741 
C     0.0331781   -4.0626605    2.0745317 
C    -3.6885860   -1.1558763   -2.9680015 
C     0.9493453    3.3724351    0.2433245 
C     0.3615010    2.3774357    3.6428541 
C    -1.0585215   -3.4287841    0.0107948 
C    -5.4439883    0.9801967   -3.3717375 
C     3.1605257    2.7682240   -1.3594926 
C    -2.0551318    2.7197805    5.0106929 
C     0.7248637   -5.0774076    1.3911194 
C    -5.0709733   -1.3820315   -2.9808399 
C     2.2438827    3.6711978    0.6931318 
C    -0.0335385    3.6570017    4.0558997 
C    -0.3741437   -4.4421932   -0.6719668 
C    -5.9556552   -0.3109877   -3.1795292 
C     3.3559217    3.3710254   -0.1067063 
C    -1.2468100    3.8336484    4.7386376 
C     0.5328725   -5.2654010    0.0153704 
H    -1.1760363   -0.6137833   -3.3767233 
H    -1.3709623    2.9848112   -0.8160866 
H     1.0915334   -0.0749949    3.2536986 
H    -2.5751620   -1.9622256    1.6051394 
H    -3.2636734    1.3857271   -0.4447628 
H    -3.0638117   -0.3701206   -0.2940700 
H    -1.6694928    1.7864331    1.4798793 
H    -2.8905254    0.6180972    2.0250476 
H    -1.5108240    1.6651002   -4.7939430 
H     0.0383735    1.2101220   -4.0642700 
H    -0.2812456    3.5249323   -3.3625271 
H    -1.9929870    3.2643534   -3.0011362 
H    -0.5506263   -1.0979868    5.2546020 
H     0.4452341   -2.0646024    4.1545884 
H    -1.8210903   -3.0377092    3.9978374 
H    -2.5582096   -1.4338053    3.8776078 
H    -3.6851169    2.2213070   -3.5124258 
H     1.7327461    2.0054900   -2.7888294 
H    -2.3064326    0.5844169    4.8183956 
H     0.1984693   -3.9407699    3.1487398 
H    -3.0024427   -2.0008882   -2.8273413 
H     0.0896168    3.6211040    0.8761850 
H     1.3126687    2.2370903    3.1184756 
H    -1.7709419   -2.7965746   -0.5337215 
H    -6.1255608    1.8203227   -3.5413674 
H     4.0219115    2.5420276   -1.9975210 
H    -2.9972640    2.8458264    5.5544079 
H     1.4145665   -5.7256966    1.9416758 
H    -5.4580633   -2.3976890   -2.8468874 
H     2.3824567    4.1524404    1.6671773 
H     0.6127900    4.5184449    3.8543677 
H    -0.5551765   -4.5969986   -1.7413445 
H    -7.0365523   -0.4836687   -3.1949088 
H     4.3666259    3.6115071    0.2386409 
H    -1.5556404    4.8314308    5.0665999 
H     1.0717210   -6.0573501   -0.5143051 
