101
Energy =
C     1.7885112   -1.1070268   -1.9807796 
C     2.5587167   -1.0630256   -0.7913110 
C     2.1819691   -1.8876198    0.3178764 
H     3.3019991   -0.2671455   -0.6533488 
Pd    0.5066280   -0.5510294   -0.2297247 
P    -0.8870904   -0.7221760    1.6102083 
P    -0.9335780    1.0700033   -1.0520595 
H     1.1994420   -2.0248505   -2.1411834 
H     1.7356310   -2.8677687    0.0944732 
C     2.0836750    1.2958960   -5.5344741 
C     1.2434005    0.1723688   -5.4907914 
C     1.1734393   -0.6005496   -4.3259071 
C     1.9308110   -0.2623712   -3.1779207 
C     2.7689013    0.8737566   -3.2358995 
C     2.8469472    1.6369323   -4.4054298 
H     2.1489750    1.8995359   -6.4455003 
H     0.6513828   -0.1079844   -6.3680999 
H     0.5317310   -1.4892952   -4.3004101 
H     3.3525522    1.1773443   -2.3613554 
H     3.5039121    2.5116173   -4.4313248 
C     3.6646142   -1.4459312    4.3425737 
C     3.6639832   -0.3431588    3.4714124 
C     3.2037609   -0.4838643    2.1577551 
C     2.7355009   -1.7307740    1.6799031 
C     2.7557949   -2.8329058    2.5623593 
C     3.2131712   -2.6911255    3.8797897 
H     4.0196723   -1.3346165    5.3720489 
H     4.0157335    0.6327729    3.8227282 
H     3.1815933    0.3880533    1.4959382 
H     2.4104269   -3.8072155    2.2037667 
H     3.2229047   -3.5596652    4.5468978 
C    -1.9134135    0.7477444   -2.6282636 
C    -0.3551108    2.7932046   -1.5994168 
C    -0.3938027   -0.0913268    3.3191756 
C    -1.4106173   -2.4366957    2.2266052 
C    -2.1590099    1.4194310    0.3181260 
C    -2.4688180    0.1477298    1.1243826 
C    -2.1507070    2.1528429   -3.2155296 
C    -0.8205397    2.9066465   -3.0740306 
C    -1.1380440   -1.0439991    4.2790013 
C    -0.9617600   -2.4596342    3.7073078 
C    -3.0848769   -0.1808457   -2.4138503 
C     1.1040684    3.1325348   -1.3328401 
C    -0.5812608    1.4019325    3.4493260 
C    -0.9107594   -3.5482946    1.3192415 
C    -4.3592853    0.2836167   -2.0290011 
C     1.7754129    2.6317841   -0.2008107 
C     0.4704121    2.2560268    3.0578054 
C    -1.1844657   -3.4786390   -0.0633445 
C    -2.8927241   -1.5713114   -2.5518988 
C     1.8077605    4.0036809   -2.1878165 
C    -1.7953740    1.9831555    3.8689567 
C    -0.1630433   -4.6394229    1.7953633 
C    -5.4003356   -0.6187965   -1.7649814 
C     3.1088250    2.9736641    0.0640004 
C     0.3048891    3.6469577    3.0395047 
C    -0.6936046   -4.4450575   -0.9492474 
C    -3.9316727   -2.4747401   -2.2901664 
C     3.1419599    4.3484178   -1.9268282 
C    -1.9609534    3.3764050    3.8601721 
C     0.3307727   -5.6122636    0.9090050 
C    -5.1887857   -2.0004346   -1.8860227 
C     3.8023750    3.8308621   -0.8034032 
C    -0.9181110    4.2122766    3.4325668 
C     0.0794113   -5.5137434   -0.4662379 
H    -1.1680983    0.2391875   -3.2686688 
H    -0.9811090    3.4728383   -0.9863545 
H     0.6872018   -0.3230736    3.3679665 
H    -2.5175468   -2.4161476    2.1890699 
H    -1.6828802    2.1794387    0.9657618 
H    -3.0817013    1.8625323   -0.0954343 
H    -3.0748818    0.3803326    2.0173805 
H    -3.0390581   -0.5722136    0.5072429 
H    -2.9461702    2.6830583   -2.6594439 
H    -2.4780221    2.0828029   -4.2674331 
H    -0.0590834    2.4483529   -3.7322325 
H    -0.9233992    3.9644821   -3.3699340 
H    -2.2128077   -0.7885231    4.3304993 
H    -0.7310739   -0.9566724    5.3012756 
H     0.1073089   -2.7334925    3.7652912 
H    -1.5320450   -3.2128700    4.2775116 
H    -4.5515474    1.3582682   -1.9443997 
H     1.2444846    1.9601873    0.4837563 
H     1.4300253    1.8140183    2.7694796 
H    -1.7950477   -2.6563628   -0.4518576 
H    -1.9118488   -1.9431783   -2.8718421 
H     1.3198689    4.4178302   -3.0746900 
H    -2.6205065    1.3506051    4.2124162 
H     0.0451127   -4.7407149    2.8644009 
H    -6.3843481   -0.2386706   -1.4711914 
H     3.6080083    2.5774516    0.9552253 
H     1.1329245    4.2878867    2.7194017 
H    -0.9178225   -4.3671164   -2.0191081 
H    -3.7602653   -3.5504068   -2.4031409 
H     3.6677837    5.0251318   -2.6086071 
H    -2.9096666    3.8103172    4.1930424 
H     0.9145269   -6.4519656    1.3004829 
H    -6.0035280   -2.7027439   -1.6825784 
H     4.8441519    4.0994231   -0.6008941 
H    -1.0520106    5.2988385    3.4228393 
H     0.4691473   -6.2707213   -1.1542954 
