101
Energy =
C     1.7650319   -1.3483192   -1.8027693 
C     2.5590967   -1.1608318   -0.6418132 
C     2.2106292   -1.8664987    0.5510711 
H     3.2994157   -0.3512058   -0.6135805 
Pd    0.5181673   -0.5910068   -0.1006515 
P    -0.8367326   -0.5431982    1.7764301 
P    -1.0371236    0.8163296   -1.0771525 
H     1.2156121   -2.3012208   -1.8636621 
H     1.7215784   -2.8446253    0.4273396 
C     1.9256243    0.7347139   -5.5592665 
C     1.3680036   -0.5496086   -5.4739133 
C     1.3397193   -1.2183528   -4.2432913 
C     1.8686001   -0.6178186   -3.0765347 
C     2.4244354    0.6782130   -3.1762881 
C     2.4540724    1.3419319   -4.4067011 
H     1.9485750    1.2620319   -6.5184404 
H     0.9550275   -1.0317258   -6.3658253 
H     0.9066663   -2.2233246   -4.1794281 
H     2.8071988    1.1832359   -2.2832675 
H     2.8844641    2.3464427   -4.4636329 
C     3.8216438   -1.1950251    4.4918507 
C     3.1423564   -2.3839980    4.1857032 
C     2.6447437   -2.5981025    2.8935264 
C     2.8052602   -1.6253667    1.8805014 
C     3.4981743   -0.4354346    2.2026028 
C     4.0042503   -0.2264927    3.4904712 
H     4.2125909   -1.0256093    5.5000522 
H     3.0073582   -3.1522609    4.9544276 
H     2.1263903   -3.5318755    2.6535156 
H     3.6283995    0.3401033    1.4412152 
H     4.5394645    0.7012283    3.7191323 
C    -1.4851455    0.7940379   -2.9123400 
C    -0.7423228    2.6816096   -0.9821501 
C    -0.3090761   -0.1525022    3.5437792 
C    -1.5789808   -2.2428622    2.2050187 
C    -2.6154385    0.6073325   -0.0927230 
C    -2.2826472    0.5861410    1.4099255 
C    -1.4834436    2.2859308   -3.3535367 
C    -1.6447242    3.2037310   -2.1241774 
C    -1.2259582   -1.0638891    4.3897587 
C    -1.2277706   -2.4375930    3.7012632 
C    -2.7396448   -0.0270364   -3.1279906 
C     0.7378551    3.0408747   -1.0374944 
C    -0.2651865    1.3307296    3.8340523 
C    -1.1256147   -3.3181728    1.2282050 
C    -4.0297402    0.5385994   -3.1259833 
C     1.3065034    3.8059266   -2.0716088 
C    -1.3821316    2.0391454    4.3223809 
C    -0.3443785   -4.4198607    1.6214284 
C    -2.6185708   -1.4262008   -3.2591418 
C     1.5749344    2.6261431    0.0212112 
C     0.9155469    2.0490486    3.5539550 
C    -1.4586111   -3.1958499   -0.1397456 
C    -5.1664000   -0.2744979   -3.2474051 
C     2.6720528    4.1349129   -2.0572538 
C    -1.3205202    3.4276570    4.5131177 
C     0.1303965   -5.3448547    0.6759339 
C    -3.7531491   -2.2406967   -3.3725787 
C     2.9358557    2.9534132    0.0388410 
C     0.9753260    3.4369738    3.7353187 
C    -0.9924037   -4.1199207   -1.0831873 
C    -5.0334763   -1.6661453   -3.3639072 
C     3.4949025    3.7047938   -1.0082775 
C    -0.1454526    4.1326480    4.2131484 
C    -0.1803175   -5.1925931   -0.6815957 
H    -0.6423013    0.2692791   -3.3914972 
H    -1.1306543    3.0073086    0.0004635 
H     0.7205807   -0.5560647    3.5907714 
H    -2.6725884   -2.1077353    2.1030325 
H    -3.3322539    1.4128971   -0.3291477 
H    -3.0797949   -0.3389553   -0.4230713 
H    -1.9715102    1.5890836    1.7562194 
H    -3.1619539    0.2962730    2.0119936 
H    -2.2710770    2.4726364   -4.1027039 
H    -0.5180578    2.4876267   -3.8463689 
H    -1.4179934    4.2579066   -2.3620918 
H    -2.6944528    3.1852591   -1.7789713 
H    -2.2528596   -0.6566215    4.4326908 
H    -0.8556217   -1.1258802    5.4277995 
H    -0.2138475   -2.8648997    3.7898309 
H    -1.9283144   -3.1448728    4.1773564 
H    -4.1558426    1.6228547   -3.0317940 
H     0.6902258    4.1621052   -2.9019073 
H    -2.3093149    1.5085932    4.5630360 
H    -0.0989831   -4.5720627    2.6760806 
H    -1.6169917   -1.8712477   -3.2768143 
H     1.1455839    2.0584544    0.8547626 
H     1.7957751    1.5025332    3.1986547 
H    -2.1004210   -2.3732642   -0.4760689 
H    -6.1613036    0.1829900   -3.2515996 
H     3.0905391    4.7348467   -2.8721579 
H    -2.1954647    3.9597393    4.9011346 
H     0.7412257   -6.1906042    1.0083450 
H    -3.6389108   -3.3250265   -3.4772565 
H     3.5598524    2.6393028    0.8825692 
H     1.9010108    3.9754663    3.5064496 
H    -1.2701762   -4.0059038   -2.1359297 
H    -5.9221649   -2.2984898   -3.4575077 
H     4.5583692    3.9642235   -0.9974229 
H    -0.1005517    5.2164784    4.3610466 
H     0.1892810   -5.9135308   -1.4177879 
