101
Energy =
C     1.8211178   -1.0520868   -2.1063152 
C     2.6272093   -0.9043869   -0.9481913 
C     2.3657969   -1.7035924    0.2036093 
H     3.3224572   -0.0586236   -0.8769987 
Pd    0.5593576   -0.4961442   -0.3437376 
P    -0.7355957   -0.3963019    1.5834927 
P    -1.0072576    0.9265824   -1.2824469 
H     1.3105135   -2.0210441   -2.2281270 
H     1.9410255   -2.7034336    0.0334836 
C     1.9735466    1.2367351   -5.7456327 
C     1.2531976    0.0342324   -5.6830314 
C     1.2214997   -0.7003104   -4.4909055 
C     1.9006905   -0.2443928   -3.3355989 
C     2.6166353    0.9715172   -3.4122282 
C     2.6569072    1.6969706   -4.6071750 
H     2.0080908    1.8103050   -6.6774918 
H     0.7232107   -0.3376487   -6.5658559 
H     0.6724622   -1.6484162   -4.4516134 
H     3.1332796    1.3656701   -2.5317737 
H     3.2207101    2.6343449   -4.6476401 
C     4.1617098   -1.1225665    4.0783768 
C     4.0923109   -0.0529496    3.1696586 
C     3.5206470   -0.2351819    1.9063028 
C     3.0126312   -1.4964322    1.5138954 
C     3.1084174   -2.5677226    2.4314415 
C     3.6711477   -2.3813533    3.7015931 
H     4.6005745   -0.9752740    5.0701845 
H     4.4767642    0.9320838    3.4548745 
H     3.4436220    0.6147191    1.2203450 
H     2.7546897   -3.5614995    2.1373082 
H     3.7349488   -3.2257778    4.3956392 
C    -1.8041717    0.5695753   -2.9423027 
C    -0.5237944    2.7129637   -1.7249193 
C    -0.0282179   -0.3289059    3.3439435 
C    -1.9674576   -1.7846501    1.9074216 
C    -2.4102911    1.0984063   -0.0612906 
C    -1.8710448    1.0770186    1.3787481 
C    -2.1297956    1.9687629   -3.4996609 
C    -0.8889020    2.8338499   -3.2275512 
C    -0.7856323   -1.4475655    4.1153215 
C    -2.1491137   -1.7244201    3.4535154 
C    -2.8828185   -0.4852980   -2.8441087 
C     0.8795452    3.1470885   -1.3300345 
C    -0.1136636    1.0870504    3.8824242 
C    -1.5408833   -3.1311685    1.3566500 
C    -4.2550476   -0.1680101   -2.8357332 
C     1.4057698    2.8248583   -0.0618644 
C    -1.2062138    1.5471014    4.6435337 
C    -0.2460827   -3.6468106    1.5629656 
C    -2.5028669   -1.8378012   -2.7071820 
C     1.6694407    3.9311803   -2.1932081 
C     0.9021951    2.0050852    3.5443977 
C    -2.4644221   -3.9104920    0.6338589 
C    -5.2209729   -1.1776077   -2.7012747 
C     2.6853722    3.2492866    0.3207310 
C    -1.2815909    2.8884644    5.0479623 
C     0.1160488   -4.9052077    1.0633777 
C    -3.4659254   -2.8456561   -2.5755541 
C     2.9526661    4.3541249   -1.8148817 
C     0.8242192    3.3469397    3.9392217 
C    -2.1053299   -5.1703583    0.1331764 
C    -4.8309354   -2.5181552   -2.5707030 
C     3.4714599    4.0081956   -0.5597241 
C    -0.2725378    3.7949995    4.6913146 
C    -0.8132143   -5.6725783    0.3446349 
H    -0.9617224    0.1632557   -3.5343117 
H    -1.2440554    3.3205438   -1.1422409 
H     1.0368080   -0.5967693    3.2346951 
H    -2.9078493   -1.4943541    1.4080517 
H    -2.9887161    2.0175524   -0.2612757 
H    -3.0832776    0.2410198   -0.2487690 
H    -1.2851606    1.9852204    1.6090665 
H    -2.6892380    1.0289036    2.1182542 
H    -3.0121626    2.4010230   -2.9921838 
H    -2.3638783    1.9151697   -4.5770820 
H    -0.0459837    2.4616390   -3.8386282 
H    -1.0590581    3.8891627   -3.5012239 
H    -0.9020303   -1.1718179    5.1771528 
H    -0.1735652   -2.3644924    4.0958147 
H    -2.5985272   -2.6628308    3.8215012 
H    -2.8579737   -0.9102778    3.6926555 
H    -4.5801736    0.8714730   -2.9452040 
H     0.8071212    2.2416357    0.6471374 
H    -2.0084686    0.8593934    4.9311341 
H     0.4931506   -3.0552008    2.1122512 
H    -1.4381237   -2.1002423   -2.7047543 
H     1.2904534    4.2161584   -3.1782902 
H     1.7651255    1.6494022    2.9718964 
H    -3.4740808   -3.5238833    0.4558717 
H    -6.2836753   -0.9134779   -2.7074835 
H     3.0648844    2.9990252    1.3169725 
H    -2.1349614    3.2256297    5.6456878 
H     1.1264297   -5.2919423    1.2374428 
H    -3.1476916   -3.8882098   -2.4789463 
H     3.5474086    4.9595527   -2.5069852 
H     1.6238960    4.0427790    3.6637694 
H    -2.8398353   -5.7625528   -0.4231347 
H    -5.5867508   -3.3046033   -2.4747738 
H     4.4722559    4.3387675   -0.2638281 
H    -0.3360338    4.8418297    5.0052618 
H    -0.5326489   -6.6567698   -0.0441489 
