101
Energy =
C     1.9517178   -1.4728603   -1.9074434 
C     2.7831450   -1.0005218   -0.8649399 
C     2.6295060   -1.5140006    0.4609440 
H     3.4140202   -0.1178670   -1.0272490 
Pd    0.7269242   -0.5819275   -0.2146004 
P    -0.4155982   -0.3144002    1.7858295 
P    -1.0505845    0.5703873   -1.1708645 
H     1.4546452   -2.4425669   -1.7455564 
H     2.3211221   -2.5647939    0.5502610 
C     1.7288956   -0.1234879   -5.9871553 
C     0.9042649   -1.1596710   -5.5222899 
C     1.0113226   -1.5971479   -4.1969734 
C     1.9332041   -1.0041984   -3.3022213 
C     2.7847424    0.0107038   -3.7978029 
C     2.6775811    0.4485571   -5.1229128 
H     1.6498929    0.2218793   -7.0228657 
H     0.1798182   -1.6307221   -6.1948630 
H     0.3761081   -2.4136099   -3.8353132 
H     3.5518839    0.4484499   -3.1514565 
H     3.3468484    1.2341895   -5.4885858 
C     4.5361607    0.0973526    3.9712709 
C     4.1869188   -1.2600746    3.9093732 
C     3.5831727   -1.7809733    2.7564478 
C     3.3113084   -0.9533729    1.6438410 
C     3.6613807    0.4154864    1.7228449 
C     4.2738928    0.9304604    2.8701891 
H     5.0066763    0.5048926    4.8716022 
H     4.3912951   -1.9187607    4.7598549 
H     3.3264760   -2.8456130    2.7116686 
H     3.4137106    1.0902352    0.8970267 
H     4.5349429    1.9934036    2.9110497 
C    -1.8126541    0.2771122   -2.8744313 
C    -0.6489588    2.4005675   -1.4950617 
C     0.4233836    0.0884552    3.4343554 
C    -1.1644004   -1.9367285    2.3821560 
C    -2.4215754    0.6424569    0.0908163 
C    -1.8308770    0.8611813    1.4952865 
C    -2.0170593    1.7021050   -3.4493476 
C    -0.8058738    2.5434984   -3.0300083 
C     0.1518941   -1.1583155    4.3261375 
C    -0.1203129   -2.3783064    3.4304840 
C    -3.0032430   -0.6553620   -2.9434584 
C     0.6616544    2.8739995   -0.9031575 
C     0.0274985    1.4389078    3.9940452 
C    -1.5094461   -2.8766531    1.2480251 
C    -2.8617596   -1.9324315   -3.5212739 
C     0.6828627    3.6910635    0.2428897 
C     0.8809233    2.5448010    3.8095195 
C    -2.8293726   -2.9258004    0.7568815 
C    -4.2810633   -0.2691573   -2.4857330 
C     1.8909636    2.5155499   -1.4925188 
C    -1.1970360    1.6407650    4.6647217 
C    -0.5301412   -3.6661062    0.6118641 
C    -3.9591846   -2.7946491   -3.6484959 
C     1.8972129    4.1486181    0.7770476 
C     0.5250221    3.8139845    4.2872226 
C    -3.1574691   -3.7128524   -0.3545871 
C    -5.3778171   -1.1340223   -2.5996240 
C     3.1043027    2.9737728   -0.9641557 
C    -1.5557619    2.9096169    5.1392778 
C    -0.8559522   -4.4593034   -0.4976470 
C    -5.2220462   -2.4000277   -3.1850666 
C     3.1125271    3.7953943    0.1750738 
C    -0.6955740    4.0023974    4.9517564 
C    -2.1687287   -4.4764179   -0.9913689 
H    -0.9741209   -0.1875759   -3.4252438 
H    -1.4761329    2.9515251   -1.0105111 
H     1.4953211    0.1149515    3.1775967 
H    -2.0937121   -1.6520805    2.9120017 
H    -3.1335550    1.4460703   -0.1661982 
H    -2.9600469   -0.3189580    0.0267522 
H    -1.4159541    1.8794584    1.6067875 
H    -2.5960157    0.7345617    2.2800974 
H    -2.9463153    2.1476101   -3.0488232 
H    -2.1289694    1.6494580   -4.5460987 
H     0.0987896    2.1677397   -3.5423712 
H    -0.9166936    3.6072701   -3.3018339 
H    -0.7285131   -0.9773991    4.9667883 
H     1.0131328   -1.3243288    4.9946846 
H     0.8134290   -2.6900401    2.9280578 
H    -0.4883517   -3.2441543    4.0074442 
H    -1.8804706   -2.2473681   -3.8893392 
H    -0.2591366    3.9888061    0.7182719 
H     1.8340514    2.4008154    3.2903506 
H    -3.6123231   -2.3413150    1.2550784 
H    -4.4325382    0.7254630   -2.0532140 
H     1.8956048    1.8841258   -2.3860327 
H    -1.8812033    0.7995776    4.8256432 
H     0.4944095   -3.6762051    0.9957331 
H    -3.8264845   -3.7769496   -4.1140095 
H     1.8880788    4.7949988    1.6599422 
H     1.2089601    4.6584885    4.1495764 
H    -4.1857146   -3.7236199   -0.7280326 
H    -6.3618564   -0.8113523   -2.2435929 
H     4.0480358    2.6982675   -1.4483118 
H    -2.5080799    3.0440819    5.6628819 
H    -0.0821243   -5.0734362   -0.9711809 
H    -6.0820962   -3.0700112   -3.2861997 
H     4.0595182    4.1625342    0.5841080 
H    -0.9721407    4.9922704    5.3289607 
H    -2.4241147   -5.0908210   -1.8604984 
