101
Energy =
C     1.7420510   -1.3353260   -1.8328835 
C     2.5661363   -1.1093443   -0.7001136 
C     2.2724801   -1.8029647    0.5142410 
H     3.2861192   -0.2811949   -0.7079469 
Pd    0.5284989   -0.5810183   -0.1054082 
P    -0.7749471   -0.5395751    1.8073660 
P    -1.0864544    0.7751421   -1.0571455 
H     1.2146282   -2.3020619   -1.8620559 
H     1.8031177   -2.7941045    0.4220289 
C     1.7372798    0.6903957   -5.6239745 
C     1.2143432   -0.6055204   -5.5019108 
C     1.2396413   -1.2549179   -4.2608979 
C     1.7889649   -0.6232267   -3.1203302 
C     2.3094080    0.6841108   -3.2568611 
C     2.2852873    1.3286299   -4.4975639 
H     1.7181015    1.2026382   -6.5913514 
H     0.7867396   -1.1117811   -6.3733278 
H     0.8327942   -2.2685343   -4.1681634 
H     2.7068381    1.2122056   -2.3838439 
H     2.6886329    2.3423215   -4.5829408 
C     3.9876196   -1.0252205    4.3911309 
C     3.3141293   -2.2283787    4.1308633 
C     2.7823505   -2.4766876    2.8586099 
C     2.9015989   -1.5247742    1.8202856 
C     3.5891137   -0.3202452    2.0961510 
C     4.1293768   -0.0770792    3.3639904 
H     4.4060853   -0.8293510    5.3833682 
H     3.2104442   -2.9808670    4.9197772 
H     2.2688041   -3.4214788    2.6539913 
H     3.6890149    0.4395870    1.3146780 
H     4.6596984    0.8615609    3.5566489 
C    -1.5868056    0.7167071   -2.8781777 
C    -0.8301224    2.6478094   -0.9962714 
C    -0.2099692   -0.1182893    3.5556751 
C    -1.4705920   -2.2492240    2.2739263 
C    -2.6307868    0.5475590   -0.0240200 
C    -2.2538853    0.5550069    1.4683132 
C    -1.6259702    2.2015501   -3.3405298 
C    -1.7739059    3.1338971   -2.1206204 
C    -1.0891682   -1.0350500    4.4351088 
C    -1.0817269   -2.4175388    3.7641330 
C    -2.8315156   -0.1300293   -3.0455759 
C     0.6395641    3.0386669   -1.0965701 
C    -0.1841318    1.3690424    3.8262408 
C    -1.0161951   -3.3258566    1.2990914 
C    -4.1312662    0.4120802   -3.0144647 
C     1.1636658    3.7985700   -2.1576915 
C     0.9765053    2.1032446    3.5060689 
C    -0.1928024   -4.3997312    1.6831520 
C    -2.6882977   -1.5284683   -3.1610854 
C     1.5130530    2.6603703   -0.0537469 
C    -1.3000576    2.0648179    4.3345055 
C    -1.3918079   -3.2313491   -0.0600057 
C    -5.2556285   -0.4231687   -3.0923898 
C     2.5214610    4.1574166   -2.1850091 
C     1.0169558    3.4942538    3.6680003 
C     0.2811497   -5.3232964    0.7358425 
C    -3.8102915   -2.3649924   -3.2311513 
C     2.8663094    3.0177381   -0.0775103 
C    -1.2574788    3.4566196    4.5055970 
C    -0.9265534   -4.1542978   -1.0049893 
C    -5.1002978   -1.8136831   -3.1936598 
C     3.3808699    3.7631438   -1.1513506 
C    -0.1030145    4.1772848    4.1656286 
C    -0.0727869   -5.1981033   -0.6138453 
H    -0.7484720    0.2004295   -3.3740835 
H    -1.1992255    2.9790488   -0.0081207 
H     0.8273542   -0.5037446    3.5813633 
H    -2.5687634   -2.1383805    2.1950340 
H    -3.3710243    1.3345661   -0.2505438 
H    -3.0843807   -0.4129124   -0.3272857 
H    -1.9534270    1.5688420    1.7915356 
H    -3.1091022    0.2561067    2.0999236 
H    -2.4360401    2.3616506   -4.0717632 
H    -0.6776180    2.4146200   -3.8608462 
H    -1.5761448    4.1889558   -2.3795985 
H    -2.8133848    3.0986418   -1.7468471 
H    -2.1221890   -0.6462118    4.4978709 
H    -0.6930563   -1.0767713    5.4646196 
H    -0.0585070   -2.8254553    3.8350468 
H    -1.7580453   -3.1310893    4.2652235 
H    -4.2747130    1.4950546   -2.9314702 
H     0.5179964    4.1272202   -2.9768709 
H     1.8564667    1.5670623    3.1345666 
H     0.0868846   -4.5311099    2.7320624 
H    -1.6795492   -1.9554598   -3.2013676 
H     1.1185130    2.0978615    0.8003296 
H    -2.2114475    1.5218892    4.6059836 
H    -2.0663094   -2.4317218   -0.3875775 
H    -6.2585659    0.0161143   -3.0748225 
H     2.9050276    4.7524715   -3.0204176 
H     1.9270366    4.0453025    3.4084245 
H     0.9255297   -6.1467243    1.0608730 
H    -3.6789063   -3.4484269   -3.3243272 
H     3.5186426    2.7320382    0.7547403 
H    -2.1309226    3.9789245    4.9099433 
H    -1.2374777   -4.0621724   -2.0506272 
H    -5.9794217   -2.4632802   -3.2532765 
H     4.4382847    4.0456375   -1.1731565 
H    -0.0731342    5.2636695    4.2977544 
H     0.2957200   -5.9182866   -1.3513222 
