101
Energy =
C     1.8560275   -1.4350654   -1.9938305 
C     2.7056387   -1.0123644   -0.9441411 
C     2.5611952   -1.5595586    0.3692119 
H     3.3438595   -0.1315895   -1.0873254 
Pd    0.6642857   -0.5808000   -0.2618453 
P    -0.4894162   -0.3460510    1.7456197 
P    -1.0692670    0.6500026   -1.1828385 
H     1.3399615   -2.3996703   -1.8612303 
H     2.2488325   -2.6106347    0.4356814 
C     1.6838421    0.0722504   -6.0220866 
C     0.7852212   -0.9121659   -5.5824422 
C     0.8691156   -1.4042910   -4.2745134 
C     1.8438115   -0.9156956   -3.3719611 
C     2.7624442    0.0525837   -3.8409902 
C     2.6785879    0.5432618   -5.1489965 
H     1.6233974    0.4567973   -7.0452269 
H     0.0189450   -1.3017171   -6.2605278 
H     0.1664448   -2.1752184   -3.9403548 
H     3.5629434    0.4117605   -3.1866805 
H     3.4015832    1.2894951   -5.4943562 
C     4.5002269   -0.0286559    3.8983640 
C     4.1236370   -1.3780817    3.8204521 
C     3.5107495   -1.8733281    2.6611966 
C     3.2545473   -1.0273861    1.5586296 
C     3.6316477    0.3334156    1.6540247 
C     4.2552677    0.8220974    2.8069923 
H     4.9797242    0.3584326    4.8029935 
H     4.3150319   -2.0508653    4.6629070 
H     3.2357694   -2.9327370    2.6026729 
H     3.4007868    1.0234699    0.8359710 
H     4.5393716    1.8786282    2.8588988 
C    -1.8112624    0.5349052   -2.9042797 
C    -0.6663017    2.5049816   -1.3049208 
C     0.3738125    0.1397033    3.3631196 
C    -1.1974633   -1.9521260    2.4319787 
C    -2.4904542    0.5765192    0.0182109 
C    -1.9505093    0.7780986    1.4452183 
C    -2.1440738    2.0007220   -3.2561167 
C    -0.9604437    2.8565374   -2.7886251 
C     0.1057454   -1.0492740    4.3300986 
C    -0.1500708   -2.3196685    3.5078096 
C    -2.9100064   -0.5004809   -3.0481768 
C     0.7130292    2.8875730   -0.8094615 
C     0.0141893    1.5170421    3.8783644 
C    -1.5403045   -3.0083407    1.4058503 
C    -4.1975119   -0.1530866   -3.5016311 
C     0.8774730    3.6540413    0.3586551 
C     0.9329044    2.5760179    3.7452464 
C    -2.8868046   -3.2670574    1.0838454 
C    -2.6417547   -1.8574537   -2.7642039 
C     1.8639326    2.5041398   -1.5289205 
C    -1.2316662    1.7817537    4.4859841 
C    -0.5405117   -3.7676873    0.7644108 
C    -5.1840845   -1.1344547   -3.6842791 
C     2.1562821    4.0478777    0.7834188 
C     0.6187191    3.8620390    4.2078087 
C    -3.2271758   -4.2659017    0.1609656 
C    -3.6222343   -2.8374996   -2.9613904 
C     3.1403893    2.8952839   -1.1068487 
C    -1.5501680    3.0674212    4.9425271 
C    -0.8763104   -4.7614422   -0.1647146 
C    -4.8980785   -2.4806466   -3.4237382 
C     3.2917579    3.6758285    0.0514310 
C    -0.6249298    4.1139419    4.8045745 
C    -2.2228997   -5.0189502   -0.4639836 
H    -0.9504640    0.2202453   -3.5282164 
H    -1.4243339    2.9969367   -0.6685267 
H     1.4415079    0.1354842    3.0865900 
H    -2.1271983   -1.6452926    2.9483515 
H    -3.2515163    1.3352846   -0.2373717 
H    -2.9536937   -0.4197797   -0.1029064 
H    -1.5887479    1.8115819    1.5981915 
H    -2.7302567    0.5935633    2.2036331 
H    -3.0671091    2.3192850   -2.7358680 
H    -2.3253057    2.1090298   -4.3399149 
H    -0.0749296    2.6289538   -3.4085343 
H    -1.1572506    3.9374250   -2.8887866 
H    -0.7805690   -0.8337745    4.9521420 
H     0.9638775   -1.1651430    5.0132383 
H     0.7867282   -2.6531574    3.0258710 
H    -0.5148344   -3.1544588    4.1307383 
H    -4.4386650    0.8880930   -3.7345548 
H    -0.0000766    3.9598185    0.9399400 
H     1.9041025    2.3813012    3.2794921 
H    -3.6798810   -2.6927396    1.5773607 
H    -1.6574048   -2.1504463   -2.3782238 
H     1.7587162    1.9052181   -2.4398279 
H    -1.9637287    0.9754071    4.6113388 
H     0.5108944   -3.5995769    1.0145731 
H    -6.1761802   -0.8420232   -4.0438978 
H     2.2603148    4.6594671    1.6849442 
H     1.3523899    4.6696690    4.1107776 
H    -4.2807574   -4.4574881   -0.0659682 
H    -3.3860013   -3.8841587   -2.7528081 
H     4.0207784    2.6017498   -1.6894863 
H    -2.5209541    3.2514169    5.4145744 
H    -0.0851590   -5.3512674   -0.6401127 
H    -5.6629473   -3.2482416   -3.5803581 
H     4.2878371    3.9935463    0.3765476 
H    -0.8697479    5.1169426    5.1688225 
H    -2.4868625   -5.8095474   -1.1742595 
