101
Energy =
C     2.1033232   -1.3982476   -1.8527298 
C     2.8909424   -0.8340635   -0.8219997 
C     2.7875293   -1.3470245    0.5105093 
H     3.4328951    0.1032183   -1.0012168 
Pd    0.8109227   -0.5895327   -0.1681874 
P    -0.4138102   -0.4921559    1.7960769 
P    -1.0455529    0.3897641   -1.1438895 
H     1.6898726   -2.4021232   -1.6642008 
H     2.5886533   -2.4229445    0.6085953 
C     1.8316994   -0.2414591   -5.9872742 
C     1.0722032   -1.3098405   -5.4857641 
C     1.1853842   -1.6783933   -4.1399551 
C     2.0487536   -0.9797006   -3.2622833 
C     2.8284777    0.0755975   -3.7898995 
C     2.7169144    0.4413395   -5.1359756 
H     1.7485700    0.0473039   -7.0398500 
H     0.3951557   -1.8610384   -6.1464127 
H     0.6019396   -2.5227173   -3.7539450 
H     3.5374477    0.6050726   -3.1470428 
H     3.3319862    1.2580998   -5.5279224 
C     4.4790684    0.4800669    4.0246060 
C     4.2402048   -0.9020052    3.9844924 
C     3.7096580   -1.4922098    2.8290943 
C     3.4001805   -0.7113012    1.6923042 
C     3.6412393    0.6816179    1.7482713 
C     4.1817755    1.2664087    2.8983242 
H     4.8928923    0.9420976    4.9264796 
H     4.4745906   -1.5250490    4.8538910 
H     3.5390896   -2.5746271    2.8012857 
H     3.3706621    1.3174782    0.8993313 
H     4.3607799    2.3468798    2.9205109 
C    -1.6605924    0.0202729   -2.8888001 
C    -0.8558045    2.2645161   -1.3635760 
C     0.3457715   -0.0103106    3.4604106 
C    -0.9971504   -2.1902731    2.3736997 
C    -2.4679634    0.2228955    0.0479926 
C    -1.9641419    0.4958087    1.4773974 
C    -1.1736753    1.2571017   -3.6852369 
C    -1.3012920    2.5373514   -2.8318624 
C     0.1305725   -1.2556755    4.3652694 
C     0.0363171   -2.5083030    3.4775188 
C    -3.1356127   -0.3307003   -2.9189645 
C     0.5297363    2.7528667   -0.9791724 
C    -0.1397936    1.3279789    3.9748114 
C    -1.1940216   -3.1797253    1.2461777 
C    -4.1526420    0.6194068   -3.1397449 
C     1.6256696    2.6228045   -1.8555327 
C    -1.3964680    1.4825996    4.5959249 
C    -2.4904619   -3.4466606    0.7635384 
C    -3.5112882   -1.6702467   -2.6791939 
C     0.7423346    3.3592726    0.2744665 
C     0.6611571    2.4718752    3.7865187 
C    -0.1042176   -3.8185985    0.6196423 
C    -5.5038366    0.2417040   -3.1162884 
C     2.8939679    3.0985775   -1.4946592 
C    -1.8393962    2.7453348    5.0131839 
C    -2.6925368   -4.3106768   -0.3226168 
C    -4.8598536   -2.0470915   -2.6522898 
C     2.0092198    3.8403968    0.6349088 
C     0.2194109    3.7356709    4.2022771 
C    -0.3016744   -4.6766278   -0.4707598 
C    -5.8636385   -1.0903518   -2.8676518 
C     3.0909278    3.7147102   -0.2488335 
C    -1.0345075    3.8777207    4.8149517 
C    -1.5978335   -4.9210952   -0.9515681 
H    -1.0900183   -0.8640088   -3.2155447 
H    -1.5785365    2.7192306   -0.6644417 
H     1.4211915    0.0722025    3.2278097 
H    -1.9741028   -2.0047598    2.8595851 
H    -3.2833672    0.9093027   -0.2396357 
H    -2.8518185   -0.8071978   -0.0555673 
H    -1.6995620    1.5596802    1.6192054 
H    -2.7320938    0.2509591    2.2309872 
H    -1.7310433    1.3450425   -4.6339659 
H    -0.1152424    1.0879431   -3.9539084 
H    -0.7077640    3.3614920   -3.2625093 
H    -2.3496974    2.8779791   -2.8164266 
H    -0.8051273   -1.1488501    4.9416415 
H     0.9560717   -1.3278059    5.0933100 
H     1.0222869   -2.7236748    3.0260653 
H    -0.2671381   -3.4023989    4.0488482 
H    -3.8989470    1.6635332   -3.3448296 
H     1.4883317    2.1566943   -2.8356732 
H    -2.0398799    0.6107215    4.7607628 
H    -3.3549247   -2.9792291    1.2499684 
H    -2.7343571   -2.4255061   -2.5113192 
H    -0.0933159    3.4749986    0.9743164 
H     1.6410817    2.3590669    3.3119320 
H     0.9092555   -3.6565440    0.9980309 
H    -6.2781329    0.9943027   -3.2985828 
H     3.7296286    3.0038950   -2.1968303 
H    -2.8159359    2.8446654    5.4986281 
H    -3.7104053   -4.5107841   -0.6725485 
H    -5.1281288   -3.0937825   -2.4732118 
H     2.1467783    4.3264883    1.6062012 
H     0.8602713    4.6119563    4.0554577 
H     0.5587438   -5.1688063   -0.9371343 
H    -6.9184899   -1.3827943   -2.8518522 
H     4.0783436    4.0985098    0.0274265 
H    -1.3800130    4.8630929    5.1439518 
H    -1.7540732   -5.5986545   -1.7973092 
