101
Energy =
C     1.8502758   -1.6670884   -1.6574107 
C     2.6610999   -1.1830574   -0.6044925 
C     2.3910351   -1.6128768    0.7353779 
H     3.3544233   -0.3510465   -0.7813932 
Pd    0.6041479   -0.6112797   -0.0881316 
P    -0.7883258   -0.5148262    1.7518310 
P    -1.0117835    0.6568666   -1.1413309 
H     1.2786082   -2.5874047   -1.4530410 
H     2.0133822   -2.6372547    0.8575191 
C     1.8308775   -0.5829382   -5.8173907 
C     0.9376912   -1.5427820   -5.3162538 
C     0.9766337   -1.8943295   -3.9619505 
C     1.9013034   -1.2894563   -3.0766500 
C     2.8137906   -0.3466672   -3.6035643 
C     2.7741721    0.0047753   -4.9573809 
H     1.8045510   -0.3055066   -6.8759943 
H     0.2110954   -2.0191262   -5.9824900 
H     0.2835370   -2.6471060   -3.5694330 
H     3.5691748    0.1041460   -2.9534124 
H     3.4902241    0.7350640   -5.3484759 
C     4.0768070    0.1420902    4.2895588 
C     3.6242071   -1.1859300    4.2951487 
C     3.0919187   -1.7530235    3.1289513 
C     2.9963144   -1.0025535    1.9349093 
C     3.4463569    0.3390958    1.9467183 
C     3.9874821    0.8990787    3.1087329 
H     4.4943184    0.5858415    5.1989271 
H     3.6934563   -1.7855850    5.2087824 
H     2.7545789   -2.7959481    3.1348164 
H     3.3425553    0.9602938    1.0503834 
H     4.3291410    1.9396380    3.0964055 
C    -1.4252317    0.6562419   -2.9881108 
C    -0.6593186    2.5051646   -0.9977138 
C    -0.3160276   -0.0827211    3.5284030 
C    -1.4149218   -2.2624911    2.1700599 
C    -2.6039167    0.4792319   -0.1785325 
C    -2.2933723    0.5129799    1.3290740 
C    -1.1157710    2.1055314   -3.4582501 
C    -1.2887608    3.0984623   -2.2922238 
C    -1.0456781   -1.1550348    4.3704731 
C    -0.9115780   -2.4851910    3.6147896 
C    -2.8179516    0.1050178   -3.2222080 
C     0.8082235    2.8090486   -0.7559205 
C    -0.5224062    1.3758396    3.8738881 
C    -1.0183635   -3.2769526    1.1093191 
C    -3.9610247    0.9235704   -3.3081992 
C     1.8290905    2.3290618   -1.6031862 
C     0.5209912    2.2938402    3.6369414 
C     0.0147476   -4.2134116    1.3045678 
C    -2.9878370   -1.2939819   -3.2927068 
C     1.1745289    3.5953473    0.3532396 
C    -1.7401420    1.8612225    4.3937256 
C    -1.6697388   -3.2606044   -0.1438083 
C    -5.2366030    0.3575023   -3.4546293 
C     3.1723229    2.6454343   -1.3557260 
C     0.3550958    3.6563703    3.9193835 
C     0.4093823   -5.0804204    0.2724710 
C    -4.2610863   -1.8612621   -3.4321704 
C     2.5187466    3.9027414    0.6088740 
C    -1.9073211    3.2254601    4.6726623 
C    -1.2838631   -4.1291759   -1.1724301 
C    -5.3930293   -1.0350290   -3.5106165 
C     3.5241154    3.4329747   -0.2481510 
C    -0.8605352    4.1289615    4.4363448 
C    -0.2315538   -5.0370569   -0.9733326 
H    -0.6990129   -0.0409511   -3.4389477 
H    -1.2210587    2.8640551   -0.1186428 
H     0.7680769   -0.3019821    3.5535650 
H    -2.5177723   -2.1752311    2.1857252 
H    -3.3091934    1.2802273   -0.4609337 
H    -3.0660293   -0.4753882   -0.4837876 
H    -2.0468279    1.5397826    1.6564800 
H    -3.1618986    0.1860199    1.9278071 
H    -1.7556893    2.3758360   -4.3157247 
H    -0.0753388    2.1383744   -3.8230881 
H    -0.8389348    4.0793044   -2.5235878 
H    -2.3638953    3.2721640   -2.1043276 
H    -2.1143998   -0.8993235    4.4895226 
H    -0.6078218   -1.2078941    5.3822669 
H     0.1540678   -2.7750207    3.6026884 
H    -1.4705979   -3.3041260    4.0993638 
H    -3.8637892    2.0135886   -3.2676817 
H     1.5810958    1.6981808   -2.4633060 
H     1.4716051    1.9297860    3.2335614 
H     0.5243149   -4.2765391    2.2704319 
H    -2.1038303   -1.9390675   -3.2403926 
H     0.3972322    3.9663022    1.0299220 
H    -2.5682899    1.1729127    4.5926312 
H    -2.4982231   -2.5646223   -0.3166268 
H    -6.1125902    1.0105949   -3.5273513 
H     3.9508309    2.2810081   -2.0346774 
H     1.1832000    4.3510612    3.7418530 
H     1.2169544   -5.7983911    0.4495426 
H    -4.3700071   -2.9497811   -3.4901540 
H     2.7793073    4.5164435    1.4779029 
H    -2.8575471    3.5815347    5.0842317 
H    -1.8160580   -4.1065588   -2.1291300 
H    -6.3895555   -1.4735264   -3.6246446 
H     4.5738570    3.6780660   -0.0569709 
H    -0.9890703    5.1924933    4.6623703 
H     0.0726267   -5.7171080   -1.7754580 
