101
Energy =
C     1.6795971   -1.2729996   -1.9357874 
C     2.5582070   -1.0259288   -0.8488867 
C     2.3537756   -1.7334180    0.3756248 
H     3.2506658   -0.1755731   -0.8912105 
Pd    0.5408354   -0.5633561   -0.1420838 
P    -0.6480761   -0.5629129    1.8451744 
P    -1.1703772    0.7379962   -0.9957180 
H     1.1830897   -2.2564160   -1.9418909 
H     1.9122771   -2.7389191    0.3036439 
C     1.4069540    0.7624533   -5.7118883 
C     0.9328542   -0.5498644   -5.5679165 
C     1.0452967   -1.2015175   -4.3329595 
C     1.6341221   -0.5556283   -3.2204159 
C     2.1042233    0.7681545   -3.3785372 
C     1.9933726    1.4148857   -4.6133336 
H     1.3201681    1.2764070   -6.6746444 
H     0.4755544   -1.0672281   -6.4174631 
H     0.6771379   -2.2281458   -4.2233858 
H     2.5303918    1.3064536   -2.5255619 
H     2.3589482    2.4412621   -4.7155936 
C     4.2502915   -0.9122198    4.1577035 
C     3.6229760   -2.1447179    3.9206419 
C     3.0311779   -2.4062941    2.6777799 
C     3.0434198   -1.4390228    1.6470827 
C     3.6852135   -0.2042957    1.8989583 
C     4.2853709    0.0525431    3.1367781 
H     4.7149019   -0.7057308    5.1269993 
H     3.6023650   -2.9095345    4.7042143 
H     2.5540570   -3.3735195    2.4906136 
H     3.7004529    0.5677132    1.1230840 
H     4.7784727    1.0146900    3.3114859 
C    -1.7702808    0.6607335   -2.7856678 
C    -0.9782211    2.6185514   -0.9465824 
C     0.0060129   -0.1117059    3.5551984 
C    -1.2476272   -2.2954382    2.3573757 
C    -2.6443290    0.4538031    0.1227736 
C    -2.1844799    0.4743909    1.5916826 
C    -1.8881428    2.1428195   -3.2431087 
C    -2.0002777    3.0701314   -2.0155494 
C    -0.7763505   -1.0623152    4.4886979 
C    -0.7547659   -2.4446933    3.8183996 
C    -2.9913619   -0.2302195   -2.8820251 
C     0.4687149    3.0616869   -1.1278382 
C    -0.0160946    1.3757831    3.8255826 
C    -0.8201413   -3.3593816    1.3568175 
C    -4.3060222    0.2652428   -2.7809877 
C     0.9056379    3.8401105   -2.2146183 
C     1.0926461    2.1587253    3.4434165 
C    -1.2754535   -3.2773929    0.0215749 
C    -2.8042509   -1.6233734   -2.9993281 
C     1.4116603    2.7148129   -0.1359061 
C    -1.1303638    2.0236573    4.3970039 
C     0.0518811   -4.4104954    1.6935582 
C    -5.4020645   -0.6102775   -2.7925095 
C     2.2459401    4.2482657   -2.3155883 
C     1.0834780    3.5501329    3.6069291 
C    -0.8411764   -4.1897471   -0.9481304 
C    -3.8974167   -2.5000124   -3.0028691 
C     2.7476900    3.1210012   -0.2332052 
C    -1.1371917    3.4158703    4.5694630 
C     0.4942537   -5.3235634    0.7212032 
C    -5.2024449   -1.9949342   -2.8961326 
C     3.1747657    3.8854428   -1.3317173 
C    -0.0347378    4.1849001    4.1682376 
C     0.0605309   -5.2101803   -0.6060628 
H    -0.9435525    0.1740860   -3.3288149 
H    -1.3031131    2.9370533    0.0611109 
H     1.0585952   -0.4517747    3.5163145 
H    -2.3519640   -2.2251646    2.3518885 
H    -3.4244743    1.2132058   -0.0596030 
H    -3.0787723   -0.5226089   -0.1567632 
H    -1.9051111    1.4988287    1.9000339 
H    -2.9910255    0.1431347    2.2695058 
H    -2.7431202    2.2736640   -3.9274939 
H    -0.9786753    2.3892522   -3.8155117 
H    -1.8546819    4.1313175   -2.2838513 
H    -3.0151748    2.9983489   -1.5839945 
H    -1.8184576   -0.7163826    4.6174492 
H    -0.3136309   -1.0848993    5.4906158 
H     0.2871816   -2.8094019    3.8212197 
H    -1.3663848   -3.1845897    4.3625879 
H    -4.4835095    1.3428541   -2.6947878 
H     0.2044771    4.1448182   -2.9965649 
H     1.9722641    1.6604692    3.0219795 
H    -1.9885659   -2.4965832   -0.2671407 
H    -1.7844237   -2.0141035   -3.0933881 
H     1.0854240    2.1376957    0.7369943 
H    -2.0013881    1.4425483    4.7175689 
H     0.3951083   -4.5317948    2.7246304 
H    -6.4177367   -0.2072118   -2.7208857 
H     2.5610101    4.8571739   -3.1694663 
H     1.9537025    4.1392860    3.2988844 
H    -1.2139031   -4.1080588   -1.9742440 
H    -3.7324126   -3.5786534   -3.0979948 
H     3.4550959    2.8581802    0.5607752 
H    -2.0081865    3.9005491    5.0229529 
H     1.1770125   -6.1296897    1.0092115 
H    -6.0595138   -2.6759395   -2.9038127 
H     4.2182104    4.2069386   -1.4106897 
H    -0.0432572    5.2714732    4.3019207 
H     0.4052203   -5.9216682   -1.3632315 
