101
Energy =
C     1.6718352   -1.2797545   -2.0418478 
C     2.4890837   -1.1579981   -0.8863369 
C     2.1441211   -1.8583011    0.3079371 
H     3.2600175   -0.3780783   -0.8533469 
Pd    0.4705265   -0.5321705   -0.3184006 
P    -0.7574779   -0.3148748    1.6359021 
P    -1.0496242    0.9248909   -1.2687004 
H     1.0889763   -2.2093548   -2.1374831 
H     1.6174652   -2.8189835    0.2037945 
C     1.9677200    0.9594628   -5.7057503 
C     1.2666563   -0.2548069   -5.6624751 
C     1.1933998   -0.9779565   -4.4647305 
C     1.8117270   -0.5003869   -3.2855576 
C     2.5110406    0.7266805   -3.3435340 
C     2.5920507    1.4418921   -4.5424477 
H     2.0321347    1.5256832   -6.6405235 
H     0.7826656   -0.6442758   -6.5639912 
H     0.6603784   -1.9354221   -4.4408415 
H     2.9739043    1.1409085   -2.4422804 
H     3.1401833    2.3891349   -4.5667252 
C     3.8821980   -1.1716203    4.1903706 
C     3.2308382   -2.3798665    3.9007975 
C     2.6883641   -2.6022256    2.6276174 
C     2.7826726   -1.6188440    1.6173723 
C     3.4473356   -0.4066609    1.9219806 
C     3.9929783   -0.1888316    3.1915324 
H     4.3033618   -0.9957181    5.1852238 
H     3.1478751   -3.1554769    4.6694344 
H     2.1817048   -3.5461204    2.4038528 
H     3.5119751    0.3830103    1.1663669 
H     4.5010147    0.7567599    3.4090361 
C    -1.8297643    0.6433154   -2.9558307 
C    -0.5172115    2.7145901   -1.6494245 
C    -0.0060910   -0.1808375    3.3684095 
C    -1.8667988   -1.8006154    2.0030817 
C    -2.4649739    1.0927843   -0.0559767 
C    -1.9478588    1.1062999    1.3936866 
C    -2.1322892    2.0701941   -3.4588973 
C    -0.8818454    2.9042715   -3.1447889 
C    -0.6305994   -1.3618662    4.1651737 
C    -1.9782308   -1.7890020    3.5454014 
C    -2.9282862   -0.3940479   -2.9486286 
C     0.9060461    3.0795742   -1.2523419 
C    -0.1704905    1.2195167    3.9220979 
C    -1.2937907   -3.0380951    1.3269615 
C    -4.2728938   -0.0677843   -2.6776402 
C     1.7489028    3.7954051   -2.1246114 
C     0.8319875    2.1751682    3.6583512 
C    -0.5876682   -4.0424373    2.0112763 
C    -2.6008426   -1.7459840   -3.1820742 
C     1.4049492    2.7489555    0.0249651 
C    -1.3142696    1.6251606    4.6384824 
C    -1.4368913   -3.1562496   -0.0736600 
C    -5.2573399   -1.0660720   -2.6352129 
C     3.0556982    4.1408575   -1.7474371 
C     0.6908823    3.5040096    4.0796079 
C    -0.0134477   -5.1192929    1.3131900 
C    -3.5830250   -2.7445839   -3.1396843 
C     2.7078220    3.0956232    0.4061796 
C    -1.4528890    2.9524959    5.0697922 
C    -0.8650617   -4.2270380   -0.7706714 
C    -4.9160654   -2.4076785   -2.8615862 
C     3.5457895    3.7846022   -0.4839155 
C    -0.4562637    3.8981787    4.7849519 
C    -0.1376577   -5.2102203   -0.0797248 
H    -0.9797369    0.2517578   -3.5471722 
H    -1.2112313    3.3242432   -1.0379428 
H     1.0696026   -0.3680570    3.2188035 
H    -2.8466951   -1.5827719    1.5414955 
H    -3.0623219    1.9953568   -0.2759294 
H    -3.1190037    0.2183796   -0.2322350 
H    -1.3961168    2.0366618    1.6217917 
H    -2.7767807    1.0409301    2.1198585 
H    -3.0153866    2.4922710   -2.9446555 
H    -2.3571296    2.0591399   -4.5394390 
H    -0.0461020    2.5412804   -3.7705869 
H    -1.0311187    3.9732187   -3.3744131 
H    -0.7479347   -1.0865391    5.2269447 
H     0.0847056   -2.2001197    4.1305986 
H    -2.3085606   -2.7722475    3.9245220 
H    -2.7631723   -1.0646576    3.8277943 
H    -4.5611809    0.9745326   -2.5056303 
H     1.3936602    4.0885212   -3.1159543 
H     1.7365698    1.8585465    3.1276058 
H    -0.4772646   -3.9989244    3.0985769 
H    -1.5605342   -2.0109840   -3.4018224 
H     0.7667447    2.2206857    0.7419001 
H    -2.1054082    0.9033285    4.8690334 
H    -2.0174119   -2.4074988   -0.6255466 
H    -6.2976034   -0.7921677   -2.4304335 
H     3.6909436    4.6942121   -2.4470990 
H     1.4815201    4.2303356    3.8634138 
H     0.5316123   -5.8915097    1.8662520 
H    -3.3090056   -3.7878468   -3.3287159 
H     3.0669976    2.8364358    1.4074242 
H    -2.3446098    3.2487593    5.6321816 
H    -0.9969603   -4.2993184   -1.8555672 
H    -5.6863829   -3.1849147   -2.8314312 
H     4.5651460    4.0537810   -0.1891045 
H    -0.5688089    4.9342454    5.1201350 
H     0.3123255   -6.0489585   -0.6204015 
