101
Energy =
C     1.7690163   -1.2599631   -1.8606925 
C     2.5658749   -1.1337791   -0.7008726 
C     2.2060981   -1.8908787    0.4682304 
H     3.3252826   -0.3438289   -0.6401944 
Pd    0.5481440   -0.5564703   -0.0671998 
P    -0.9129161   -0.8518802    1.6886891 
P    -0.8614159    1.1289471   -0.8078495 
H     1.1392110   -2.1635391   -1.9083303 
H     1.7822220   -2.8927616    0.3094372 
C     1.9188148    0.7951993   -5.6273159 
C     1.0931743   -0.3252120   -5.4490229 
C     1.0725387   -0.9845507   -4.2145904 
C     1.8687322   -0.5346010   -3.1324544 
C     2.6942697    0.5954059   -3.3278395 
C     2.7196992    1.2467459   -4.5641319 
H     1.9438976    1.3119101   -6.5922604 
H     0.4710459   -0.6893894   -6.2729061 
H     0.4364452   -1.8673383   -4.0805731 
H     3.3071037    0.9797092   -2.5078081 
H     3.3673453    2.1183014   -4.6977408 
C     3.6702713   -1.1571673    4.4575782 
C     3.7017397   -0.1283669    3.5010158 
C     3.2561252   -0.3649194    2.1957875 
C     2.7673851   -1.6373379    1.8121527 
C     2.7589905   -2.6657856    2.7807872 
C     3.2026862   -2.4278499    4.0886400 
H     4.0142835   -0.9700237    5.4797480 
H     4.0693812    0.8655533    3.7772225 
H     3.2666614    0.4531543    1.4675866 
H     2.3998708   -3.6593816    2.4953895 
H     3.1891961   -3.2408184    4.8224472 
C    -1.5447818    1.0246001   -2.5658727 
C    -0.3507605    2.9393811   -0.9339681 
C    -0.4897708   -0.2162121    3.4062710 
C    -1.3998312   -2.5846344    2.2758952 
C    -2.2991739    1.2445795    0.3962390 
C    -2.5250586   -0.0724797    1.1515651 
C    -1.5602067    2.4860849   -3.1017208 
C    -1.4013667    3.4821572   -1.9327104 
C    -1.2308640   -1.1916576    4.3434303 
C    -0.9913114   -2.6010452    3.7690147 
C    -2.8197516    0.2084966   -2.5570615 
C     1.1223000    3.1428676   -1.2613088 
C    -0.7251766    1.2739890    3.4797964 
C    -0.8504333   -3.6640391    1.3593731 
C    -4.1002371    0.7878233   -2.4653344 
C     1.5700483    3.8753160   -2.3748718 
C     0.2719131    2.1334137    2.9705915 
C    -1.1273525   -3.5907502   -0.0237483 
C    -2.7185363   -1.1997937   -2.5465329 
C     2.0887812    2.6510272   -0.3563295 
C    -1.9370930    1.8380371    3.9236352 
C    -0.0453568   -4.7192711    1.8219501 
C    -5.2445867   -0.0179316   -2.3565476 
C     2.9392529    4.1198271   -2.5712063 
C     0.0548683    3.5137169    2.8729007 
C    -0.5841197   -4.5177047   -0.9210535 
C    -3.8590354   -2.0059841   -2.4328826 
C     3.4543030    2.8899410   -0.5498263 
C    -2.1550434    3.2219383    3.8306719 
C     0.5021981   -5.6515948    0.9234643 
C    -5.1287043   -1.4155101   -2.3322280 
C     3.8869615    3.6300056   -1.6631687 
C    -1.1676959    4.0623951    3.2941702 
C     0.2466236   -5.5483818   -0.4505130 
H    -0.7736511    0.4498342   -3.1062308 
H    -0.5231372    3.3617392    0.0728004 
H     0.5966972   -0.4139977    3.4852784 
H    -2.5055970   -2.5929695    2.2117101 
H    -2.0277898    2.0488447    1.1031994 
H    -3.2192331    1.5478482   -0.1308503 
H    -3.1891161    0.0755021    2.0219942 
H    -3.0014161   -0.8173482    0.4866359 
H    -2.4776460    2.6904285   -3.6784415 
H    -0.7142714    2.5944970   -3.8010184 
H    -1.1365203    4.4941362   -2.2863955 
H    -2.3628325    3.5842472   -1.3971246 
H    -2.3146918   -0.9720566    4.3635589 
H    -0.8579444   -1.0999998    5.3782765 
H     0.0840184   -2.8388719    3.8575134 
H    -1.5521240   -3.3750513    4.3204610 
H    -4.2127462    1.8777267   -2.4827210 
H     0.8540561    4.2786014   -3.0969726 
H     1.2277461    1.7007342    2.6548311 
H    -1.7760529   -2.7933634   -0.4043277 
H    -1.7274905   -1.6613150   -2.6321100 
H     1.7528337    2.0841401    0.5193900 
H    -2.7205834    1.2000512    4.3455803 
H     0.1637177   -4.8240963    2.8906961 
H    -6.2320390    0.4510433   -2.2924914 
H     3.2626547    4.7022465   -3.4402914 
H     0.8423390    4.1611311    2.4720822 
H    -0.8123418   -4.4388891   -1.9900222 
H    -3.7578740   -3.0967690   -2.4305464 
H     4.1843943    2.5098609    0.1736678 
H    -3.1017553    3.6449283    4.1825510 
H     1.1308510   -6.4631691    1.3044151 
H    -6.0230197   -2.0412243   -2.2480539 
H     4.9529677    3.8265382   -1.8160432 
H    -1.3424642    5.1407489    3.2220755 
H     0.6778853   -6.2733971   -1.1480891 
