101
Energy =
C     1.7633279   -1.3925926   -1.8952410 
C     2.5738329   -1.1761960   -0.7517834 
C     2.2373738   -1.8417260    0.4689812 
H     3.3209804   -0.3722058   -0.7559359 
Pd    0.5441835   -0.5744191   -0.1981058 
P    -0.7659783   -0.4294419    1.7013696 
P    -0.9650535    0.8893334   -1.1528539 
H     1.1951749   -2.3362933   -1.9097714 
H     1.7596165   -2.8296414    0.3880537 
C     1.8868744    0.5313011   -5.7368162 
C     1.2529350   -0.7095278   -5.5742716 
C     1.2375793   -1.3258186   -4.3166139 
C     1.8534058   -0.7152174   -3.1982002 
C     2.4839266    0.5373831   -3.3755434 
C     2.5021318    1.1478222   -4.6334528 
H     1.9029657    1.0168298   -6.7179470 
H     0.7720567   -1.1991588   -6.4272387 
H     0.7462852   -2.2979659   -4.1930914 
H     2.9393352    1.0507403   -2.5224967 
H     2.9939305    2.1182305   -4.7513607 
C     3.8723040   -0.9620676    4.3577384 
C     3.3048656   -2.2160331    4.0862185 
C     2.7974953   -2.5009258    2.8109886 
C     2.8439995   -1.5361492    1.7795145 
C     3.4254959   -0.2780357    2.0667172 
C     3.9353083    0.0038692    3.3385420 
H     4.2651220   -0.7376070    5.3543995 
H     3.2599943   -2.9783925    4.8711040 
H     2.3578985   -3.4811986    2.6016275 
H     3.4525155    0.4932939    1.2908474 
H     4.3768990    0.9852768    3.5416747 
C    -1.4970017    0.7792567   -2.9587730 
C    -0.5738895    2.7388989   -1.1818835 
C    -0.0707341   -0.2413506    3.4485645 
C    -1.7842540   -1.9865717    2.0346069 
C    -2.4925635    0.8512214   -0.0700302 
C    -2.0610191    0.8853551    1.4097389 
C    -1.4545430    2.2403765   -3.4918884 
C    -1.5030019    3.2369828   -2.3150685 
C    -0.6098381   -1.4782939    4.2217519 
C    -1.9101860   -2.0049492    3.5771361 
C    -2.7856818   -0.0098210   -3.0622159 
C     0.9151611    3.0349239   -1.3041635 
C    -0.3675645    1.1422252    3.9887744 
C    -1.1454020   -3.1765745    1.3354791 
C    -4.0551359    0.5995692   -3.0359745 
C     1.4735554    3.7188929   -2.3986984 
C    -1.5388295    1.4412293    4.7120575 
C    -0.3684645   -4.1429102    1.9968116 
C    -2.7152075   -1.4187340   -3.1000536 
C     1.7729675    2.6538440   -0.2483311 
C     0.5277042    2.1916617    3.6911220 
C    -1.2977261   -3.2824282   -0.0656480 
C    -5.2217759   -0.1796415   -3.0454462 
C     2.8473716    4.0072084   -2.4440060 
C    -1.8088603    2.7551548    5.1227289 
C     0.2631705   -5.1714668    1.2758514 
C    -3.8795922   -2.1986780   -3.1001730 
C     3.1432206    2.9380090   -0.2923011 
C     0.2546881    3.5059373    4.0935468 
C    -0.6710413   -4.3067578   -0.7852671 
C    -5.1389500   -1.5798606   -3.0705083 
C     3.6896381    3.6125755   -1.3969575 
C    -0.9182544    3.7925682    4.8090781 
C     0.1247677   -5.2519643   -0.1165977 
H    -0.6949610    0.1931638   -3.4375640 
H    -0.9127121    3.1357246   -0.2072434 
H     1.0203943   -0.3362364    3.3231191 
H    -2.7718155   -1.8129275    1.5711204 
H    -3.1652413    1.6932910   -0.3092810 
H    -3.0396695   -0.0780251   -0.3121389 
H    -1.6064085    1.8562956    1.6787192 
H    -2.9198471    0.7347294    2.0869951 
H    -2.2750835    2.4216237   -4.2063259 
H    -0.5111155    2.3652766   -4.0490338 
H    -1.2356086    4.2611256   -2.6290699 
H    -2.5335438    3.2959878   -1.9203642 
H    -0.7627029   -1.2294224    5.2856145 
H     0.1710532   -2.2559638    4.1857003 
H    -2.1642864   -3.0166273    3.9398033 
H    -2.7544847   -1.3502827    3.8582643 
H    -4.1407515    1.6915278   -3.0096243 
H     0.8413855    4.0423731   -3.2303354 
H    -2.2489821    0.6462294    4.9644298 
H    -0.2470239   -4.1049401    3.0833083 
H    -1.7313238   -1.9017036   -3.1357000 
H     1.3537035    2.1417619    0.6268851 
H     1.4539067    1.9649850    3.1498951 
H    -1.9265326   -2.5578629   -0.5973154 
H    -6.2006545    0.3110490   -3.0335476 
H     3.2571262    4.5465991   -3.3043792 
H    -2.7199839    2.9681485    5.6916654 
H     0.8642293   -5.9148439    1.8100438 
H    -3.8041283   -3.2909187   -3.1324996 
H     3.7882822    2.6515620    0.5453389 
H     0.9642432    4.3059753    3.8569679 
H    -0.8119946   -4.3741159   -1.8698079 
H    -6.0509095   -2.1854328   -3.0769608 
H     4.7599626    3.8394231   -1.4319494 
H    -1.1320962    4.8173151    5.1294644 
H     0.6180644   -6.0542192   -0.6745092 
