101
Energy =
C     1.7811336   -1.2446623   -1.8626330 
C     2.5716191   -1.1230142   -0.6980758 
C     2.2097648   -1.8870623    0.4656379 
H     3.3280927   -0.3309177   -0.6294336 
Pd    0.5487070   -0.5559360   -0.0699778 
P    -0.9130558   -0.8602136    1.6837422 
P    -0.8662597    1.1263572   -0.8079379 
H     1.1520740   -2.1483101   -1.9184454 
H     1.7894631   -2.8894370    0.3006190 
C     1.9482751    0.8375337   -5.6137181 
C     1.1053960   -0.2708640   -5.4408202 
C     1.0795802   -0.9400424   -4.2117996 
C     1.8866676   -0.5111161   -3.1291771 
C     2.7303359    0.6061947   -3.3196116 
C     2.7613989    1.2669399   -4.5507158 
H     1.9777925    1.3614349   -6.5746502 
H     0.4742378   -0.6184879   -6.2650004 
H     0.4307838   -1.8142613   -4.0825718 
H     3.3541954    0.9728868   -2.4999017 
H     3.4233782    2.1282397   -4.6805368 
C     3.6612163   -1.1683450    4.4624418 
C     3.6904778   -0.1343325    3.5114390 
C     3.2488113   -0.3658556    2.2039695 
C     2.7662709   -1.6382670    1.8124940 
C     2.7601242   -2.6718805    2.7755761 
C     3.1998490   -2.4389946    4.0856954 
H     4.0020416   -0.9851695    5.4863976 
H     4.0533110    0.8596443    3.7937250 
H     3.2573582    0.4562296    1.4801998 
H     2.4059324   -3.6654844    2.4841000 
H     3.1881365   -3.2558999    4.8151491 
C    -1.5502110    1.0232853   -2.5658094 
C    -0.3613388    2.9385478   -0.9308995 
C    -0.4922828   -0.2253291    3.4021929 
C    -1.3945645   -2.5951742    2.2687072 
C    -2.3049163    1.2348789    0.3956460 
C    -2.5272699   -0.0847193    1.1476190 
C    -1.5694336    2.4856024   -3.0990491 
C    -1.4140280    3.4799258   -1.9281661 
C    -1.2306473   -1.2041660    4.3379916 
C    -0.9866932   -2.6120999    3.7620290 
C    -2.8230649    0.2038473   -2.5584009 
C     1.1109664    3.1474628   -1.2585640 
C    -0.7322103    1.2640279    3.4781557 
C    -0.8416213   -3.6724813    1.3518188 
C    -4.1053031    0.7797439   -2.4701182 
C     2.0795473    2.6564254   -0.3554100 
C     0.2623597    2.1274898    2.9709066 
C    -1.1145036   -3.5973270   -0.0319794 
C    -2.7181582   -1.2041924   -2.5467806 
C     1.5556327    3.8851520   -2.3699028 
C    -1.9458906    1.8235541    3.9229404 
C    -0.0380100   -4.7284344    1.8153191 
C    -5.2478124   -0.0290790   -2.3645625 
C     3.4439928    2.9020618   -0.5479168 
C     0.0413003    3.5073744    2.8762303 
C    -0.5686904   -4.5230545   -0.9290010 
C    -3.8567545   -2.0134384   -2.4360210 
C     2.9237484    4.1363688   -2.5652234 
C    -2.1678437    3.2070165    3.8331049 
C     0.5119346   -5.6596830    0.9171931 
C    -5.1283186   -1.4263237   -2.3396601 
C     3.8734391    3.6481247   -1.6584545 
C    -1.1828584    4.0515581    3.2986629 
C     0.2604300   -5.5545460   -0.4573867 
H    -0.7776853    0.4517717   -3.1076196 
H    -0.5345707    3.3584409    0.0767599 
H     0.5947531   -0.4199510    3.4812893 
H    -2.5002946   -2.6069208    2.2040902 
H    -2.0365955    2.0383392    1.1046713 
H    -3.2255104    1.5364898   -0.1314838 
H    -3.1922394    0.0591434    2.0180496 
H    -3.0009981   -0.8294266    0.4806431 
H    -2.4870066    2.6884025   -3.6760962 
H    -0.7232958    2.5976792   -3.7975690 
H    -1.1526833    4.4934960   -2.2798510 
H    -2.3757551    3.5776220   -1.3922225 
H    -2.3151423   -0.9878840    4.3581194 
H    -0.8582086   -1.1125201    5.3730085 
H     0.0892785   -2.8469391    3.8506561 
H    -1.5455469   -3.3883399    4.3123211 
H    -4.2206655    1.8693274   -2.4879125 
H     1.7459837    2.0852402    0.5184614 
H     1.2194824    1.6984105    2.6542482 
H    -1.7620893   -2.7993482   -0.4132136 
H    -1.7256658   -1.6631927   -2.6293236 
H     0.8379831    4.2877280   -3.0907605 
H    -2.7276183    1.1823485    4.3432659 
H     0.1682094   -4.8345380    2.8844967 
H    -6.2366966    0.4372717   -2.3034984 
H     4.1756334    2.5225338    0.1743272 
H     0.8269061    4.1579296    2.4768422 
H    -0.7936100   -4.4426961   -1.9985494 
H    -3.7525994   -3.1039373   -2.4326223 
H     3.2446145    4.7229769   -3.4324172 
H    -3.1158129    3.6264661    4.1858387 
H     1.1392110   -6.4719674    1.2989078 
H    -6.0212369   -2.0544004   -2.2583026 
H     4.9385616    3.8502565   -1.8102985 
H    -1.3607364    5.1295665    3.2290380 
H     0.6936120   -6.2786851   -1.1546853 
