101
Energy =
C     1.7277258   -1.5057911   -1.9378383 
C     2.5518407   -1.2089098   -0.8224045 
C     2.2354960   -1.7556073    0.4561166 
H     3.3161443   -0.4259611   -0.9003745 
Pd    0.5261479   -0.5451067   -0.2853026 
P    -0.6898111   -0.2607685    1.6703283 
P    -1.1548213    0.6820638   -1.3158554 
H     1.1266297   -2.4262784   -1.8734341 
H     1.7174700   -2.7261196    0.4694553 
C     1.9090346    0.1375222   -5.9133089 
C     1.0301638   -0.9118381   -5.6048155 
C     1.0061749   -1.4471999   -4.3109935 
C     1.8507835   -0.9434084   -3.2930515 
C     2.7569363    0.0891354   -3.6320703 
C     2.7799947    0.6254596   -4.9243138 
H     1.9310063    0.5602108   -6.9228054 
H     0.3657171   -1.3181714   -6.3743994 
H     0.3304287   -2.2776428   -4.0770974 
H     3.4622099    0.4695445   -2.8865901 
H     3.4882249    1.4249629   -5.1650529 
C     4.1884587   -0.7541519    4.1644027 
C     3.5011127   -1.9685916    4.0205522 
C     2.8781400   -2.2843130    2.8056394 
C     2.9183120   -1.3886287    1.7127782 
C     3.6008116   -0.1611459    1.8775559 
C     4.2386848    0.1442671    3.0848834 
H     4.6818488   -0.5076530    5.1099053 
H     3.4603592   -2.6784544    4.8533594 
H     2.3619327   -3.2428835    2.6889685 
H     3.6072308    0.5740091    1.0664049 
H     4.7694878    1.0964406    3.1901513 
C    -1.8096443    0.3764894   -3.0626987 
C    -0.7265202    2.4975711   -1.6251574 
C    -0.0898453    0.1887757    3.4035111 
C    -1.4826478   -1.9132845    2.2077338 
C    -2.6064267    0.7204212   -0.1428993 
C    -2.1062231    0.8985634    1.2995910 
C    -1.8410339    1.7786491   -3.7198970 
C    -0.6468737    2.5724725   -3.1711726 
C    -1.0067688   -0.6596052    4.3193706 
C    -1.0877746   -2.0574240    3.6971146 
C    -3.0658016   -0.4642138   -3.1043138 
C     0.4756089    2.9884325   -0.8508180 
C     0.0140456    1.6619648    3.7357721 
C    -1.1077223   -3.0585649    1.2774002 
C    -4.3456611    0.0840180   -2.8793941 
C     1.7657616    2.4987323   -1.1380055 
C     1.2805257    2.2764059    3.7801440 
C    -0.2692125   -4.1151955    1.6798943 
C    -2.9656719   -1.8513738   -3.3330998 
C     0.3300101    3.9405728    0.1744647 
C    -1.1191124    2.4386265    4.0594871 
C    -1.5745601   -3.0581589   -0.0562754 
C    -5.4848963   -0.7328787   -2.8722593 
C     2.8808045    2.9525051   -0.4223972 
C     1.4159337    3.6200693    4.1520768 
C     0.1300304   -5.1117734    0.7738876 
C    -4.1020371   -2.6717799   -3.3226080 
C     1.4456475    4.3996370    0.8895240 
C    -0.9864781    3.7878686    4.4160460 
C    -1.1848543   -4.0554389   -0.9595407 
C    -5.3674590   -2.1144241   -3.0877159 
C     2.7238992    3.9053730    0.5965864 
C     0.2829583    4.3829829    4.4691719 
C    -0.3158934   -5.0802524   -0.5537091 
H    -0.9866687   -0.1930173   -3.5310076 
H    -1.6201884    3.0619838   -1.2988917 
H     0.9255077   -0.2497142    3.4312897 
H    -2.5730671   -1.7391867    2.1354766 
H    -3.3023325    1.5290586   -0.4264627 
H    -3.1530935   -0.2317844   -0.2693432 
H    -1.6999461    1.9155087    1.4511238 
H    -2.9246834    0.7550781    2.0269078 
H    -2.7809653    2.3029122   -3.4694341 
H    -1.8059313    1.6781414   -4.8182801 
H     0.2992606    2.1230110   -3.5265056 
H    -0.6543955    3.6254963   -3.5009722 
H    -2.0129476   -0.2065230    4.3872484 
H    -0.5942792   -0.6867544    5.3428076 
H    -0.0889442   -2.5205372    3.7732341 
H    -1.7977661   -2.7158096    4.2265203 
H    -4.4606926    1.1605188   -2.7122860 
H     1.8951987    1.7693647   -1.9436126 
H     2.1671153    1.6848542    3.5336492 
H     0.0829320   -4.1753322    2.7129475 
H    -1.9799877   -2.2863638   -3.5295775 
H    -0.6645925    4.3362168    0.4120171 
H    -2.1167851    1.9873146    4.0576892 
H    -2.2635210   -2.2771710   -0.3972434 
H    -6.4702104   -0.2866753   -2.7014837 
H     3.8786501    2.5731116   -0.6707428 
H     2.4126776    4.0719482    4.1937005 
H     0.7867289   -5.9189061    1.1148578 
H    -4.0004890   -3.7466738   -3.5064006 
H     1.3110336    5.1445075    1.6784735 
H    -1.8775645    4.3710920    4.6711670 
H    -1.5715005   -4.0362572   -1.9826128 
H    -6.2582588   -2.7506971   -3.0827329 
H     3.5946351    4.2659617    1.1541094 
H     0.3870863    5.4324758    4.7637482 
H    -0.0079976   -5.8579064   -1.2599863 
