101
Energy =
C     1.8304157   -1.0572553   -2.0961735 
C     2.6314594   -0.9074369   -0.9347931 
C     2.3649009   -1.7044391    0.2172959 
H     3.3264216   -0.0615751   -0.8621187 
Pd    0.5608789   -0.4975823   -0.3404536 
P    -0.7416674   -0.3931181    1.5813965 
P    -1.0015310    0.9242207   -1.2879317 
H     1.3200471   -2.0263045   -2.2182597 
H     1.9402809   -2.7043480    0.0472542 
C     1.9986239    1.2243193   -5.7394167 
C     1.2757715    0.0233139   -5.6767365 
C     1.2390693   -0.7089090   -4.4833486 
C     1.9154419   -0.2520570   -3.3267413 
C     2.6341326    0.9622002   -3.4035832 
C     2.6795186    1.6852816   -4.5997926 
H     2.0370708    1.7960828   -6.6722276 
H     0.7477504   -0.3492100   -6.5604654 
H     0.6885081   -1.6561251   -4.4440854 
H     3.1490258    1.3569477   -2.5223856 
H     3.2455274    2.6213248   -4.6404067 
C     4.1417295   -1.1163338    4.0997690 
C     3.6515718   -2.3754155    3.7234318 
C     3.0953171   -2.5641243    2.4507827 
C     3.0056146   -1.4949127    1.5301878 
C     3.5133342   -0.2334004    1.9221543 
C     4.0785953   -0.0488803    3.1880586 
H     4.5754418   -0.9671595    5.0935542 
H     3.7106087   -3.2182287    4.4198512 
H     2.7418361   -3.5581271    2.1571289 
H     3.4410641    0.6149899    1.2338237 
H     4.4628326    0.9363372    3.4729136 
C    -1.7927882    0.5656186   -2.9502078 
C    -0.5138670    2.7091431   -1.7315611 
C    -0.0416933   -0.3242737    3.3445970 
C    -1.9753059   -1.7809317    1.9011704 
C    -2.4088159    1.0998874   -0.0722437 
C    -1.8752850    1.0805782    1.3699594 
C    -2.1130803    1.9644018   -3.5118799 
C    -0.8717583    2.8276412   -3.2360567 
C    -0.8018584   -1.4426326    4.1137204 
C    -2.1625128   -1.7207216    3.4465215 
C    -2.8742731   -0.4865303   -2.8549904 
C     0.8879986    3.1425122   -1.3306415 
C    -0.1296133    1.0919607    3.8819871 
C    -1.5467906   -3.1269287    1.3505674 
C    -4.2455621   -0.1650102   -2.8417987 
C     1.4068576    2.8238521   -0.0585357 
C    -1.2256853    1.5524308    4.6377602 
C    -0.2545142   -3.6453167    1.5658796 
C    -2.4983085   -1.8407786   -2.7252387 
C     1.6836020    3.9227403   -2.1920697 
C     0.8882478    2.0095836    3.5489392 
C    -2.4655793   -3.9025591    0.6178524 
C    -5.2143262   -1.1720978   -2.7095481 
C     2.6847033    3.2483300    0.3298177 
C    -1.3023256    2.8937297    5.0421419 
C     0.1095650   -4.9029084    1.0657493 
C    -3.4642669   -2.8462117   -2.5960136 
C     2.9650945    4.3457245   -1.8079580 
C     0.8090203    3.3513946    3.9436442 
C    -2.1045724   -5.1617346    0.1167768 
C    -4.8281873   -2.5144983   -2.5861723 
C     3.4764118    4.0036486   -0.5486867 
C    -0.2910178    3.7997892    4.6907195 
C    -0.8151350   -5.6667981    0.3374389 
H    -0.9487635    0.1563532   -3.5378548 
H    -1.2362239    3.3186905   -1.1535418 
H     1.0238270   -0.5919357    3.2400126 
H    -2.9138606   -1.4902585    1.3985898 
H    -2.9855863    2.0192126   -0.2761224 
H    -3.0819307    0.2428203   -0.2606539 
H    -1.2898415    1.9888392    1.6011347 
H    -2.6964784    1.0340804    2.1062398 
H    -2.9968282    2.3995136   -3.0093199 
H    -2.3424819    1.9088002   -4.5901983 
H    -0.0268524    2.4525316   -3.8426000 
H    -1.0386212    3.8827136   -3.5126537 
H    -0.9229792   -1.1659266    5.1747691 
H    -0.1891653   -2.3591879    4.0977999 
H    -2.6126976   -2.6593066    3.8131149 
H    -2.8727681   -0.9069581    3.6827774 
H    -4.5676937    0.8760153   -2.9453969 
H     0.8036996    2.2436310    0.6490859 
H    -2.0295987    0.8650123    4.9213984 
H     0.4812552   -3.0565794    2.1227808 
H    -1.4344224   -2.1066345   -2.7265881 
H     1.3104753    4.2046876   -3.1802450 
H     1.7539366    1.6534744    2.9808928 
H    -3.4729959   -3.5136493    0.4323798 
H    -6.2762014   -0.9046160   -2.7119309 
H     3.0584122    3.0008755    1.3289390 
H    -2.1583488    3.2311926    5.6358858 
H     1.1178983   -5.2917593    1.2468402 
H    -3.1491371   -3.8902394   -2.5052524 
H     3.5643278    4.9482174   -2.4987441 
H     1.6102873    4.0469275    3.6720824 
H    -2.8356414   -5.7512893   -0.4468066 
H    -5.5862219   -3.2990080   -2.4919575 
H     4.4757305    4.3345007   -0.2481584 
H    -0.3554262    4.8465399    5.0047330 
H    -0.5330537   -6.6503906   -0.0517541 
