101
Energy =
C     1.6769515   -1.5647950   -2.0296997 
C     2.5018529   -1.2753025   -0.9157373 
C     2.1780547   -1.7929070    0.3754935 
H     3.2759212   -0.5023134   -1.0007897 
Pd    0.4955290   -0.5584005   -0.3696725 
P    -0.6890718   -0.2246534    1.5982226 
P    -1.0688562    0.8422872   -1.3363347 
H     1.0289448   -2.4514246   -1.9470450 
H     1.6787370   -2.7719530    0.4204635 
C     1.9984630   -0.0114513   -6.0331257 
C     0.9757861   -0.9084707   -5.6878729 
C     0.9029807   -1.4198268   -4.3867860 
C     1.8386348   -1.0386784   -3.3955942 
C     2.8848069   -0.1634604   -3.7716359 
C     2.9589581    0.3468683   -5.0726687 
H     2.0609281    0.3893117   -7.0498658 
H     0.2377316   -1.2168012   -6.4355967 
H     0.1125181   -2.1330113   -4.1283884 
H     3.6593889    0.1085727   -3.0479221 
H     3.7779683    1.0214386   -5.3429292 
C     4.0462716   -0.5259177    4.0447624 
C     3.9738135    0.3578795    2.9539615 
C     3.3791763   -0.0476409    1.7546295 
C     2.8508242   -1.3542732    1.6152858 
C     2.9315560   -2.2328954    2.7181951 
C     3.5233179   -1.8217903    3.9210158 
H     4.5044393   -0.2040293    4.9853393 
H     4.3682353    1.3755775    3.0442058 
H     3.2817450    0.6708096    0.9332829 
H     2.5289894   -3.2468017    2.6230446 
H     3.5786368   -2.5177522    4.7646920 
C    -1.8135254    0.6523754   -3.0550604 
C    -0.4962034    2.6320093   -1.6014916 
C     0.0725744    0.0599209    3.3093222 
C    -1.7229881   -1.7399181    2.0741364 
C    -2.4946153    0.9901304   -0.1397608 
C    -1.9507639    1.1180504    1.2938544 
C    -1.9266929    2.1018201   -3.5757693 
C    -0.6500669    2.8349030   -3.1329960 
C    -0.3921908   -1.1660306    4.1427707 
C    -1.7423902   -1.6986338    3.6199617 
C    -3.0348902   -0.2407153   -3.0394554 
C     0.8630318    2.9321140   -1.0071363 
C    -0.2607923    1.4399967    3.8406612 
C    -1.1579309   -2.9797957    1.3976693 
C    -4.3473796    0.2673437   -2.9852410 
C     0.9920531    3.7724908    0.1138586 
C    -1.4032735    1.6975862    4.6248455 
C    -1.4280125   -3.1713035    0.0245096 
C    -2.8569696   -1.6404621   -3.0044107 
C     2.0291140    2.3625662   -1.5579538 
C     0.5807801    2.5201273    3.5027292 
C    -0.3365060   -3.9148087    2.0517726 
C    -5.4473341   -0.5996810   -2.8968044 
C     2.2542692    4.0430521    0.6657127 
C    -1.6972584    2.9990305    5.0571808 
C    -0.8727423   -4.2475596   -0.6785182 
C    -3.9530475   -2.5074520   -2.9086632 
C     3.2889955    2.6312094   -1.0093525 
C     0.2855828    3.8208759    3.9324286 
C     0.2240716   -4.9945779    1.3476082 
C    -5.2556012   -1.9879915   -2.8525412 
C     3.4072043    3.4734170    0.1085410 
C    -0.8569154    4.0665716    4.7090707 
C    -0.0313984   -5.1600406   -0.0207944 
H    -1.0077849    0.1480866   -3.6216193 
H    -1.2562283    3.2500989   -1.0893515 
H     1.1611329    0.0049890    3.1485426 
H    -2.7352162   -1.5630297    1.6687393 
H    -3.1355643    1.8487739   -0.4080193 
H    -3.1066133    0.0767637   -0.2604663 
H    -1.4300964    2.0810574    1.4458963 
H    -2.7562361    1.0627227    2.0467474 
H    -2.8104385    2.6053755   -3.1425565 
H    -2.0510769    2.1098183   -4.6726817 
H     0.2233160    2.4086657   -3.6596650 
H    -0.6803016    3.9119133   -3.3706944 
H    -0.4496725   -0.8997463    5.2119342 
H     0.3827297   -1.9449007    4.0496001 
H    -1.9777819   -2.6938173    4.0367447 
H    -2.5581275   -1.0252079    3.9369090 
H    -4.5216795    1.3475433   -3.0182370 
H     0.0994023    4.2258617    0.5603794 
H    -2.0713084    0.8793448    4.9135301 
H    -2.0940559   -2.4742394   -0.4971188 
H    -1.8413921   -2.0494435   -3.0488497 
H     1.9501052    1.7090965   -2.4328547 
H     1.4755650    2.3329576    2.8989579 
H    -0.1234005   -3.8125288    3.1196669 
H    -6.4604314   -0.1852349   -2.8654988 
H     2.3360113    4.7108004    1.5294663 
H    -2.5854999    3.1776133    5.6722381 
H    -1.1055817   -4.3811821   -1.7408144 
H    -3.7909577   -3.5903922   -2.8827041 
H     4.1849422    2.1900399   -1.4603101 
H     0.9561146    4.6460503    3.6695188 
H     0.8617288   -5.7109362    1.8762084 
H    -6.1156807   -2.6616654   -2.7832943 
H     4.3920583    3.6905086    0.5348160 
H    -1.0856352    5.0816695    5.0493467 
H     0.4062343   -6.0022421   -0.5661205 
