101
Energy =
C     3.0342999   -0.0763725   -0.4532027 
C     2.8380377    1.1786426    0.2030262 
C     2.3956796    1.2127165    1.5465742 
H     2.8540008    2.1015064   -0.3901223 
Pd    0.9221719    0.1055359    0.2237182 
P    -1.2160092    0.6616622    0.9447118 
P    -0.1277672   -1.5489191   -1.0188886 
H     3.3751014   -0.9121948    0.1731967 
H     2.5411415    0.2962744    2.1404313 
C     3.7756271   -0.5793518   -4.6664133 
C     4.2469181   -1.5235463   -3.7417773 
C     4.0172584   -1.3432237   -2.3707533 
C     3.3062546   -0.2176665   -1.8968595 
C     2.8295240    0.7225692   -2.8409839 
C     3.0700403    0.5462646   -4.2076971 
H     3.9538975   -0.7199193   -5.7372084 
H     4.8018823   -2.4015067   -4.0883787 
H     4.4011520   -2.0786390   -1.6544503 
H     2.2298655    1.5750653   -2.5064427 
H     2.6914406    1.2856465   -4.9215850 
C     1.3567616    4.6299150    3.9465034 
C     1.2748280    3.3290415    4.4669976 
C     1.6405390    2.2347156    3.6744353 
C     2.0837188    2.4107792    2.3422263 
C     2.1995848    3.7306792    1.8471169 
C     1.8333832    4.8250997    2.6391992 
H     1.0727941    5.4892778    4.5622042 
H     0.9301906    3.1673829    5.4936784 
H     1.5884892    1.2191855    4.0830648 
H     2.5985976    3.9078641    0.8435030 
H     1.9313991    5.8394165    2.2387238 
C    -1.7149757    1.2692090    2.6624134 
C    -1.9262170    2.1724430    0.0344276 
C     0.3732121   -2.0223857   -2.7821009 
C     0.1844233   -3.2619084   -0.2998840 
C    -2.3592645   -0.7249456    0.4481017 
C    -1.9657536   -1.2571181   -0.9415707 
C    -2.7001652    2.4328544    2.3819840 
C    -2.1672856    3.2018375    1.1671320 
C     0.8693484   -3.4934209   -2.6654043 
C     1.3160548   -3.7689212   -1.2201203 
C    -2.1727056    0.2221062    3.6553507 
C    -1.1003067    2.6429749   -1.1441338 
C    -0.7002582   -1.7361300   -3.8113540 
C     0.4095968   -3.2397993    1.1959978 
C    -1.3466088   -0.1216211    4.7436801 
C    -1.5153402    2.3867656   -2.4645916 
C    -0.6124131   -0.5742305   -4.6034301 
C    -0.6586691   -3.5259738    2.0693254 
C    -3.4360420   -0.3989634    3.5557993 
C     0.0994180    3.3559694   -0.9462048 
C    -1.8173025   -2.5809461   -3.9807868 
C     1.6502136   -2.8731165    1.7559077 
C    -1.7678928   -1.0472898    5.7078877 
C    -0.7604349    2.8418563   -3.5565070 
C    -1.6076707   -0.2685018   -5.5424156 
C    -0.5047122   -3.4194248    3.4576816 
C    -3.8550376   -1.3346609    4.5112181 
C     0.8531654    3.8147865   -2.0337951 
C    -2.8151392   -2.2740703   -4.9155348 
C     1.8094423   -2.7702367    3.1452548 
C    -3.0235310   -1.6603428    5.5940065 
C     0.4246347    3.5601527   -3.3468923 
C    -2.7142306   -1.1153770   -5.7007050 
C     0.7289692   -3.0324832    4.0003074 
H    -0.7723602    1.7124690    3.0332613 
H    -2.9101975    1.8302400   -0.3362684 
H     1.2390000   -1.3709917   -2.9864445 
H    -0.7320136   -3.8426385   -0.5196073 
H    -2.2604813   -1.5070074    1.2206961 
H    -3.4063474   -0.3752949    0.4535119 
H    -2.5078347   -2.1863800   -1.1864584 
H    -2.1979752   -0.5258797   -1.7370244 
H    -2.7853099    3.0733184    3.2767422 
H    -3.7101932    2.0372706    2.1678845 
H    -2.8651642    3.9851666    0.8248115 
H    -1.2191891    3.7029391    1.4354686 
H     1.6863416   -3.6619853   -3.3866994 
H     0.0525942   -4.1874199   -2.9295240 
H     1.5133452   -4.8401788   -1.0423745 
H     2.2523243   -3.2215917   -1.0068007 
H    -0.3662465    0.3545754    4.8425644 
H    -2.4470931    1.8385401   -2.6471716 
H     0.2500451    0.0891577   -4.4815448 
H    -1.6244037   -3.8405213    1.6554801 
H    -4.1138301   -0.1379292    2.7361689 
H     0.4374622    3.5682345    0.0724265 
H    -1.9119405   -3.4942887   -3.3819859 
H     2.5069493   -2.6824140    1.1026285 
H    -1.1128433   -1.2879180    6.5518264 
H    -1.1109567    2.6436146   -4.5739116 
H    -1.5135662    0.6301960   -6.1616716 
H    -1.3521092   -3.6322037    4.1160233 
H    -4.8420061   -1.7998379    4.4179192 
H     1.7735274    4.3829480   -1.8576692 
H    -3.6715793   -2.9458677   -5.0356425 
H     2.7848821   -2.4936416    3.5602523 
H    -3.3573485   -2.3807883    6.3478966 
H     1.0072573    3.9265027   -4.1985347 
H    -3.4895946   -0.8795396   -6.4368107 
H     0.8495304   -2.9478429    5.0849887 
