101
Energy =
C     3.0767656    0.0602861   -0.6099518 
C     2.8368798    1.2945101    0.0749503 
C     2.4722833    1.2777587    1.4414146 
H     2.7552854    2.2259332   -0.4997649 
Pd    0.9968637    0.1035651    0.1711815 
P    -1.1182238    0.5316084    1.0094382 
P    -0.0137459   -1.6601827   -0.9393083 
H     3.5181664   -0.7525660   -0.0172980 
H     2.6970609    0.3550589    2.0001665 
C     3.5627978   -0.3691475   -4.8677772 
C     4.1392303   -1.2972705   -3.9873347 
C     3.9940285   -1.1389599   -2.6021684 
C     3.2633548   -0.0528428   -2.0689386 
C     2.6816703    0.8716221   -2.9682669 
C     2.8379450    0.7178768   -4.3498468 
H     3.6757276   -0.4917559   -5.9496095 
H     4.7109589   -2.1445054   -4.3801415 
H     4.4596759   -1.8606787   -1.9211011 
H     2.0728784    1.6969814   -2.5853773 
H     2.3796960    1.4453757   -5.0285562 
C     1.4780782    4.5772416    4.0163721 
C     1.4617552    3.2580482    4.4952933 
C     1.8013975    2.1998454    3.6440251 
C     2.1516459    2.4341931    2.2925958 
C     2.1917002    3.7713121    1.8337959 
C     1.8544601    4.8286997    2.6860797 
H     1.2163029    5.4075165    4.6799451 
H     1.1902607    3.0543203    5.5361780 
H     1.8023399    1.1714476    4.0245374 
H     2.5020234    3.9874627    0.8075097 
H     1.8951377    5.8579122    2.3144856 
C    -1.4715187    1.1771268    2.7465569 
C    -2.0164806    1.9122787    0.0679554 
C     0.3977745   -2.1173289   -2.7282499 
C     0.4706007   -3.3396524   -0.2314174 
C    -2.1679342   -0.9758184    0.6972789 
C    -1.8600765   -1.5236859   -0.7087716 
C    -1.7867130    2.6730897    2.4922111 
C    -2.5825376    2.8457111    1.1804018 
C     0.9516326   -3.5675473   -2.6453739 
C     1.5431936   -3.7988020   -1.2443789 
C    -2.4942667    0.3320995    3.4809372 
C    -1.1307514    2.5701605   -0.9754424 
C    -0.7400117   -1.8500757   -3.6901511 
C     0.8196584   -3.2990888    1.2402092 
C    -3.8767465    0.6052784    3.4671063 
C    -0.1725914    3.5411342   -0.6217321 
C    -1.8414545   -2.7223405   -3.8116438 
C    -0.1243453   -3.7193666    2.1978546 
C    -2.0434487   -0.8047658    4.1859550 
C    -1.2604498    2.2204519   -2.3339507 
C    -0.7320091   -0.6680246   -4.4571212 
C     2.0579621   -2.8026767    1.6970635 
C    -4.7802110   -0.2350864    4.1351896 
C     0.6230852    4.1543321   -1.5995305 
C    -2.9040806   -2.4192804   -4.6739940 
C     0.1511825   -3.6312941    3.5701441 
C    -2.9451493   -1.6454811    4.8505327 
C    -0.4685684    2.8362981   -3.3139128 
C    -1.7948083   -0.3624199   -5.3185842 
C     2.3337793   -2.7059886    3.0678368 
C    -4.3199220   -1.3654792    4.8252446 
C     0.4755252    3.8081255   -2.9519293 
C    -2.8866684   -1.2362060   -5.4285565 
C     1.3776908   -3.1141210    4.0114274 
H    -0.5126245    1.0996556    3.2841143 
H    -2.8483959    1.4169039   -0.4614497 
H     1.2312600   -1.4369626   -2.9728423 
H    -0.4258225   -3.9742998   -0.3677327 
H    -1.9131496   -1.7098252    1.4820124 
H    -3.2360519   -0.7231647    0.8161026 
H    -2.3371587   -2.5047482   -0.8747601 
H    -2.2307059   -0.8459873   -1.4994983 
H    -0.8242752    3.2117606    2.4224601 
H    -2.3278771    3.1018209    3.3534766 
H    -3.6411053    2.5847483    1.3439475 
H    -2.5647676    3.8954241    0.8415215 
H     1.7018507   -3.7200606   -3.4395469 
H     0.1389848   -4.2944558   -2.8196770 
H     1.8115227   -4.8557750   -1.0746471 
H     2.4644134   -3.2001829   -1.1220864 
H    -4.2613135    1.4858871    2.9441754 
H    -0.0518845    3.8321014    0.4259313 
H    -1.8742160   -3.6515173   -3.2311933 
H    -1.0853366   -4.1294977    1.8651335 
H    -0.9710824   -1.0312959    4.2127755 
H    -1.9998536    1.4700865   -2.6369647 
H     0.1226160    0.0109888   -4.3737826 
H     2.8219329   -2.5031088    0.9737707 
H    -5.8496595   -0.0001970    4.1187074 
H     1.3505763    4.9193951   -1.3065649 
H    -3.7478155   -3.1120883   -4.7597557 
H    -0.5943784   -3.9743486    4.2946748 
H    -2.5722468   -2.5167613    5.3996057 
H    -0.5998269    2.5627920   -4.3658603 
H    -1.7664331    0.5571632   -5.9133520 
H     3.3054383   -2.3247877    3.4004045 
H    -5.0265417   -2.0179141    5.3482231 
H     1.0876503    4.2966972   -3.7169432 
H    -3.7155718   -1.0021551   -6.1043781 
H     1.5961076   -3.0485136    5.0823059 
