101
Energy =
C     2.8240096   -0.4062976    0.0936851 
C     2.6767607    0.9571642    0.4875660 
C     2.0166507    1.2771937    1.7041636 
H     2.8897590    1.7556346   -0.2342027 
Pd    0.6728334    0.0849855    0.3832692 
P    -1.4355516    0.9366533    0.7928054 
P    -0.3921248   -1.5945155   -0.8084359 
H     2.9106019   -1.1622722    0.8888779 
H     2.0418103    0.5108524    2.4948404 
C     4.0513857   -1.7545238   -3.8103334 
C     4.1595955   -2.5978252   -2.6945155 
C     3.7787123   -2.1418792   -1.4250052 
C     3.2776351   -0.8330992   -1.2448370 
C     3.1793469    0.0087806   -2.3786337 
C     3.5652331   -0.4462115   -3.6439405 
H     4.3454789   -2.1107454   -4.8026471 
H     4.5461788   -3.6156051   -2.8123858 
H     3.8650599   -2.8014947   -0.5560043 
H     2.7707753    1.0189473   -2.2722669 
H     3.4790652    0.2192095   -4.5095777 
C     0.8777090    5.1804618    3.1159068 
C     0.9774101    4.0984737    4.0030907 
C     1.3641480    2.8381209    3.5286801 
C     1.6520672    2.6313817    2.1593280 
C     1.5430888    3.7300084    1.2765441 
C     1.1670474    4.9895826    1.7536315 
H     0.5806774    6.1682856    3.4826561 
H     0.7618636    4.2367556    5.0675831 
H     1.4589725    2.0005149    4.2292690 
H     1.7267038    3.5972675    0.2056464 
H     1.0905930    5.8279093    1.0538624 
C    -1.9985165    1.5217426    2.4877189 
C    -1.9992848    2.5202046   -0.1050218 
C     0.2291789   -2.3087782   -2.4477723 
C    -0.4840567   -3.2407262    0.1157900 
C    -2.6575013   -0.3753635    0.2573574 
C    -2.1771125   -1.0818494   -1.0228778 
C    -3.0655473    2.5889824    2.1667791 
C    -2.4775420    3.4507794    1.0399174 
C     0.3899798   -3.8329891   -2.1819203 
C    -0.5230181   -4.2862950   -1.0228127 
C    -2.3327550    0.3936762    3.4358373 
C    -0.9989830    3.1184796   -1.0837618 
C    -0.6564808   -1.8742331   -3.5972537 
C     0.6481826   -3.3154696    1.1303827 
C    -1.3186034   -0.1368902    4.2602115 
C    -0.7420582    4.5030054   -1.1126136 
C    -1.8056565   -2.5916066   -3.9853015 
C     1.8152910   -4.0752009    0.9399060 
C    -3.6186765   -0.1806665    3.5020197 
C    -0.3342489    2.3035831   -2.0238174 
C    -0.3560657   -0.6712638   -4.2683052 
C     0.5392167   -2.5389262    2.3057005 
C    -1.5764717   -1.2125379    5.1205431 
C     0.1714578    5.0509623   -2.0260403 
C    -2.6345325   -2.1120655   -5.0099642 
C     2.8581799   -4.0380024    1.8821019 
C    -3.8784455   -1.2574571    4.3626204 
C     0.5760087    2.8479037   -2.9393510 
C    -1.1880860   -0.1854265   -5.2856052 
C     1.5769476   -2.4995314    3.2443986 
C    -2.8584524   -1.7798849    5.1715412 
C     0.8430326    4.2254932   -2.9377121 
C    -2.3342701   -0.9041754   -5.6576534 
C     2.7501571   -3.2418364    3.0303417 
H    -1.1009691    2.0469093    2.8677228 
H    -2.8849480    2.1865779   -0.6807918 
H     1.2234377   -1.8545903   -2.5883394 
H    -1.4393044   -3.2364331    0.6712080 
H    -2.7232441   -1.0892529    1.0995750 
H    -3.6630887    0.0602723    0.1204734 
H    -2.8031685   -1.9596382   -1.2599692 
H    -2.2212323   -0.4113107   -1.9006397 
H    -3.2946564    3.1888435    3.0645089 
H    -4.0102760    2.1177956    1.8378099 
H    -3.2068724    4.1872748    0.6615337 
H    -1.6113180    4.0113415    1.4365192 
H     1.4466232   -4.0151931   -1.9250679 
H     0.1823975   -4.4051877   -3.1019108 
H    -1.5653342   -4.3667016   -1.3803122 
H    -0.2424890   -5.2870263   -0.6492967 
H    -0.3170296    0.3061479    4.2236301 
H    -1.2520401    5.1719421   -0.4145253 
H    -2.0595443   -3.5357178   -3.4909882 
H     1.9257453   -4.7078887    0.0545989 
H    -4.4305183    0.2174718    2.8843538 
H    -0.5335067    1.2266357   -2.0523846 
H     0.5519661   -0.1245094   -3.9912187 
H    -0.3774362   -1.9685662    2.4972664 
H    -0.7767611   -1.6065045    5.7565337 
H     0.3550196    6.1305495   -2.0238069 
H    -3.5194169   -2.6863153   -5.3039627 
H     3.7581031   -4.6391442    1.7147275 
H    -4.8854544   -1.6855029    4.4053584 
H     1.0709818    2.1948530   -3.6655792 
H    -0.9362871    0.7515679   -5.7935229 
H     1.4641611   -1.8958115    4.1512322 
H    -3.0640885   -2.6177997    5.8453150 
H     1.5561175    4.6522895   -3.6503464 
H    -2.9848921   -0.5307914   -6.4549913 
H     3.5645588   -3.2139379    3.7612840 
