101
Energy =
C     2.8875391   -0.5474328   -0.2226009 
C     2.7598330    0.8148426    0.1894647 
C     2.2025817    1.0935778    1.4645765 
H     2.9062691    1.6301091   -0.5304069 
Pd    0.7630276   -0.0769663    0.2089026 
P    -1.3252990    0.7457113    0.7677148 
P    -0.3602921   -1.8504979   -0.7682307 
H     3.0416607   -1.2960902    0.5694156 
H     2.2946529    0.2945711    2.2175427 
C     3.8635166   -1.9481481   -4.1800479 
C     3.9769126   -2.7969349   -3.0685296 
C     3.6790533   -2.3203112   -1.7850533 
C     3.2506485   -0.9883692   -1.5836939 
C     3.1478762   -0.1432197   -2.7128610 
C     3.4561028   -0.6164994   -3.9932721 
H     4.0970711   -2.3172150   -5.1836722 
H     4.3074870   -3.8326153   -3.2005025 
H     3.7809356   -2.9804392   -0.9178582 
H     2.8088995    0.8901554   -2.5888331 
H     3.3716335    0.0546738   -4.8545585 
C     1.1171855    4.8855625    3.1728675 
C     1.3886556    3.7802832    3.9928140 
C     1.7556923    2.5570521    3.4170963 
C     1.8599675    2.4158586    2.0132197 
C     1.5796337    3.5367368    1.1986829 
C     1.2163319    4.7571625    1.7764248 
H     0.8286497    5.8432385    3.6180327 
H     1.3151952    3.8700695    5.0814372 
H     1.9705857    1.6953453    4.0595941 
H     1.6151934    3.4474000    0.1079021 
H     0.9988174    5.6127468    1.1296795 
C    -1.6989628    1.7136388    2.3467283 
C    -2.1431976    1.9828780   -0.4056994 
C    -0.1319077   -2.5080571   -2.5205410 
C     0.0013818   -3.5183238    0.0749734 
C    -2.4949004   -0.7140362    0.6925364 
C    -2.1953230   -1.5460031   -0.5673510 
C    -2.5438379    2.9361849    1.8873878 
C    -3.1901359    2.6499760    0.5162903 
C    -0.3579414   -4.0273955   -2.3536862 
C     0.4160611   -4.4461965   -1.0940863 
C    -2.2736330    0.7862535    3.3973627 
C    -1.1314116    2.8932417   -1.0915261 
C    -0.9373154   -1.7474736   -3.5496554 
C     0.9757645   -3.3643963    1.2336757 
C    -3.6578876    0.5776259    3.5538101 
C    -1.1043718    4.2878761   -0.9115638 
C    -2.2581181   -2.1044338   -3.8903213 
C     2.2483150   -3.9636119    1.2396489 
C    -1.3856169    0.0420452    4.2017605 
C    -0.2025786    2.3195933   -1.9869280 
C    -0.3737208   -0.6045409   -4.1533321 
C     0.6186528   -2.5548612    2.3355478 
C    -4.1391174   -0.3535258    4.4861210 
C    -0.1696843    5.0843892   -1.5934750 
C    -2.9954569   -1.3320160   -4.8001495 
C     3.1549489   -3.7266117    2.2868671 
C    -1.8642286   -0.8942031    5.1280115 
C     0.7294211    3.1109731   -2.6685158 
C    -1.1119609    0.1724063   -5.0556677 
C     1.5178248   -2.3221705    3.3837522 
C    -3.2455148   -1.0973797    5.2709841 
C     0.7561032    4.5011376   -2.4681712 
C    -2.4287289   -0.1872661   -5.3800163 
C     2.7994103   -2.8950768    3.3567822 
H    -0.7115926    2.0597558    2.6938768 
H    -2.6412290    1.3832987   -1.1898355 
H     0.9446715   -2.3364043   -2.7116664 
H    -0.9758131   -3.8509345    0.4735714 
H    -2.3407945   -1.2995588    1.6164492 
H    -3.5449707   -0.3736722    0.7031224 
H    -2.7471104   -2.5026152   -0.5573881 
H    -2.5083469   -1.0029242   -1.4783211 
H    -1.8643677    3.8007511    1.8068735 
H    -3.3022300    3.1935526    2.6456076 
H    -4.0410589    1.9560373    0.6416362 
H    -3.6035603    3.5638632    0.0548038 
H    -0.0077098   -4.5694918   -3.2492429 
H    -1.4335968   -4.2534648   -2.2345603 
H     0.2477669   -5.5044538   -0.8305901 
H     1.4937847   -4.3230525   -1.2989076 
H    -4.3724199    1.1453056    2.9477468 
H    -1.8170881    4.7748488   -0.2400877 
H    -2.7195670   -2.9942242   -3.4495477 
H     2.5472289   -4.6290081    0.4249984 
H    -0.3077099    0.2110079    4.0961498 
H    -0.2283022    1.2391171   -2.1693169 
H     0.6603200   -0.3345175   -3.9133355 
H    -0.3799049   -2.1054086    2.3842707 
H    -5.2187418   -0.4973527    4.5997398 
H    -0.1712954    6.1685820   -1.4395435 
H    -4.0171377   -1.6294105   -5.0588532 
H     4.1411596   -4.2017852    2.2644652 
H    -1.1593488   -1.4602607    5.7464803 
H     1.4247784    2.6451246   -3.3752751 
H    -0.6557900    1.0585554   -5.5093652 
H     1.2140143   -1.6962632    4.2290232 
H    -3.6235881   -1.8240788    5.9971872 
H     1.4820030    5.1237736   -3.0008773 
H    -3.0067924    0.4149206   -6.0883932 
H     3.5059903   -2.7106103    4.1723037 
