101
Energy =
C     2.8255101   -0.3507932   -0.0556194 
C     2.7476966    0.9500565    0.5290429 
C     2.1922194    1.1210218    1.8204247 
H     2.9399964    1.8287322   -0.0993255 
Pd    0.7125171    0.1240475    0.4151101 
P    -1.4063321    0.8973440    0.9212340 
P    -0.3760760   -1.4867272   -0.8521552 
H     2.9748806   -1.2044725    0.6217541 
H     2.1690353    0.2314988    2.4692675 
C     3.7774967   -1.1087644   -4.1882943 
C     3.1672817    0.1031610   -3.8207441 
C     2.8647558    0.3633719   -2.4801622 
C     3.1754233   -0.5817450   -1.4721457 
C     3.7901912   -1.7944553   -1.8545801 
C     4.0878232   -2.0547030   -3.1998326 
H     4.0057397   -1.3143714   -5.2389446 
H     2.9098395    0.8431117   -4.5860233 
H     2.3398447    1.2883855   -2.2174444 
H     4.0384339   -2.5328958   -1.0848789 
H     4.5668581   -2.9996023   -3.4770274 
C     1.4167499    4.8110329    3.9000086 
C     1.1057661    3.5742016    4.4858259 
C     1.3873783    2.3853909    3.8024157 
C     1.9723736    2.4013407    2.5137690 
C     2.3134788    3.6555744    1.9548559 
C     2.0336133    4.8442894    2.6383533 
H     1.2006448    5.7432201    4.4316015 
H     0.6499981    3.5348971    5.4806257 
H     1.1579669    1.4227911    4.2724244 
H     2.8186103    3.7050831    0.9852590 
H     2.3077489    5.8040179    2.1882906 
C    -1.9733111    1.5618778    2.5889038 
C    -1.9653379    2.4209800   -0.0623000 
C     0.1524677   -2.0779977   -2.5726519 
C    -0.3415068   -3.1896788   -0.0210590 
C    -2.6160306   -0.4358801    0.4265145 
C    -2.1887264   -1.0426569   -0.9213940 
C    -2.9090540    2.7353970    2.2256714 
C    -2.2617520    3.4716702    1.0415834 
C     0.5075214   -3.5763548   -2.3678772 
C    -0.3177558   -4.1769667   -1.2111060 
C    -2.4693885    0.4547021    3.4931947 
C    -0.9994623    2.8322723   -1.1525859 
C    -0.8902341   -1.7376160   -3.6190350 
C     0.8008182   -3.2485449    0.9818336 
C    -3.8353301    0.1392659    3.6293452 
C    -1.3345865    2.6798395   -2.5105016 
C    -0.8363053   -0.4757321   -4.2468674 
C     0.6312702   -2.5969491    2.2234944 
C    -1.5266893   -0.3442563    4.1752221 
C     0.2641981    3.3662440   -0.8279153 
C    -1.9399792   -2.6140361   -3.9604151 
C     2.0347751   -3.8687725    0.7178765 
C    -4.2442880   -0.9435594    4.4229064 
C    -0.4335711    3.0586216   -3.5182514 
C    -1.8069698   -0.0993490   -5.1849132 
C     1.6708531   -2.5437001    3.1602037 
C    -1.9321997   -1.4302568    4.9616157 
C     1.1642691    3.7449505   -1.8312582 
C    -2.9098674   -2.2384383   -4.9014301 
C     3.0804852   -3.8148713    1.6557176 
C    -3.2963985   -1.7351446    5.0870248 
C     0.8190023    3.5911507   -3.1841029 
C    -2.8502035   -0.9782221   -5.5140261 
C     2.9082629   -3.1439101    2.8744991 
H    -1.0449627    1.9855485    3.0169849 
H    -2.9233981    2.1220505   -0.5257493 
H     1.0686418   -1.5096727   -2.7994293 
H    -1.2897087   -3.2798718    0.5384756 
H    -2.6025103   -1.1921614    1.2334670 
H    -3.6415003   -0.0281970    0.3804107 
H    -2.7897998   -1.9310221   -1.1825568 
H    -2.3051361   -0.3178127   -1.7477780 
H    -3.0547162    3.3972695    3.0970745 
H    -3.9063482    2.3628475    1.9275444 
H    -2.9083791    4.2702530    0.6397048 
H    -1.3205202    3.9483222    1.3712308 
H     1.5836497   -3.6346268   -2.1342877 
H     0.3544063   -4.1356594   -3.3065737 
H    -1.3581266   -4.3445415   -1.5413259 
H     0.0739384   -5.1607346   -0.8978227 
H    -4.5936201    0.7428773    3.1204038 
H    -2.3111279    2.2656160   -2.7872833 
H    -0.0221850    0.2129901   -3.9954877 
H    -0.3341912   -2.1371790    2.4647129 
H    -0.4608598   -0.1084721    4.0804692 
H     0.5416220    3.4966413    0.2231502 
H    -2.0043743   -3.6049706   -3.4990831 
H     2.1959526   -4.4019653   -0.2233441 
H    -5.3116814   -1.1662968    4.5237444 
H    -0.7176175    2.9457138   -4.5695844 
H    -1.7434733    0.8804515   -5.6702823 
H     1.5116171   -2.0419671    4.1211588 
H    -1.1828410   -2.0367300    5.4815425 
H     2.1363733    4.1711641   -1.5589878 
H    -3.7132221   -2.9365679   -5.1590705 
H     4.0336203   -4.3045417    1.4300589 
H    -3.6184977   -2.5791318    5.7053290 
H     1.5183860    3.8936358   -3.9703796 
H    -3.6062077   -0.6870276   -6.2503852 
H     3.7243582   -3.1043486    3.6029476 
