101
Energy =
C     2.8108660   -0.1188439   -0.2810448 
C     2.5322184    1.1542407    0.2970233 
C     1.9631147    1.2219371    1.5949530 
H     2.5769867    2.0596558   -0.3200825 
Pd    0.6474834    0.0335454    0.2388780 
P    -1.4997462    0.6531717    0.8630269 
P    -0.3513381   -1.7525384   -0.8630982 
H     3.0265627   -0.9460122    0.4115990 
H     2.1459223    0.3622003    2.2590133 
C     4.1709984   -0.8126734   -4.3134602 
C     4.1264885   -1.8586060   -3.3784598 
C     3.6837772   -1.6147981   -2.0722820 
C     3.2650495   -0.3244728   -1.6708440 
C     3.3101921    0.7171518   -2.6263577 
C     3.7641013    0.4755968   -3.9281914 
H     4.5226037   -0.9984177   -5.3331899 
H     4.4483177   -2.8651448   -3.6653688 
H     3.6677537   -2.4292187   -1.3401541 
H     2.9860449    1.7261466   -2.3558057 
H     3.7986720    1.2988380   -4.6496539 
C     0.5057373    4.7020579    3.6610955 
C     0.8404101    3.5368183    4.3669093 
C     1.3308644    2.4185996    3.6794533 
C     1.4924978    2.4409831    2.2751492 
C     1.1607531    3.6246045    1.5783050 
C     0.6745105    4.7411538    2.2657173 
H     0.1220842    5.5778720    4.1942124 
H     0.7226499    3.4991512    5.4547389 
H     1.6056782    1.5140071    4.2337105 
H     1.2562536    3.6647811    0.4894022 
H     0.4209730    5.6492908    1.7085557 
C    -2.0931357    1.2492848    2.5516742 
C    -2.2053358    2.1569819   -0.0803784 
C     0.0262693   -2.5646683   -2.5143007 
C    -0.1382298   -3.3584939    0.1376306 
C    -2.6358288   -0.7634255    0.4188944 
C    -2.1936854   -1.4373992   -0.8875653 
C    -3.2432548    2.2200463    2.2002067 
C    -2.7405965    3.0849817    1.0380569 
C    -0.4316993   -4.0230373   -2.2829934 
C     0.1344382   -4.4618987   -0.9220569 
C    -2.3713914    0.1481884    3.5501104 
C    -1.2471464    2.7868029   -1.0821781 
C    -0.5127016   -1.8166387   -3.7129882 
C     0.8994195   -3.1521597    1.2326462 
C    -3.5939305   -0.5555196    3.5737481 
C    -0.9264830    4.1574841   -1.0408366 
C     0.3269306   -0.9059887   -4.3854430 
C     0.5136848   -2.5169826    2.4337450 
C    -1.3809701   -0.2034883    4.4892221 
C    -0.6680350    2.0041646   -2.1045776 
C    -1.8335021   -1.9850006   -4.1775178 
C     2.2575913   -3.4837887    1.0667005 
C    -3.8097686   -1.5887527    4.4968499 
C    -0.0263149    4.7198570   -1.9598079 
C    -0.1400478   -0.1813949   -5.4898270 
C     1.4584689   -2.2075314    3.4212455 
C    -1.5962030   -1.2327690    5.4156959 
C     0.2307429    2.5614281   -3.0224033 
C    -2.3029935   -1.2530256   -5.2779952 
C     3.2064402   -3.1720711    2.0534479 
C    -2.8104444   -1.9348415    5.4184482 
C     0.5668244    3.9218175   -2.9467532 
C    -1.4594389   -0.3466347   -5.9366416 
C     2.8126149   -2.5239069    3.2323646 
H    -1.2379481    1.8487077    2.9173545 
H    -3.0651239    1.7376000   -0.6382963 
H     1.1322235   -2.5446200   -2.5588036 
H    -1.1202229   -3.5323847    0.6134054 
H    -2.5804857   -1.4728111    1.2649176 
H    -3.6819726   -0.4154899    0.3543702 
H    -2.7452672   -2.3792492   -1.0542302 
H    -2.3883675   -0.7878082   -1.7608962 
H    -3.5104365    2.8295126    3.0807790 
H    -4.1504444    1.6623929    1.9027192 
H    -3.5251482    3.7543160    0.6452909 
H    -1.9167577    3.7192811    1.4105550 
H    -0.0749657   -4.6720370   -3.1018529 
H    -1.5352168   -4.0877080   -2.2813410 
H    -0.2862963   -5.4256442   -0.5895978 
H     1.2210843   -4.6112439   -1.0333453 
H    -4.3938117   -0.2923892    2.8739278 
H    -1.3749507    4.8051073   -0.2829121 
H     1.3579236   -0.7736509   -4.0421966 
H    -0.5388392   -2.2637029    2.6073307 
H    -0.4354287    0.3482738    4.4920162 
H    -0.9253435    0.9438099   -2.2033183 
H    -2.5035065   -2.7008249   -3.6898776 
H     2.5937484   -3.9925889    0.1585189 
H    -4.7675359   -2.1195825    4.5011853 
H     0.2060592    5.7884846   -1.9021365 
H     0.5331038    0.5097535   -6.0084982 
H     1.1298854   -1.7240756    4.3458473 
H    -0.8172204   -1.4832485    6.1438030 
H     0.6609802    1.9254880   -3.8002407 
H    -3.3302511   -1.4000596   -5.6276002 
H     4.2560625   -3.4427672    1.8984471 
H    -2.9822233   -2.7376850    6.1425601 
H     1.2705105    4.3588895   -3.6628876 
H    -1.8254525    0.2190998   -6.7994582 
H     3.5508669   -2.2838420    4.0042883 
