101
Energy =
C     2.9186112   -0.3748530   -0.1311450 
C     2.6977133    0.9725471    0.2906048 
C     2.0835906    1.2030534    1.5488750 
H     2.8197911    1.8037838   -0.4153887 
Pd    0.7574765   -0.0350928    0.2321100 
P    -1.3931182    0.6582634    0.7290321 
P    -0.2268855   -1.8606812   -0.7972667 
H     3.0896170   -1.1232981    0.6576525 
H     2.1964552    0.4013786    2.2960804 
C     4.1114542   -1.6665240   -4.0662802 
C     3.6273589   -0.3609448   -3.8788130 
C     3.2477943    0.0775624   -2.6051939 
C     3.3534877   -0.7767977   -1.4832670 
C     3.8589724   -2.0814742   -1.6845975 
C     4.2287237   -2.5237243   -2.9616096 
H     4.4013463   -2.0085620   -5.0647797 
H     3.5391644    0.3169183   -4.7344618 
H     2.8508364    1.0901113   -2.4816407 
H     3.9638918   -2.7473360   -0.8221207 
H     4.6184660   -3.5386156   -3.0936186 
C     0.7208823    4.9042390    3.2574029 
C     0.8768093    4.7996920    1.8641578 
C     1.3302911    3.6096401    1.2868322 
C     1.6459075    2.4963351    2.0988203 
C     1.4842049    2.6133902    3.4994812 
C     1.0267414    3.8059867    4.0746959 
H     0.3616317    5.8378994    3.7021396 
H     0.6333033    5.6496143    1.2192209 
H     1.4097525    3.5366262    0.1971485 
H     1.7258206    1.7573218    4.1400364 
H     0.9096636    3.8774331    5.1608481 
C    -1.8741352    1.5819226    2.3055065 
C    -2.2420873    1.8619708   -0.4570592 
C     0.0990298   -2.4858623   -2.5457723 
C     0.1989559   -3.5145314    0.0435794 
C    -2.4727751   -0.8652566    0.5975837 
C    -2.0822376   -1.6629129   -0.6595529 
C    -2.7713059    2.7609700    1.8317252 
C    -3.3550705    2.4564972    0.4367482 
C    -0.0508014   -4.0166748   -2.4007432 
C     0.7011384   -4.4070872   -1.1188185 
C    -2.4298540    0.6096633    3.3253060 
C    -1.2621798    2.8368854   -1.0990551 
C    -0.7088971   -1.7574275   -3.5958278 
C     1.1259684   -3.3185693    1.2344848 
C    -1.5282345   -0.0932237    4.1514274 
C    -1.3212907    4.2285504   -0.9045571 
C    -0.1893685   -0.5749090   -4.1617037 
C     2.4302047   -3.8438443    1.2756508 
C    -3.8043544    0.3204976    3.4317235 
C    -0.2729607    2.3277519   -1.9683946 
C    -1.9925314   -2.1843728   -3.9931416 
C     0.6884516   -2.5429965    2.3318031 
C    -1.9832049   -1.0673418    5.0501190 
C    -0.4118642    5.0850681   -1.5467799 
C    -0.9356787    0.1719709   -5.0825629 
C     3.2884798   -3.5666049    2.3533643 
C    -4.2624820   -0.6485828    4.3366243 
C     0.6339737    3.1789438   -2.6105732 
C    -2.7371777   -1.4420241   -4.9219117 
C     1.5394833   -2.2704842    3.4102125 
C    -3.3546103   -1.3505829    5.1433828 
C     0.5742495    4.5658957   -2.3955631 
C    -2.2156281   -0.2579434   -5.4639099 
C     2.8522410   -2.7686306    3.4189776 
H    -0.9203159    1.9787365    2.6902299 
H    -2.6791560    1.2451918   -1.2638554 
H     1.1709490   -2.2548975   -2.6961967 
H    -0.7706364   -3.9039752    0.4077478 
H    -2.3169416   -1.4524428    1.5201789 
H    -3.5404145   -0.5856827    0.5748466 
H    -2.5787087   -2.6491503   -0.6796245 
H    -2.3930171   -1.1269564   -1.5755828 
H    -2.1396092    3.6634680    1.7835927 
H    -3.5675018    2.9655110    2.5669729 
H    -4.1686084    1.7137837    0.5259216 
H    -3.8048019    3.3513275   -0.0281035 
H     0.3585869   -4.5296570   -3.2883099 
H    -1.1161832   -4.3013820   -2.3210835 
H     0.5805052   -5.4754112   -0.8702660 
H     1.7770886   -4.2254055   -1.2858561 
H    -0.4589078    0.1383444    4.0848170 
H    -2.0826220    4.6661489   -0.2527034 
H     0.8170555   -0.2496007   -3.8770079 
H     2.7924052   -4.4823087    0.4651408 
H    -4.5294905    0.8544271    2.8078043 
H    -0.2308972    1.2498138   -2.1624009 
H    -2.4186240   -3.1056278   -3.5823914 
H    -0.3354666   -2.1522672    2.3528426 
H    -1.2681765   -1.6005220    5.6858968 
H    -0.4807593    6.1655192   -1.3823423 
H    -0.5144195    1.0897675   -5.5061076 
H     4.3006558   -3.9841796    2.3580409 
H    -5.3352944   -0.8550833    4.4115459 
H     1.3773692    2.7616766   -3.2985009 
H    -3.7287918   -1.7939176   -5.2252999 
H     1.1739888   -1.6717788    4.2507739 
H    -3.7146422   -2.1069402    5.8481465 
H     1.2805170    5.2351763   -2.8971991 
H    -2.7994366    0.3205420   -6.1871660 
H     3.5210999   -2.5528648    4.2582511 
