101
Energy =
C     2.8317228   -0.5118494   -0.1794437 
C     2.8089593    0.8189426    0.3322025 
C     2.2905164    1.0661022    1.6293677 
H     3.0214543    1.6588351   -0.3407251 
Pd    0.7453456    0.0630930    0.3241790 
P    -1.3235707    0.8422871    1.0307803 
P    -0.4415957   -1.5617447   -0.8317575 
H     2.9302701   -1.3272449    0.5525837 
H     2.2928743    0.2160444    2.3294005 
C     3.8621768   -1.6297701   -4.2111059 
C     3.9809913   -2.5499759   -3.1589419 
C     3.6520054   -2.1691958   -1.8509871 
C     3.1865399   -0.8648920   -1.5685580 
C     3.0576380    0.0478099   -2.6411303 
C     3.4042881   -0.3282945   -3.9435164 
H     4.1240990   -1.9224268   -5.2328358 
H     4.3424508   -3.5648158   -3.3553240 
H     3.7660400   -2.8825785   -1.0283374 
H     2.6527699    1.0489965   -2.4608220 
H     3.3053527    0.3949803   -4.7599571 
C     1.5745732    4.8542452    3.5468394 
C     1.4230142    3.6491770    4.2491963 
C     1.6856701    2.4299736    3.6123454 
C     2.0968685    2.3831118    2.2588273 
C     2.2799787    3.6096633    1.5775325 
C     2.0160032    4.8279576    2.2130274 
H     1.3700629    5.8099041    4.0398930 
H     1.1049390    3.6583599    5.2968483 
H     1.5822579    1.4915801    4.1688326 
H     2.6457091    3.6175041    0.5460122 
H     2.1631208    5.7653253    1.6666973 
C    -1.6794291    1.5658359    2.7400365 
C    -1.9773036    2.3436907    0.0859428 
C    -0.2096211   -2.1778858   -2.6028973 
C    -0.1804384   -3.2786069   -0.0371631 
C    -2.5613870   -0.5148872    0.6991846 
C    -2.2602308   -1.1728816   -0.6569647 
C    -2.4824503    2.8596163    2.4589227 
C    -1.9406063    3.4648319    1.1561851 
C    -0.4894295   -3.6965798   -2.4828797 
C     0.2312220   -4.1844660   -1.2220828 
C    -2.2502448    0.5612620    3.7155939 
C    -1.2607537    2.6219084   -1.2158327 
C    -0.9613806   -1.4408091   -3.6906643 
C     0.7678262   -3.2258106    1.1525478 
C    -3.6221898    0.2359210    3.7445195 
C     0.0965293    3.0021479   -1.2219958 
C    -0.2699470   -0.5473654   -4.5313998 
C     2.0356894   -3.8369461    1.1331119 
C    -1.3859737   -0.1136647    4.6010613 
C    -1.9350554    2.5136110   -2.4455031 
C    -2.3354572   -1.6580680   -3.9295320 
C     0.3977250   -2.5106494    2.3135650 
C    -4.1093671   -0.7405238    4.6245360 
C     0.7606269    3.2716992   -2.4250343 
C    -0.9235505    0.0968576   -5.5896458 
C     2.9245387   -3.7007911    2.2123499 
C    -1.8689353   -1.0935682    5.4790721 
C    -1.2737557    2.7891082   -3.6512724 
C    -2.9946363   -1.0008264   -4.9775816 
C     1.2791525   -2.3798682    3.3944494 
C    -3.2345476   -1.4132001    5.4910782 
C     0.0761391    3.1655365   -3.6462044 
C    -2.2894975   -0.1242220   -5.8158984 
C     2.5557149   -2.9609268    3.3432365 
H    -0.6743542    1.8656454    3.0877954 
H    -3.0364435    2.1074141   -0.1285575 
H     0.8752627   -2.0395400   -2.7692737 
H    -1.1837906   -3.5794896    0.3197244 
H    -2.4812259   -1.2390949    1.5301308 
H    -3.5873341   -0.1082772    0.7265193 
H    -2.8669225   -2.0837632   -0.8033926 
H    -2.4924677   -0.4813878   -1.4878333 
H    -2.3872548    3.5528807    3.3121881 
H    -3.5571454    2.6309220    2.3418955 
H    -2.5327169    4.3319759    0.8169064 
H    -0.9016605    3.8139488    1.3052999 
H    -0.1335633   -4.2168281   -3.3889648 
H    -1.5758987   -3.8856009   -2.4055377 
H     0.0178108   -5.2433791   -0.9961469 
H     1.3175851   -4.0958190   -1.3960993 
H    -4.3231558    0.7504719    3.0783851 
H     0.6277066    3.1062522   -0.2708177 
H     0.7955344   -0.3710312   -4.3577582 
H     2.3464415   -4.4323185    0.2706577 
H    -0.3214344    0.1435767    4.6016824 
H    -2.9914583    2.2207161   -2.4624357 
H    -2.8990016   -2.3624701   -3.3088430 
H    -0.5973829   -2.0575352    2.3861482 
H    -5.1791815   -0.9740122    4.6357638 
H     1.8117462    3.5819669   -2.4096721 
H    -0.3610243    0.7751264   -6.2399282 
H     3.9061679   -4.1838214    2.1669634 
H    -1.1795194   -1.6024354    6.1611519 
H    -1.8183453    2.7061323   -4.5957924 
H    -4.0595350   -1.1888941   -5.1505944 
H     0.9616382   -1.8293876    4.2847544 
H    -3.6168750   -2.1746574    6.1783863 
H     0.5909636    3.3820140   -4.5880691 
H    -2.8012923    0.3762741   -6.6445069 
H     3.2466250   -2.8561587    4.1859065 
