101
Energy =
C     2.8963499   -0.5126927   -0.1172408 
C     2.7464766    0.8786432    0.2164392 
C     2.1431500    1.2186406    1.4478809 
H     2.9271853    1.6542857   -0.5388472 
Pd    0.7663104   -0.0601958    0.1545972 
P    -1.3605797    0.8508346    0.3011160 
P    -0.2440909   -2.0327149   -0.4733329 
H     3.1123477   -1.2085380    0.7061103 
H     2.1347826    0.4211068    2.2088788 
C     3.7509974   -2.0459478   -4.0560694 
C     3.1762853   -0.7719100   -3.9110765 
C     2.9216640   -0.2539237   -2.6363346 
C     3.2361735   -0.9963071   -1.4722366 
C     3.8293187   -2.2681461   -1.6348334 
C     4.0814392   -2.7878448   -2.9116332 
H     3.9452429   -2.4525799   -5.0536268 
H     2.9192824   -0.1827117   -4.7977547 
H     2.4526654    0.7311054   -2.5398149 
H     4.0925782   -2.8476578   -0.7446962 
H     4.5441932   -3.7752455   -3.0137767 
C     1.0503343    5.0280084    3.0996507 
C     1.0097728    3.8638995    3.8819383 
C     1.3827646    2.6364201    3.3223218 
C     1.7961395    2.5453672    1.9701912 
C     1.8304691    3.7265216    1.1953829 
C     1.4657611    4.9523350    1.7589966 
H     0.7655164    5.9921520    3.5332324 
H     0.6944999    3.9130938    4.9291438 
H     1.3621738    1.7297890    3.9382635 
H     2.1262244    3.6882277    0.1432971 
H     1.5013690    5.8566995    1.1443548 
C    -1.8871074    1.6480682    1.9306999 
C    -1.9694080    2.2682721   -0.7828253 
C    -0.2324447   -2.5864043   -2.2699683 
C     0.3474834   -3.6964814    0.2092823 
C    -2.5931481   -0.4961204   -0.1422000 
C    -2.0208358   -1.9008442    0.0937041 
C    -2.7345328    2.8935162    1.5382934 
C    -3.1551105    2.8037388    0.0555294 
C    -0.2713461   -4.1253786   -2.1729593 
C     0.7176883   -4.5086179   -1.0553964 
C    -2.4753708    0.5884392    2.8377501 
C    -0.8760118    3.2483485   -1.1863549 
C    -1.2735005   -1.8232230   -3.0543600 
C     1.3961804   -3.5193160    1.2935554 
C    -3.8576798    0.3307961    2.9195932 
C     0.2111400    2.7694074   -1.9504850 
C    -0.9496197   -0.5267794   -3.5086087 
C     1.1027652   -2.6876315    2.3968250 
C    -1.5943593   -0.2406624    3.5657765 
C    -0.9377023    4.6263834   -0.9138256 
C    -2.5854599   -2.2967131   -3.2507129 
C     2.6648694   -4.1210964    1.2324625 
C    -4.3433813   -0.7298385    3.7004344 
C     1.1977027    3.6364420   -2.4345038 
C    -1.9155518    0.2904979   -4.1094118 
C     2.0597748   -2.4326620    3.3861115 
C    -2.0765507   -1.3033392    4.3414573 
C     0.0487999    5.5002086   -1.4000062 
C    -3.5539103   -1.4809370   -3.8571580 
C     3.6282476   -3.8670972    2.2242248 
C    -3.4562153   -1.5544258    4.4076979 
C     1.1194132    5.0123797   -2.1605475 
C    -3.2277441   -0.1820601   -4.2761342 
C     3.3357445   -3.0137398    3.2965571 
H    -0.9330522    1.9844077    2.3706179 
H    -2.3378833    1.7902621   -1.7088627 
H     0.7743810   -2.2844029   -2.6179159 
H    -0.5595004   -4.1422201    0.6623579 
H    -3.5296451   -0.3628810    0.4247038 
H    -2.8172144   -0.3498845   -1.2140180 
H    -1.9987117   -2.1273610    1.1763810 
H    -2.6402577   -2.6718426   -0.3988037 
H    -2.1070922    3.7870250    1.6936113 
H    -3.6123195    3.0025743    2.1967537 
H    -3.9975358    2.0961534   -0.0509738 
H    -3.5160878    3.7734220   -0.3300623 
H     0.0002608   -4.5853640   -3.1389087 
H    -1.2871650   -4.4785421   -1.9146878 
H     0.7051925   -5.5915436   -0.8435816 
H     1.7389708   -4.2426818   -1.3823783 
H    -4.5677020    0.9631291    2.3746800 
H     0.2673298    1.6985284   -2.1759840 
H     0.0788638   -0.1687076   -3.3875100 
H     0.1101597   -2.2303929    2.4811287 
H    -0.5171718   -0.0402820    3.5200043 
H    -1.7660457    5.0393581   -0.3307008 
H    -2.8609329   -3.3068801   -2.9306183 
H     2.9149047   -4.7954240    0.4080742 
H    -5.4220454   -0.9098821    3.7571149 
H     2.0241499    3.2431543   -3.0371120 
H    -1.6419302    1.2945409   -4.4512059 
H     1.8086540   -1.7825475    4.2318765 
H    -1.3755198   -1.9319389    4.9013398 
H    -0.0266920    6.5709983   -1.1835645 
H    -4.5686722   -1.8650063   -4.0047337 
H     4.6120886   -4.3427988    2.1552693 
H    -3.8380996   -2.3799613    5.0168349 
H     1.8838285    5.6966359   -2.5423925 
H    -3.9865901    0.4513081   -4.7468216 
H     4.0894672   -2.8147966    4.0650692 
