101
Energy =
C     2.8113341   -0.4296066   -0.0901037 
C     2.7785964    0.8836792    0.4707563 
C     2.2472429    1.0948504    1.7662941 
H     2.9857848    1.7445874   -0.1771555 
Pd    0.7200375    0.1124334    0.4013438 
P    -1.3689238    0.9531604    0.9232049 
P    -0.4305501   -1.4930413   -0.8168959 
H     2.9474378   -1.2744899    0.6009084 
H     2.2090594    0.2190191    2.4327426 
C     3.6830370   -1.2880277   -4.2209452 
C     3.9812227   -2.2243354   -3.2196583 
C     3.7097967   -1.9319191   -1.8754646 
C     3.1339840   -0.6959988   -1.5069142 
C     2.8346857    0.2389107   -2.5278020 
C     3.1110506   -0.0535118   -3.8673826 
H     3.8910234   -1.5185070   -5.2706387 
H     4.4303513   -3.1868804   -3.4859966 
H     3.9488306   -2.6629345   -1.0958363 
H     2.3392642    1.1827718   -2.2750267 
H     2.8630662    0.6794060   -4.6424996 
C     1.6067461    4.8441660    3.7848493 
C     1.2741144    3.6277571    4.4007217 
C     1.5116845    2.4187388    3.7362951 
C     2.0733058    2.3939484    2.4374078 
C     2.4365450    3.6275426    1.8473643 
C     2.2007632    4.8363696    2.5118516 
H     1.4253051    5.7919659    4.3015998 
H     0.8357374    3.6200294    5.4040365 
H     1.2656050    1.4720556    4.2296176 
H     2.9246441    3.6445666    0.8680170 
H     2.4912900    5.7795136    2.0376580 
C    -1.8928170    1.6677118    2.5842309 
C    -1.9042387    2.4693358   -0.0849859 
C     0.0546229   -2.1304752   -2.5336151 
C    -0.4277964   -3.1805495    0.0460661 
C    -2.6208174   -0.3578039    0.4760290 
C    -2.2318945   -1.0023418   -0.8660209 
C    -2.8083685    2.8531092    2.2087992 
C    -2.1625694    3.5494845    0.9999763 
C     0.3722747   -3.6340305   -2.3059539 
C    -0.4500058   -4.1901258   -1.1251013 
C    -2.3986287    0.5919621    3.5206367 
C    -0.9420159    2.8347564   -1.1945915 
C    -0.9945382   -1.7815352   -3.5706928 
C     0.7288729   -3.2518625    1.0315022 
C    -3.7691478    0.3165870    3.6925018 
C     0.3380926    3.3439054   -0.8955641 
C    -2.0747780   -2.6337050   -3.8766636 
C     1.9406651   -3.9113852    0.7603915 
C    -1.4627961   -0.2190959    4.1978674 
C    -1.2968604    2.6624465   -2.5450866 
C    -0.9141200   -0.5353829   -4.2263948 
C     0.5979387   -2.5714613    2.2623014 
C    -4.1892965   -0.7390616    4.5163289 
C     1.2349744    3.6800138   -1.9168006 
C    -3.0489882   -2.2492858   -4.8095771 
C     3.0028237   -3.8682302    1.6801504 
C    -1.8797643   -1.2777577    5.0148948 
C    -0.3990999    2.9985343   -3.5707406 
C    -1.8891283   -0.1499844   -5.1562764 
C     1.6539611   -2.5286509    3.1809566 
C    -3.2485576   -1.5427266    5.1760320 
C     0.8697983    3.5072746   -3.2621168 
C    -2.9630290   -1.0042479   -5.4495414 
C     2.8694716   -3.1686079    2.8876366 
H    -0.9483124    2.0796312    2.9879140 
H    -2.8744305    2.1835763   -0.5311133 
H     0.9821766   -1.5917349   -2.7849936 
H    -1.3688085   -3.2344508    0.6222679 
H    -2.6129953   -1.0979281    1.2979016 
H    -3.6360827    0.0754631    0.4383216 
H    -2.8603694   -1.8793777   -1.0993989 
H    -2.3429281   -0.2912399   -1.7050205 
H    -2.9273693    3.5367134    3.0674170 
H    -3.8175561    2.4958294    1.9328209 
H    -2.7976451    4.3531393    0.5898988 
H    -1.2067782    4.0126189    1.3060675 
H     1.4500968   -3.7174406   -2.0882610 
H     0.1887595   -4.2062570   -3.2313108 
H    -1.4997277   -4.3354658   -1.4356737 
H    -0.0799809   -5.1781955   -0.7992779 
H    -4.5220193    0.9304790    3.1879037 
H     0.6311773    3.4885811    0.1493775 
H    -2.1602037   -3.6125474   -3.3934393 
H     2.0715137   -4.4672735   -0.1723523 
H    -0.3934040   -0.0146102    4.0748081 
H    -2.2861567    2.2661463   -2.8020180 
H    -0.0758909    0.1338404   -4.0031629 
H    -0.3504548   -2.0804829    2.5095457 
H    -5.2597871   -0.9306903    4.6445427 
H     2.2203832    4.0875765   -1.6646149 
H    -3.8765648   -2.9286078   -5.0393124 
H     3.9381886   -4.3887738    1.4492745 
H    -1.1356291   -1.8940083    5.5308305 
H    -0.6983180    2.8708993   -4.6161614 
H    -1.8052892    0.8172220   -5.6633455 
H     1.5247016   -2.0035480    4.1339135 
H    -3.5793975   -2.3653547    5.8180502 
H     1.5667953    3.7765197   -4.0624734 
H    -3.7224598   -0.7062509   -6.1796308 
H     3.6984552   -3.1370307    3.6017775 
