101
Energy =
C     2.7867045   -0.3350421   -0.0662020 
C     2.7364574    1.0070361    0.4455978 
C     2.2296043    1.2578952    1.7368734 
H     2.9072216    1.8508935   -0.2355472 
Pd    0.6968326    0.1644633    0.4274148 
P    -1.3899181    1.1316219    0.6563992 
P    -0.4046858   -1.7139969   -0.3485701 
H     3.0422320   -1.1433586    0.6321801 
H     2.1547703    0.3912647    2.4142254 
C     3.2753424   -1.2404407   -4.2512972 
C     2.7132964   -0.0137764   -3.8585641 
C     2.5717533    0.2964598   -2.5018854 
C     2.9952203   -0.6150468   -1.5019464 
C     3.5641259   -1.8418004   -1.9112186 
C     3.7021478   -2.1501591   -3.2715563 
H     3.3789622   -1.4846552   -5.3133332 
H     2.3702401    0.7016606   -4.6135087 
H     2.0931637    1.2407268   -2.2177250 
H     3.8975802   -2.5531123   -1.1494243 
H     4.1479427   -3.1053263   -3.5687494 
C     1.6145004    5.0379308    3.6884215 
C     1.1105915    3.8509267    4.2442997 
C     1.3421495    2.6272837    3.6063882 
C     2.0632943    2.5640444    2.3897451 
C     2.5954084    3.7635533    1.8627633 
C     2.3687781    4.9865034    2.5044392 
H     1.4402279    5.9965779    4.1873502 
H     0.5455770    3.8793000    5.1817558 
H     0.9638629    1.6998247    4.0521200 
H     3.2028945    3.7374196    0.9527998 
H     2.7904972    5.9052278    2.0840495 
C    -2.0529115    1.5659776    2.3656541 
C    -1.7792002    2.8241854   -0.0890793 
C    -0.1147843   -2.2658413   -2.1361153 
C    -0.0726097   -3.3972235    0.4444022 
C    -2.6121730    0.0141598   -0.2103725 
C    -2.2367644   -1.4637265   -0.0568389 
C    -2.8356101    2.8788691    2.1519485 
C    -2.0122569    3.7179552    1.1522789 
C     0.2279559   -3.7804902   -2.0370609 
C    -0.3228297   -4.3788386   -0.7258011 
C    -2.6878994    0.3491062    2.9961113 
C    -0.7631351    3.2209917   -1.1365127 
C    -1.2572960   -1.8371564   -3.0327884 
C     1.2792954   -3.4231869    1.1389729 
C    -4.0654382    0.0703478    2.9089031 
C    -1.0219540    2.9536265   -2.4956547 
C    -1.2236362   -0.5476410   -3.6052205 
C     1.4225941   -2.7003485    2.3445892 
C    -1.8442987   -0.6122498    3.5958581 
C     0.4808300    3.7806842   -0.7877410 
C    -2.3774909   -2.6552606   -3.2820753 
C     2.3981825   -4.1116288    0.6395678 
C    -4.5803451   -1.1435890    3.3911046 
C    -0.0604374    3.2262367   -3.4795217 
C    -2.2806809   -0.0901711   -4.4038007 
C     2.6492675   -2.6468149    3.0165782 
C    -2.3551748   -1.8259607    4.0729782 
C     1.4403553    4.0617278   -1.7701927 
C    -3.4365332   -2.1961501   -4.0799148 
C     3.6317047   -4.0603506    1.3120131 
C    -3.7286369   -2.0989035    3.9648688 
C     1.1770954    3.7806559   -3.1203177 
C    -3.3937881   -0.9114838   -4.6413257 
C     3.7659451   -3.3217426    2.4949446 
H    -1.1312633    1.8159232    2.9221045 
H    -2.7563602    2.6767286   -0.5859614 
H     0.7850320   -1.7087523   -2.4432945 
H    -0.8502340   -3.5159144    1.2195413 
H    -3.6342415    0.2110260    0.1585306 
H    -2.5692734    0.3103034   -1.2753168 
H    -2.4209182   -1.8002173    0.9797851 
H    -2.8277232   -2.0974193   -0.7401244 
H    -2.9848819    3.4039742    3.1113954 
H    -3.8370750    2.6780136    1.7281889 
H    -2.5277046    4.6502178    0.8646542 
H    -1.0489915    4.0025999    1.6153472 
H     1.3265679   -3.8719461   -2.0608195 
H    -0.1555073   -4.3235051   -2.9173816 
H    -1.4138440   -4.5302812   -0.8163453 
H     0.1149834   -5.3700389   -0.5120384 
H    -4.7479405    0.8032214    2.4658267 
H    -1.9880064    2.5253656   -2.7862033 
H    -0.3546201    0.0955451   -3.4248328 
H     0.5527465   -2.1753717    2.7563479 
H    -0.7718581   -0.3983360    3.6808491 
H     0.7026517    4.0032037    0.2596112 
H    -2.4261268   -3.6654513   -2.8603494 
H     2.3210340   -4.6999764   -0.2793852 
H    -5.6551215   -1.3407514    3.3200681 
H    -0.2827187    3.0138133   -4.5308866 
H    -2.2297715    0.9072858   -4.8540938 
H     2.7351911   -2.0852214    3.9531822 
H    -1.6833160   -2.5562484    4.5369297 
H     2.3973740    4.5101955   -1.4813616 
H    -4.2956660   -2.8486248   -4.2677249 
H     4.4903100   -4.6054134    0.9060236 
H    -4.1343553   -3.0439520    4.3399356 
H     1.9273716    4.0008670   -3.8866421 
H    -4.2177451   -0.5571921   -5.2691070 
H     4.7278851   -3.2833355    3.0158128 
