101
Energy =
C     2.8812432   -0.4463425   -0.5872864 
C     2.8574386    0.8072351    0.1060734 
C     2.4677826    0.8330298    1.4653627 
H     2.9515235    1.7442921   -0.4570849 
Pd    0.8422046   -0.0638260    0.1681318 
P    -1.2076214    0.7116282    0.8928044 
P    -0.3582711   -1.8011987   -0.7676712 
H     3.1542697   -1.3313177    0.0037335 
H     2.5241442   -0.1238763    2.0101029 
C     3.2738541   -0.9131744   -4.8515708 
C     2.7805110    0.2910773   -4.3208480 
C     2.6516994    0.4564401   -2.9377873 
C     3.0321886   -0.5772200   -2.0494085 
C     3.5270101   -1.7833101   -2.5960440 
C     3.6440005   -1.9508877   -3.9828518 
H     3.3665311   -1.0416285   -5.9346864 
H     2.4800331    1.1039712   -4.9905728 
H     2.2215664    1.3847604   -2.5469586 
H     3.8328195   -2.5915501   -1.9216251 
H     4.0334745   -2.8915215   -4.3860659 
C     1.8352780    4.1960382    4.0674259 
C     1.6489100    2.8823960    4.5255623 
C     1.8806961    1.8026193    3.6655181 
C     2.2943072    2.0104192    2.3274812 
C     2.5057466    3.3384378    1.8906780 
C     2.2738130    4.4175219    2.7507593 
H     1.6564212    5.0435006    4.7368458 
H     1.3242007    2.6995965    5.5550331 
H     1.7410178    0.7758183    4.0222601 
H     2.8676552    3.5280921    0.8760654 
H     2.4453217    5.4392727    2.3963467 
C    -1.5478320    1.7282308    2.4523456 
C    -1.9687398    1.9291502   -0.3315842 
C    -0.2161574   -2.4854713   -2.5213914 
C     0.1139666   -3.4364918    0.0839252 
C    -2.4165391   -0.7129075    0.8405998 
C    -2.1807165   -1.5330183   -0.4408298 
C    -2.1213955    3.0738345    1.9250024 
C    -2.8255595    2.8656855    0.5697673 
C    -0.2215627   -4.0181494   -2.3155082 
C     0.6430851   -4.3065371   -1.0794827 
C    -2.3770223    0.9301202    3.4392035 
C    -0.9336115    2.5984887   -1.2175251 
C    -1.2058858   -1.8798641   -3.4924208 
C     1.0231560   -3.2105161    1.2814110 
C    -3.7833503    0.9963446    3.4868227 
C     0.1677211    3.3059424   -0.6911661 
C    -0.8522523   -0.7113121   -4.1973172 
C     2.4053757   -3.4759261    1.2452806 
C    -1.7181138    0.0323375    4.3057042 
C    -1.0663709    2.5128973   -2.6167776 
C    -2.4912484   -2.4239516   -3.6939838 
C     0.4835589   -2.6673324    2.4682621 
C    -4.5081267    0.1835987    4.3717636 
C     1.0934923    3.9256094   -1.5424925 
C    -1.7544378   -0.1084568   -5.0841143 
C     3.2281211   -3.1765307    2.3434914 
C    -2.4402696   -0.7844033    5.1854906 
C    -0.1345652    3.1220040   -3.4696992 
C    -3.3954064   -1.8182292   -4.5785033 
C     1.2999581   -2.3749977    3.5679374 
C    -3.8416663   -0.7135723    5.2189972 
C     0.9473620    3.8364823   -2.9358733 
C    -3.0310342   -0.6575110   -5.2769963 
C     2.6815465   -2.6170044    3.5066428 
H    -0.5538234    1.9005206    2.8983354 
H    -2.6334364    1.3403254   -0.9861926 
H     0.8043434   -2.1805477   -2.8209758 
H    -0.8441732   -3.8606378    0.4390057 
H    -2.2534267   -1.3142349    1.7516340 
H    -3.4522056   -0.3337587    0.8893363 
H    -2.7102956   -2.5014295   -0.4035825 
H    -2.5607837   -0.9936848   -1.3279658 
H    -1.2865938    3.7847988    1.8053917 
H    -2.8046266    3.5176861    2.6692918 
H    -3.8086027    2.3861481    0.7283818 
H    -3.0136564    3.8251866    0.0578897 
H     0.1634930   -4.5251687   -3.2171360 
H    -1.2498600   -4.3871889   -2.1472537 
H     0.6371817   -5.3742122   -0.8001559 
H     1.6875472   -4.0325563   -1.3114611 
H    -4.3258086    1.6898541    2.8355632 
H     0.3124394    3.3743719    0.3921464 
H     0.1429604   -0.2790650   -4.0503367 
H     2.8565582   -3.9227091    0.3544965 
H    -0.6238600   -0.0170643    4.2861141 
H    -1.9073400    1.9566212   -3.0447053 
H    -2.7943881   -3.3336217   -3.1648591 
H    -0.5933609   -2.4779253    2.5388149 
H    -5.6005433    0.2548455    4.3996524 
H     1.9315855    4.4880976   -1.1169874 
H    -1.4551247    0.7907938   -5.6334143 
H     4.3004923   -3.3912056    2.2892734 
H    -1.9084857   -1.4703050    5.8539069 
H    -0.2589543    3.0418185   -4.5549126 
H    -4.3857848   -2.2608838   -4.7278546 
H     0.8535211   -1.9689319    4.4816203 
H    -4.4099904   -1.3464996    5.9080396 
H     1.6717261    4.3211600   -3.5984542 
H    -3.7344837   -0.1901373   -5.9737153 
H     3.3225114   -2.3892962    4.3643642 
