101
Energy =
C     2.8959912   -0.5067455   -0.0959038 
C     2.7409126    0.8818036    0.2470397 
C     2.1279160    1.2122625    1.4761490 
H     2.9267095    1.6630039   -0.5012656 
Pd    0.7637745   -0.0605763    0.1606949 
P    -1.3666901    0.8435070    0.2992957 
P    -0.2359957   -2.0283961   -0.4958657 
H     3.1070795   -1.2083261    0.7238696 
H     2.1133218    0.4091145    2.2311072 
C     3.8030081   -2.0015610   -4.0380381 
C     3.2117824   -0.7355744   -3.8889059 
C     2.9392000   -0.2304935   -2.6127039 
C     3.2516517   -0.9780031   -1.4513433 
C     3.8605648   -2.2417712   -1.6179032 
C     4.1310618   -2.7484743   -2.8962076 
H     4.0117095   -2.3980817   -5.0367497 
H     2.9560529   -0.1426694   -4.7734830 
H     2.4575806    0.7481456   -2.5129302 
H     4.1222935   -2.8250651   -0.7297977 
H     4.6064152   -3.7295418   -3.0014539 
C     1.0197331    5.0097647    3.1448352 
C     0.9651217    3.8390840    3.9164072 
C     1.3431088    2.6154723    3.3516869 
C     1.7753332    2.5349341    2.0047927 
C     1.8237825    3.7226366    1.2408633 
C     1.4542212    4.9445414    1.8097039 
H     0.7312197    5.9708943    3.5826460 
H     0.6352561    3.8801735    4.9594641 
H     1.3121666    1.7037921    3.9596877 
H     2.1348197    3.6926978    0.1929486 
H     1.5014420    5.8541560    1.2036459 
C    -1.9079796    1.6228718    1.9328832 
C    -1.9702679    2.2707507   -0.7747848 
C    -0.2077228   -2.5619920   -2.2985071 
C     0.3555656   -3.6976706    0.1730642 
C    -2.5922252   -0.5020390   -0.1672692 
C    -2.0177310   -1.9076521    0.0579220 
C    -2.7541394    2.8709915    1.5465141 
C    -3.1632469    2.7956858    0.0598231 
C    -0.2395194   -4.1021633   -2.2190124 
C     0.7419621   -4.4928484   -1.0974004 
C    -2.5019906    0.5533496    2.8244110 
C    -0.8756427    3.2568112   -1.1600834 
C    -1.2463295   -1.7955735   -3.0829895 
C     1.3925442   -3.5289313    1.2698364 
C    -3.8846507    0.2939131    2.8935294 
C    -0.9418571    4.6319370   -0.8742409 
C    -0.9246971   -0.4936901   -3.5230348 
C     1.0841754   -2.7123611    2.3802941 
C    -1.6256767   -0.2825119    3.5503877 
C     0.2180131    2.7874941   -1.9208561 
C    -2.5549154   -2.2725587   -3.2931055 
C     2.6648013   -4.1235873    1.2137547 
C    -4.3751951   -0.7750446    3.6598879 
C     0.0463908    5.5123362   -1.3447558 
C    -1.8896345    0.3250503   -4.1234929 
C     2.0301076   -2.4649898    3.3820664 
C    -2.1126849   -1.3532533    4.3118436 
C     1.2065758    3.6609783   -2.3888769 
C    -3.5224052   -1.4552329   -3.8989526 
C     3.6170752   -3.8772440    2.2180876 
C    -3.4926120   -1.6059605    4.3654603 
C     1.1234557    5.0340326   -2.1022225 
C    -3.1986550   -0.1512669   -4.3038035 
C     3.3098076   -3.0386353    3.2979077 
H    -0.9581712    1.9563404    2.3840366 
H    -2.3307990    1.8014150   -1.7083804 
H     0.8002207   -2.2511108   -2.6350953 
H    -0.5541393   -4.1524698    0.6114304 
H    -3.5331680   -0.3772662    0.3941757 
H    -2.8088396   -0.3450816   -1.2391130 
H    -2.0036970   -2.1459009    1.1382016 
H    -2.6307848   -2.6750177   -0.4480094 
H    -2.1291629    3.7637449    1.7155033 
H    -3.6370039    2.9722916    2.1994250 
H    -4.0036406    2.0878526   -0.0602460 
H    -3.5228814    3.7686694   -0.3186234 
H     0.0426363   -4.5497782   -3.1877318 
H    -1.2556459   -4.4634292   -1.9733900 
H     0.7339307   -5.5782398   -0.8983347 
H     1.7645698   -4.2171345   -1.4119806 
H    -4.5912172    0.9314735    2.3502423 
H    -1.7749981    5.0375552   -0.2927988 
H     0.1012465   -0.1323202   -3.3910916 
H     0.0885579   -2.2609726    2.4602685 
H    -0.5482661   -0.0811694    3.5144199 
H     0.2775184    1.7190578   -2.1568692 
H    -2.8284384   -3.2867876   -2.9843960 
H     2.9264399   -4.7860191    0.3833668 
H    -5.4540650   -0.9567856    3.7063109 
H    -0.0328807    6.5808202   -1.1185101 
H    -1.6176052    1.3331407   -4.4544678 
H     1.7673487   -1.8268292    4.2333685 
H    -1.4152611   -1.9868524    4.8705927 
H     2.0384568    3.2749510   -2.9887087 
H    -4.5345231   -1.8420445   -4.0571335 
H     4.6038862   -4.3473291    2.1530784 
H    -3.8783163   -2.4377442    4.9635863 
H     1.8892419    5.7234659   -2.4718283 
H    -3.9567682    0.4833056   -4.7740487 
H     4.0549797   -2.8455010    4.0761794 
