101
Energy =
C     2.7697443   -0.4753802   -0.3386948 
C     2.6615169    0.8566515    0.1566334 
C     2.1466148    1.0822033    1.4599392 
H     2.7879418    1.7066580   -0.5245461 
Pd    0.6592436   -0.0336193    0.2273681 
P    -1.3793874    0.8486816    0.8976854 
P    -0.5703139   -1.7410097   -0.7641049 
H     2.9112108   -1.2777221    0.4011809 
H     2.2585158    0.2606456    2.1849216 
C     3.8508169   -1.5849090   -4.3631435 
C     3.7237219   -2.5558265   -3.3577043 
C     3.3784905   -2.1767884   -2.0543467 
C     3.1396386   -0.8218271   -1.7259247 
C     3.2691044    0.1440666   -2.7507847 
C     3.6269431   -0.2338046   -4.0501407 
H     4.1266178   -1.8769834   -5.3812888 
H     3.9051024   -3.6109478   -3.5877827 
H     3.2965073   -2.9345197   -1.2680327 
H     3.0868769    1.2012542   -2.5368007 
H     3.7290338    0.5317459   -4.8266230 
C     1.1608042    4.8609625    3.2649774 
C     1.4093463    3.7314289    4.0588644 
C     1.7464653    2.5122588    3.4557318 
C     1.8380415    2.3971264    2.0497158 
C     1.5925480    3.5448716    1.2627567 
C     1.2601154    4.7618790    1.8659464 
H     0.8968729    5.8151848    3.7321702 
H     1.3449038    3.7999899    5.1496614 
H     1.9556015    1.6351541    4.0785382 
H     1.6328240    3.4810170    0.1713377 
H     1.0714262    5.6397748    1.2391361 
C    -1.8205101    1.5723310    2.5821290 
C    -1.9836666    2.3740503   -0.0809677 
C    -0.3655009   -2.6196267   -2.4130509 
C    -0.4683568   -3.3414354    0.2644070 
C    -2.6727391   -0.4630491    0.5793798 
C    -2.3684491   -1.2322437   -0.7136201 
C    -2.8975528    2.6268008    2.2425062 
C    -2.3831314    3.3918735    1.0172796 
C    -0.9490622   -4.0208629   -2.1196353 
C    -0.3497627   -4.4834245   -0.7816203 
C    -2.1380609    0.5453207    3.6456176 
C    -1.0177969    2.8797865   -1.1443224 
C    -0.8974581   -1.8480757   -3.5998366 
C     0.6308220   -3.2186562    1.3116882 
C    -3.4189790   -0.0310487    3.7771218 
C    -0.6278778    4.2321042   -1.2037017 
C    -0.0174248   -1.0289478   -4.3355810 
C     1.9171869   -3.7626302    1.1374229 
C    -1.1262679    0.1333397    4.5362782 
C    -0.5028309    2.0015751   -2.1219434 
C    -2.2507778   -1.9055198   -3.9921608 
C     0.3873954   -2.4528330    2.4739034 
C    -3.6729997   -0.9994224    4.7589907 
C     0.2796918    4.6834439   -2.1747468 
C    -0.4768054   -0.2846688   -5.4300785 
C     2.9379329   -3.5274805    2.0729421 
C    -1.3791239   -0.8312080    5.5210707 
C     0.4054686    2.4476523   -3.0903672 
C    -2.7115340   -1.1548249   -5.0836302 
C     1.4032043   -2.2200612    3.4103685 
C    -2.6533282   -1.4069054    5.6318308 
C     0.8125212    3.7903005   -3.1137532 
C    -1.8274057   -0.3394020   -5.8049189 
C     2.6887498   -2.7460783    3.2092083 
H    -0.8962315    2.1070039    2.8723849 
H    -2.9012425    2.0148743   -0.5867977 
H     0.7328328   -2.7097879   -2.5175577 
H    -1.4417353   -3.4106257    0.7833858 
H    -2.6433750   -1.1375160    1.4547803 
H    -3.6812598   -0.0139837    0.5485220 
H    -3.0242063   -2.1148606   -0.8148328 
H    -2.5354033   -0.5993264   -1.6050353 
H    -3.0626737    3.2958125    3.1047587 
H    -3.8650686    2.1416628    2.0170501 
H    -3.1279288    4.1084663    0.6306358 
H    -1.4902640    3.9682701    1.3186936 
H    -0.7036711   -4.7183200   -2.9396269 
H    -2.0517368   -3.9775935   -2.0550931 
H    -0.8310468   -5.4018021   -0.4055784 
H     0.7125081   -4.7254028   -0.9501614 
H    -4.2336871    0.2823598    3.1162657 
H    -1.0260194    4.9522019   -0.4840879 
H     1.0384104   -0.9843712   -4.0491158 
H     2.1405738   -4.3828082    0.2647138 
H    -0.1331155    0.5869888    4.4547340 
H    -0.8172759    0.9521763   -2.1444434 
H    -2.9548064   -2.5487823   -3.4540553 
H    -0.6098458   -2.0364752    2.6587274 
H    -4.6757688   -1.4303425    4.8476989 
H     0.5673645    5.7399308   -2.1944629 
H     0.2254161    0.3351078   -5.9979960 
H     3.9292625   -3.9633424    1.9110487 
H    -0.5819601   -1.1293932    6.2104634 
H     0.7857739    1.7396067   -3.8312677 
H    -3.7649534   -1.2156750   -5.3764495 
H     1.1833894   -1.6308514    4.3052304 
H    -2.8541563   -2.1588457    6.4016659 
H     1.5237214    4.1404898   -3.8690898 
H    -2.1871395    0.2411170   -6.6605139 
H     3.4828594   -2.5643526    3.9405501 
