101
Energy =
C     2.9073554   -0.4545766   -0.1711655 
C     2.7282498    0.8977106    0.2538076 
C     2.1369241    1.1438528    1.5203947 
H     2.8631980    1.7257229   -0.4536443 
Pd    0.7598927   -0.0554268    0.2238396 
P    -1.3631608    0.6939951    0.7530775 
P    -0.2885325   -1.8502531   -0.7973755 
H     3.0683061   -1.2080088    0.6149744 
H     2.2394888    0.3396139    2.2664004 
C     4.0060282   -1.7755263   -4.1238043 
C     4.1224496   -2.6343497   -3.0203231 
C     3.7839121   -2.1830579   -1.7377945 
C     3.3110448   -0.8673023   -1.5296177 
C     3.2056587   -0.0115702   -2.6505672 
C     3.5544007   -0.4592642   -3.9297815 
H     4.2714139   -2.1247230   -5.1266324 
H     4.4871032   -3.6578150   -3.1577007 
H     3.8881781   -2.8504890   -0.8764720 
H     2.8327948    1.0094303   -2.5214319 
H     3.4673701    0.2197991   -4.7846030 
C     0.9040699    4.8814912    3.2485163 
C     1.1917686    3.7750930    4.0613936 
C     1.6066750    2.5701537    3.4796230 
C     1.7433561    2.4486807    2.0766768 
C     1.4460215    3.5702652    1.2692323 
C     1.0350693    4.7725458    1.8530541 
H     0.5782790    5.8249142    3.6983885 
H     1.0938150    3.8497976    5.1492246 
H     1.8340445    1.7076298    4.1167306 
H     1.5060995    3.4949378    0.1784613 
H     0.8053092    5.6289348    1.2116330 
C    -1.7949472    1.6277523    2.3377903 
C    -2.1980322    1.9212521   -0.4187168 
C    -0.0058087   -2.4755186   -2.5534572 
C     0.1087069   -3.5180177    0.0298475 
C    -2.4845990   -0.8003431    0.6368038 
C    -2.1356704   -1.6054270   -0.6279177 
C    -2.6656280    2.8320659    1.8786881 
C    -3.2799721    2.5449459    0.4932270 
C    -0.1887339   -4.0031994   -2.4121240 
C     0.5734215   -4.4163369   -1.1435158 
C    -2.3626665    0.6693076    3.3640996 
C    -1.2027209    2.8699625   -1.0760865 
C    -0.8129802   -1.7252658   -3.5886982 
C     1.0564004   -3.3511633    1.2087859 
C    -3.7431832    0.4207291    3.4925369 
C    -1.2208767    4.2624880   -0.8797505 
C    -0.2716855   -0.5584710   -4.1665955 
C     2.3452908   -3.9140466    1.2316375 
C    -1.4688558   -0.0622616    4.1737021 
C    -0.2418942    2.3351007   -1.9616517 
C    -2.1154193   -2.1167351   -3.9607749 
C     0.6557468   -2.5663861    2.3135967 
C    -4.2150039   -0.5363349    4.4032014 
C    -0.2990364    5.0947029   -1.5360649 
C    -1.0144010    0.2077678   -5.0744030 
C     3.2250655   -3.6648554    2.2987739 
C    -1.9377617   -1.0245232    5.0779742 
C     0.6774067    3.1620515   -2.6177653 
C    -2.8568870   -1.3549555   -4.8761941 
C     1.5281408   -2.3217821    3.3815725 
C    -3.3152975   -1.2668991    5.1935433 
C     0.6588127    4.5498824   -2.4009742 
C    -2.3129500   -0.1866254   -5.4302825 
C     2.8259069   -2.8576775    3.3719632 
H    -0.8249903    1.9970734    2.7092311 
H    -2.6646368    1.3173594   -1.2186871 
H     1.0686454   -2.2687825   -2.7201674 
H    -0.8649614   -3.8860087    0.4053136 
H    -2.3293270   -1.3932995    1.5557815 
H    -3.5447945   -0.4928606    0.6318948 
H    -2.6574711   -2.5786382   -0.6408629 
H    -2.4483830   -1.0599377   -1.5375912 
H    -2.0092582    3.7161153    1.8203315 
H    -3.4437228    3.0588815    2.6266752 
H    -4.1118070    1.8244902    0.5951471 
H    -3.7125467    3.4521242    0.0360962 
H     0.1950515   -4.5215024   -3.3080031 
H    -1.2591103   -4.2634483   -2.3173352 
H     0.4323749   -5.4828151   -0.8977477 
H     1.6506065   -4.2579334   -1.3257195 
H    -4.4622952    0.9773393    2.8816245 
H    -1.9593759    4.7198318   -0.2153069 
H     0.7486972   -0.2609656   -3.9019005 
H     2.6783735   -4.5600994    0.4146752 
H    -0.3942803    0.1372971    4.0898027 
H    -0.2320967    1.2566434   -2.1570208 
H    -2.5588905   -3.0254596   -3.5406053 
H    -0.3560449   -2.1462072    2.3488700 
H    -5.2921222   -0.7108725    4.4955960 
H    -0.3358990    6.1764434   -1.3698135 
H    -0.5758424    1.1127809   -5.5077705 
H     4.2248173   -4.1112927    2.2891494 
H    -1.2285449   -1.5802135    5.7008636 
H     1.3982208    2.7255629   -3.3177254 
H    -3.8637544   -1.6791505   -5.1595688 
H     1.1908823   -1.7155308    4.2285145 
H    -3.6860374   -2.0138527    5.9027756 
H     1.3747279    5.2002982   -2.9136336 
H    -2.8941976    0.4070662   -6.1432082 
H     3.5115221   -2.6638253    4.2030396 
