101
Energy =
C     2.9199120   -0.1004012   -0.0388641 
C     2.6366677    1.2527025    0.3110473 
C     2.0161090    1.5443980    1.5531155 
H     2.7281261    2.0409002   -0.4467631 
Pd    0.7292187    0.1724877    0.3412138 
P    -1.4037431    0.9382354    0.8143105 
P    -0.3163605   -1.6028039   -0.7332248 
H     3.1347874   -0.7964266    0.7848770 
H     2.1443894    0.7972220    2.3529023 
C     4.2069499   -1.4299561   -3.9314865 
C     4.5087884   -2.1809069   -2.7859593 
C     4.1056557   -1.7310035   -1.5211514 
C     3.3810968   -0.5259671   -1.3746285 
C     3.0922253    0.2241306   -2.5394288 
C     3.5051319   -0.2196429   -3.7998457 
H     4.5202230   -1.7804729   -4.9199140 
H     5.0692600   -3.1172482   -2.8752226 
H     4.3716777   -2.3106169   -0.6309823 
H     2.5169640    1.1519781   -2.4551581 
H     3.2696615    0.3749057   -4.6889644 
C     0.7054910    5.3708893    3.0181711 
C     0.8015244    4.2668865    3.8788817 
C     1.2366443    3.0307731    3.3844526 
C     1.5761916    2.8705504    2.0195819 
C     1.4684435    3.9897876    1.1637219 
C     1.0450781    5.2259245    1.6621792 
H     0.3736126    6.3410698    3.4016898 
H     0.5470026    4.3702071    4.9386702 
H     1.3275014    2.1754672    4.0641558 
H     1.6997412    3.8952787    0.0984532 
H     0.9723644    6.0821351    0.9840548 
C    -1.9219227    1.4360868    2.5471073 
C    -2.0369878    2.5370265   -0.0007197 
C     0.2941501   -2.3834201   -2.3523196 
C    -0.5194196   -3.2189063    0.2138658 
C    -2.6065393   -0.3851172    0.2747342 
C    -2.0963174   -1.0879604   -0.9943570 
C    -3.0022668    2.5094510    2.3113840 
C    -2.4597069    3.4222472    1.2003545 
C     0.3452794   -3.9103162   -2.0583467 
C    -0.6383294   -4.2711722   -0.9284736 
C    -2.2123602    0.2401110    3.4252917 
C    -1.1159733    3.1792927   -1.0268914 
C    -0.5644951   -1.9136476   -3.5116468 
C     0.5768655   -3.4799573    1.2280644 
C    -3.5228162   -0.1978557    3.6990237 
C    -0.4624139    2.3967836   -2.0013936 
C    -1.6932136   -2.6274233   -3.9599549 
C     0.2347224   -3.8831702    2.5330129 
C    -1.1311722   -0.4972478    3.9537991 
C    -0.9362687    4.5755082   -1.0715171 
C    -0.2688159   -0.6759077   -4.1192878 
C     1.9418443   -3.3509876    0.9033410 
C    -3.7452936   -1.3384355    4.4860800 
C     0.3606954    2.9857848   -2.9707012 
C    -2.5045880   -2.1133620   -4.9825203 
C     1.2279470   -4.1529890    3.4858011 
C    -1.3525394   -1.6334779    4.7416101 
C    -0.1093870    5.1679206   -2.0379603 
C    -1.0828507   -0.1565814   -5.1342171 
C     2.9367015   -3.6197513    1.8532384 
C    -2.6627371   -2.0598102    5.0095825 
C     0.5506187    4.3760240   -2.9873707 
C    -2.2080861   -0.8739458   -5.5681885 
C     2.5831429   -4.0216554    3.1503365 
H    -1.0202971    1.9500757    2.9321788 
H    -2.9535772    2.2054109   -0.5274297 
H     1.3152398   -1.9891219   -2.4926313 
H    -1.4767240   -3.1469551    0.7581682 
H    -2.6786022   -1.0930129    1.1214084 
H    -3.6124992    0.0435752    0.1211260 
H    -2.7114006   -1.9696528   -1.2451735 
H    -2.1253544   -0.4177918   -1.8724582 
H    -3.2044920    3.0699389    3.2405603 
H    -3.9549997    2.0479732    1.9913935 
H    -3.2068774    4.1708186    0.8860066 
H    -1.5767410    3.9693561    1.5789876 
H     1.3710438   -4.1756188   -1.7532586 
H     0.1332897   -4.4859011   -2.9753121 
H    -1.6754659   -4.2575192   -1.3114625 
H    -0.4527797   -5.2851481   -0.5342723 
H    -4.3813345    0.3564133    3.3067394 
H    -0.6031014    1.3099887   -2.0156593 
H    -1.9470436   -3.5958788   -3.5162430 
H    -0.8213509   -3.9811452    2.8079723 
H    -0.1047454   -0.1733165    3.7442677 
H    -1.4386744    5.2179238   -0.3434824 
H     0.6193760   -0.1261417   -3.7910233 
H     2.2332118   -3.0266783   -0.1006212 
H    -4.7712003   -1.6580021    4.6970653 
H     0.8446898    2.3576135   -3.7259059 
H    -3.3735286   -2.6864751   -5.3226460 
H     0.9406359   -4.4694680    4.4942282 
H    -0.4986621   -2.1841943    5.1481241 
H     0.0155698    6.2558237   -2.0477764 
H    -0.8348797    0.8073926   -5.5911603 
H     3.9932787   -3.5185811    1.5809966 
H    -2.8390918   -2.9442970    5.6304490 
H     1.1948646    4.8378972   -3.7424002 
H    -2.8447414   -0.4741211   -6.3639511 
H     3.3591623   -4.2348022    3.8925490 
