101
Energy =
C     2.8399310   -0.1891400    0.1997658 
C     2.6220910    1.2191769    0.3445373 
C     1.9810703    1.6987300    1.5113933 
H     2.7678832    1.8945675   -0.5075337 
Pd    0.6767040    0.2049682    0.4392604 
P    -1.4405755    1.1361626    0.5306492 
P    -0.3423603   -1.7843860   -0.1959625 
H     3.0383934   -0.7680972    1.1117625 
H     2.0063250    1.0281833    2.3862227 
C     3.8496785   -2.2510188   -3.4416997 
C     3.4292464   -0.9115008   -3.4974975 
C     3.1225484   -0.2177328   -2.3211417 
C     3.2361070   -0.8475596   -1.0588967 
C     3.6767674   -2.1897947   -1.0166862 
C     3.9754686   -2.8844524   -2.1951462 
H     4.0815108   -2.7936008   -4.3637028 
H     3.3320838   -0.4084167   -4.4652571 
H     2.7755388    0.8189205   -2.3852791 
H     3.7726930   -2.6900610   -0.0482761 
H     4.3110417   -3.9253853   -2.1384584 
C     0.8006853    5.6866759    2.5913298 
C     0.6743550    4.6250999    3.5014210 
C     1.0703787    3.3365207    3.1265682 
C     1.5874141    3.0784960    1.8329151 
C     1.7030636    4.1558005    0.9264339 
C     1.3202413    5.4455074    1.3088236 
H     0.5028663    6.6992062    2.8823759 
H     0.2803435    4.8045948    4.5069863 
H     0.9929605    2.5126185    3.8460594 
H     2.0822641    3.9900095   -0.0865252 
H     1.4221429    6.2685967    0.5952120 
C    -2.1447264    1.4789721    2.2390880 
C    -1.9474689    2.8146912   -0.1793658 
C     0.0412761   -2.4481780   -1.9267273 
C    -0.1520143   -3.4511142    0.6676482 
C    -2.5843845   -0.0591611   -0.3356241 
C    -2.1936985   -1.5184956   -0.0727039 
C    -3.1340097    2.6372762    2.0139259 
C    -2.4313960    3.6178814    1.0559396 
C     0.0419280   -3.9994124   -1.7871642 
C    -0.6049587   -4.4218015   -0.4498786 
C    -2.5746671    0.1796057    2.8789861 
C    -0.9300489    3.4853011   -1.0886588 
C    -0.8841568   -1.7991673   -2.9342071 
C     1.2304501   -3.6688181    1.2660794 
C    -3.9023620   -0.2873738    2.8414757 
C    -0.8605270    4.8881175   -1.1893743 
C    -2.1346738   -2.3462174   -3.2851779 
C     2.0786956   -4.7217874    0.8758355 
C    -1.5803904   -0.6607675    3.4273352 
C    -0.0704169    2.7177748   -1.8993826 
C    -0.5218673   -0.5498811   -3.4795874 
C     1.6675154   -2.8110803    2.2988794 
C    -4.2212788   -1.5702865    3.3150361 
C     0.0500051    5.5019404   -2.0622695 
C    -3.0067059   -1.6496282   -4.1357585 
C     3.3298121   -4.9033537    1.4878434 
C    -1.8956348   -1.9422711    3.8966227 
C     0.8435120    3.3269835   -2.7700193 
C    -1.3932468    0.1509190   -4.3240783 
C     2.9156642   -2.9861392    2.9089827 
C    -3.2201840   -2.4058140    3.8323915 
C     0.9115950    4.7263032   -2.8514910 
C    -2.6450563   -0.3945637   -4.6486758 
C     3.7572990   -4.0338818    2.5001950 
H    -1.2723218    1.8816419    2.7875721 
H    -2.8377001    2.5662165   -0.7923678 
H     1.0677363   -2.0957447   -2.1228084 
H    -0.8836234   -3.4395702    1.4962076 
H    -3.6307376    0.1320069   -0.0364131 
H    -2.4925654    0.1759220   -1.4131313 
H    -2.4602497   -1.8103254    0.9587807 
H    -2.7269011   -2.1900171   -0.7655542 
H    -3.4048066    3.1170853    2.9705490 
H    -4.0706240    2.2719656    1.5528449 
H    -3.1080864    4.4340582    0.7508283 
H    -1.5602289    4.0773679    1.5587906 
H     1.0919592   -4.3344060   -1.8171628 
H    -0.4681497   -4.4725287   -2.6426518 
H    -1.7055686   -4.3684175   -0.5314397 
H    -0.3670928   -5.4685071   -0.1907335 
H    -4.6978518    0.3483084    2.4394838 
H    -1.5145602    5.5163616   -0.5775416 
H    -2.4350810   -3.3265196   -2.8980917 
H     1.7713393   -5.4195403    0.0918038 
H    -0.5460982   -0.2982109    3.4768132 
H    -0.1163217    1.6237087   -1.8492685 
H     0.4642309   -0.1374667   -3.2393036 
H     1.0128146   -1.9939440    2.6243518 
H    -5.2595024   -1.9165023    3.2805430 
H     0.0869257    6.5947811   -2.1225559 
H    -3.9730614   -2.0918642   -4.3999450 
H     3.9717187   -5.7305800    1.1677075 
H    -1.1091655   -2.5781853    4.3170735 
H     1.4968847    2.7069695   -3.3940987 
H    -1.0920561    1.1222590   -4.7304224 
H     3.2307960   -2.3094973    3.7107094 
H    -3.4725911   -3.4058698    4.1993317 
H     1.6229659    5.2074981   -3.5304009 
H    -3.3287118    0.1476371   -5.3098803 
H     4.7335457   -4.1753523    2.9746074 
