101
Energy =
C     2.8708425   -0.4239073    0.0207389 
C     2.6971932    0.9779965    0.2593634 
C     2.0646315    1.4043486    1.4543153 
H     2.8653565    1.6956639   -0.5539723 
Pd    0.7233256    0.0324156    0.2937951 
P    -1.3943662    0.9444745    0.5358607 
P    -0.2953603   -1.8894078   -0.4937596 
H     3.0507868   -1.0697458    0.8927860 
H     2.0919908    0.6924627    2.2953538 
C     3.9400980   -2.1651732   -3.7760121 
C     3.2800013   -0.9251258   -3.7350899 
C     2.9478691   -0.3448879   -2.5061519 
C     3.2699559   -0.9870021   -1.2870209 
C     3.9453940   -2.2255574   -1.3438397 
C     4.2748252   -2.8089153   -2.5751591 
H     4.1950695   -2.6220719   -4.7375189 
H     3.0155051   -0.4140995   -4.6670305 
H     2.4083682    0.6075755   -2.4849176 
H     4.2133914   -2.7282430   -0.4097548 
H     4.8012706   -3.7690419   -2.5967351 
C     0.8964537    5.3552431    2.6852400 
C     0.8372774    4.2741299    3.5785158 
C     1.2332672    2.9994817    3.1569374 
C     1.6854182    2.7751090    1.8336227 
C     1.7346561    3.8723301    0.9446317 
C     1.3508758    5.1475863    1.3722035 
H     0.5968674    6.3563307    3.0118834 
H     0.4937601    4.4265843    4.6068687 
H     1.2055260    2.1602375    3.8620528 
H     2.0574925    3.7323873   -0.0916730 
H     1.3988187    5.9850326    0.6695762 
C    -2.0509733    1.3654353    2.2508416 
C    -1.8983995    2.6126764   -0.2179149 
C    -0.2147142   -2.4131398   -2.3053578 
C     0.2568815   -3.5745420    0.1762610 
C    -2.5788871   -0.2786345   -0.2405341 
C    -2.0998054   -1.7245903   -0.0333793 
C    -3.0508815    2.5104902    1.9968932 
C    -2.3750189    3.4553308    0.9930547 
C    -0.2607753   -3.9545946   -2.2340678 
C     0.6760223   -4.3640400   -1.0864779 
C    -2.4911742    0.1477301    3.0278937 
C    -0.8792693    3.2761205   -1.1323941 
C    -1.2173283   -1.6710490   -3.1573862 
C     1.2749064   -3.4384258    1.2958496 
C    -3.7995719   -0.3711909    2.9456031 
C    -0.0258232    2.5109470   -1.9505179 
C    -0.8465751   -0.4328532   -3.7214211 
C     0.9746900   -2.6082381    2.3967192 
C    -1.5507761   -0.5317878    3.8299280 
C    -0.8002675    4.6798198   -1.2239117 
C    -2.5390360   -2.1242206   -3.3462983 
C     2.5211046   -4.0885126    1.2728749 
C    -4.1467528   -1.5485834    3.6246568 
C     0.8884411    3.1219761   -2.8198959 
C    -1.7756325    0.3547717   -4.4134282 
C     1.9040482   -2.4003702    3.4227214 
C    -1.8957617   -1.7072111    4.5106566 
C     0.1129025    5.2955256   -2.0923801 
C    -3.4693013   -1.3415316   -4.0466089 
C     3.4562592   -3.8833389    2.3020354 
C    -3.1952164   -2.2252415    4.4023860 
C     0.9668536    4.5209826   -2.8904825 
C    -3.0960650   -0.0942003   -4.5700273 
C     3.1585813   -3.0300859    3.3732296 
H    -1.1614330    1.8009183    2.7439537 
H    -2.7865978    2.3522271   -0.8284841 
H     0.8061112   -2.1101954   -2.6066170 
H    -0.6685126   -4.0234410    0.5873638 
H    -3.5970934   -0.1359574    0.1616352 
H    -2.6065512   -0.0330761   -1.3187933 
H    -2.1723169   -2.0065594    1.0342144 
H    -2.7157943   -2.4348717   -0.6120858 
H    -3.3031906    3.0211849    2.9424953 
H    -3.9953354    2.1218914    1.5724163 
H    -3.0620532    4.2540151    0.6656168 
H    -1.5006668    3.9399550    1.4659984 
H     0.0485429   -4.3938805   -3.1982624 
H    -1.2881671   -4.3078124   -2.0272312 
H     0.6497345   -5.4506307   -0.8956045 
H     1.7122549   -4.0970264   -1.3625914 
H    -4.5628691    0.1497187    2.3582423 
H    -0.0775440    1.4170030   -1.9035283 
H     0.1889083   -0.0928002   -3.6146057 
H    -0.0039140   -2.1192645    2.4531911 
H    -0.5359986   -0.1256542    3.9187167 
H    -1.4496440    5.3093401   -0.6089198 
H    -2.8505755   -3.0971412   -2.9522119 
H     2.7774522   -4.7606259    0.4488984 
H    -5.1692330   -1.9337006    3.5517730 
H     1.5372696    2.5057228   -3.4520126 
H    -1.4659036    1.3183823   -4.8311263 
H     1.6478372   -1.7488349    4.2657847 
H    -1.1496778   -2.2187934    5.1277732 
H     0.1568163    6.3885977   -2.1426679 
H    -4.4905770   -1.7111527   -4.1863615 
H     4.4226847   -4.3968313    2.2630146 
H    -3.4692284   -3.1419073    4.9344190 
H     1.6804425    5.0022875   -3.5669332 
H    -3.8255717    0.5160563   -5.1122460 
H     3.8911483   -2.8687778    4.1705452 
