101
Energy =
C     2.8238137   -0.4122464    0.0166391 
C     2.6909129    0.9527177    0.4106678 
C     2.0658864    1.2778520    1.6442204 
H     2.8855100    1.7485477   -0.3191975 
Pd    0.6835768    0.0846498    0.3641473 
P    -1.4113425    0.9417016    0.8292637 
P    -0.4173523   -1.5965681   -0.7924644 
H     2.9318896   -1.1662222    0.8111131 
H     2.1108103    0.5137715    2.4362440 
C     3.9404157   -1.7723120   -3.9165530 
C     4.0796931   -2.6124339   -2.8017857 
C     3.7347715   -2.1526710   -1.5233926 
C     3.2392655   -0.8432446   -1.3329721 
C     3.1092038   -0.0046376   -2.4659977 
C     3.4593781   -0.4633909   -3.7403283 
H     4.2064597   -2.1314601   -4.9157030 
H     4.4626215   -3.6306558   -2.9274948 
H     3.8454174   -2.8097699   -0.6552552 
H     2.7036457    1.0058287   -2.3512019 
H     3.3490221    0.1995286   -4.6051472 
C     0.9758181    5.1881562    3.0749204 
C     1.0924599    4.1074552    3.9616293 
C     1.4630141    2.8447474    3.4806375 
C     1.7170115    2.6341867    2.1051552 
C     1.5907468    3.7314500    1.2230111 
C     1.2312279    4.9934176    1.7064292 
H     0.6920540    6.1779709    3.4467646 
H     0.9027872    4.2485500    5.0306706 
H     1.5718456    2.0082329    4.1804947 
H     1.7478006    3.5958976    0.1482545 
H     1.1409724    5.8306186    1.0069719 
C    -1.9262758    1.5328249    2.5374657 
C    -1.9950318    2.5245112   -0.0569203 
C     0.1571300   -2.3177583   -2.4457292 
C    -0.4868817   -3.2393593    0.1397519 
C    -2.6502966   -0.3690565    0.3312889 
C    -2.2066111   -1.0810085   -0.9591786 
C    -2.9976628    2.6033619    2.2430880 
C    -2.4374947    3.4600320    1.0983183 
C     0.3223601   -3.8414442   -2.1791834 
C    -0.5586071   -4.2891053   -0.9934562 
C    -2.2386454    0.4085869    3.4974690 
C    -1.0206795    3.1161676   -1.0654148 
C    -0.7588182   -1.8854297   -3.5720789 
C     0.6725388   -3.3121227    1.1232428 
C    -3.5245020   -0.1603702    3.6007221 
C    -0.7560261    4.4989968   -1.1029453 
C    -0.4742723   -0.6855529   -4.2554886 
C     1.8341471   -4.0720706    0.9025135 
C    -1.2043726   -0.1234807    4.2954709 
C    -0.3896014    2.2965608   -2.0244004 
C    -1.9198197   -2.6015259   -3.9258715 
C     0.5958324   -2.5326480    2.2991434 
C    -3.7648597   -1.2332625    4.4717492 
C     0.1333161    5.0406900   -2.0435853 
C    -1.3329350   -0.2012814   -5.2511874 
C     2.9027368   -4.0320022    1.8153121 
C    -1.4427930   -1.1953508    5.1660613 
C     0.4959782    2.8347245   -2.9673959 
C    -2.7754425   -2.1237306   -4.9291797 
C     1.6590712   -2.4906228    3.2087318 
C    -2.7251621   -1.7572195    5.2541445 
C     0.7717206    4.2105874   -2.9746558 
C    -2.4904095   -0.9187895   -5.5891902 
C     2.8262194   -3.2330209    2.9641268 
H    -1.0168683    2.0556268    2.8916121 
H    -2.8978705    2.1925776   -0.6064320 
H     1.1480315   -1.8661073   -2.6152415 
H    -1.4265774   -3.2313290    0.7210544 
H    -2.6945642   -1.0799826    1.1774293 
H    -3.6583088    0.0683774    0.2204861 
H    -2.8406236   -1.9583610   -1.1757630 
H    -2.2737535   -0.4135189   -1.8378073 
H    -3.1997499    3.2062147    3.1452755 
H    -3.9528848    2.1350626    1.9413642 
H    -3.1738844    4.1986415    0.7381978 
H    -1.5584205    4.0179810    1.4695660 
H     1.3854481   -4.0249031   -1.9514833 
H     0.0880102   -4.4162223   -3.0910990 
H    -1.6105386   -4.3696350   -1.3215496 
H    -0.2689213   -5.2887293   -0.6239736 
H    -4.3514279    0.2391423    3.0042995 
H    -1.2408599    5.1715248   -0.3905512 
H     0.4423829   -0.1401518   -4.0055934 
H     1.9203071   -4.7069101    0.0160564 
H    -0.2024463    0.3155029    4.2301726 
H    -0.5966079    1.2209319   -2.0465011 
H    -2.1621979   -3.5432684   -3.4213245 
H    -0.3153108   -1.9619091    2.5143915 
H    -4.7720355   -1.6569903    4.5435936 
H     0.3239607    6.1190477   -2.0473296 
H    -1.0933565    0.7335693   -5.7688688 
H     3.7980411   -4.6330836    1.6245333 
H    -0.6274937   -1.5905761    5.7811401 
H     0.9644708    2.1782212   -3.7079281 
H    -3.6693501   -2.6969442   -5.1966825 
H     1.5712467   -1.8846487    4.1168346 
H    -2.9155527   -2.5921912    5.9360131 
H     1.4657267    4.6325107   -3.7087016 
H    -3.1616799   -0.5468581   -6.3699172 
H     3.6604718   -3.2031112    3.6722475 
