101
Energy =
C    -0.4871581    2.2697320   -1.6585831 
C    -1.5812004    1.4046179   -1.9602402 
C    -2.5430079    1.1009841   -0.9599023 
H    -1.5696626    0.8209418   -2.8892039 
Pd   -0.4999436    0.5320617   -0.2704657 
P    -0.8320974   -1.3735848    0.9937006 
P     1.6749998    0.5143419    0.5321583 
H    -0.6505749    3.0593663   -0.9095313 
H    -2.6813565    1.8511229   -0.1653442 
C     3.0011858    2.8233595   -4.1267596 
C     2.6429827    3.7824181   -3.1676569 
C     1.4938001    3.6038601   -2.3851731 
C     0.6800288    2.4595672   -2.5426361 
C     1.0508601    1.5025203   -3.5175540 
C     2.1948432    1.6853931   -4.3016205 
H     3.8998417    2.9605382   -4.7364136 
H     3.2597205    4.6768853   -3.0304662 
H     1.2159387    4.3542336   -1.6384872 
H     0.4531235    0.5938933   -3.6425247 
H     2.4667625    0.9322948   -5.0489149 
C    -5.7181544   -1.7972168   -1.1734798 
C    -5.7506621   -0.7673752   -0.2214380 
C    -4.7161232    0.1765289   -0.1764073 
C    -3.6257054    0.1067342   -1.0748361 
C    -3.6042396   -0.9393769   -2.0252723 
C    -4.6432175   -1.8740480   -2.0760714 
H    -6.5269314   -2.5338329   -1.2163201 
H    -6.5862375   -0.6932977    0.4821435 
H    -4.7556279    0.9901898    0.5568491 
H    -2.7590865   -1.0419832   -2.7131281 
H    -4.6089600   -2.6750695   -2.8213556 
C     3.2067861    0.9208303   -0.5032056 
C     1.9947457    1.7910876    1.8887322 
C    -2.3397368   -1.6350447    2.0852295 
C    -0.9863603   -3.0615947    0.1227502 
C     1.9473305   -1.1336391    1.3723189 
C     0.6603573   -1.5453681    2.1093881 
C     3.8959250    2.0953267    0.2488550 
C     3.5037446    2.0954787    1.7418317 
C    -2.4989452   -3.1692338    2.1229002 
C    -2.3099536   -3.6502570    0.6769353 
C     4.0202389   -0.3274915   -0.7762461 
C     1.0058777    2.9393461    1.7457857 
C    -2.2908668   -0.8575667    3.3799011 
C    -0.8424457   -3.0401973   -1.3922430 
C     3.7231379   -1.0935645   -1.9220233 
C     1.3389390    4.1900487    1.1976303 
C    -1.6919073   -1.3728312    4.5476027 
C    -1.7271534   -3.7565293   -2.2215870 
C     5.0209203   -0.7905376    0.1013350 
C    -0.3324088    2.7163410    2.1400520 
C    -2.8261251    0.4468403    3.4209788 
C     0.2147983   -2.3364415   -2.0060250 
C     4.3906269   -2.2988464   -2.1771175 
C     0.3570698    5.1804020    1.0190706 
C    -1.6253265   -0.6024573    5.7179192 
C    -1.5814855   -3.7441048   -3.6172272 
C     5.6971891   -1.9917623   -0.1572755 
C    -1.3117060    3.7006854    1.9621276 
C    -2.7599949    1.2180019    4.5891519 
C     0.3653714   -2.3252130   -3.3990165 
C     5.3790994   -2.7542713   -1.2914433 
C    -0.9728913    4.9369193    1.3874782 
C    -2.1546804    0.6963480    5.7421496 
C    -0.5405709   -3.0206021   -4.2143580 
H     2.8038362    1.2859066   -1.4618153 
H     1.7929221    1.2852214    2.8500187 
H    -3.1579011   -1.2274196    1.4606441 
H    -0.1407725   -3.6434941    0.5393990 
H     2.2173417   -1.8608612    0.5847339 
H     2.8076256   -1.0761127    2.0616942 
H     0.7369938   -2.5743813    2.5032330 
H     0.4709246   -0.8792555    2.9715828 
H     3.5678603    3.0332298   -0.2292285 
H     4.9904482    2.0398817    0.1229220 
H     4.0668425    1.3077588    2.2739482 
H     3.7629017    3.0506055    2.2320674 
H    -3.4909183   -3.4451496    2.5204926 
H    -1.7413716   -3.6299259    2.7835417 
H    -2.3035656   -4.7514803    0.6067419 
H    -3.1543124   -3.2811755    0.0664325 
H     2.9669287   -0.7234036   -2.6229728 
H     2.3695196    4.4092076    0.9039839 
H    -1.2792431   -2.3871960    4.5516345 
H    -2.5475179   -4.3315644   -1.7842925 
H     5.2826558   -0.2117747    0.9939498 
H    -0.6095062    1.7639921    2.6075309 
H    -3.3015409    0.8555245    2.5222178 
H     0.9411700   -1.7940450   -1.3907917 
H     4.1435808   -2.8787746   -3.0726254 
H     0.6386459    6.1482321    0.5910030 
H    -1.1628727   -1.0228385    6.6170815 
H    -2.2864151   -4.3066347   -4.2384077 
H     6.4771897   -2.3332046    0.5313686 
H    -2.3404899    3.5056304    2.2833934 
H    -3.1857433    2.2268333    4.6017919 
H     1.2011060   -1.7800679   -3.8497677 
H     5.9064235   -3.6931115   -1.4888138 
H    -1.7352766    5.7095561    1.2456215 
H    -2.1047129    1.2948676    6.6573761 
H    -0.4264963   -3.0104778   -5.3031105 
