101
Energy =
C    -0.1530542    2.2878144   -1.6617785 
C    -1.3802993    1.6244264   -1.9644754 
C    -2.3894034    1.5171203   -0.9756014 
H    -1.4601865    1.0385332   -2.8884868 
Pd   -0.4422426    0.5921661   -0.2681059 
P    -0.9578312   -1.2406842    1.0530227 
P     1.7085500    0.4129570    0.6113316 
H    -0.1931801    3.1101084   -0.9325752 
H    -2.3518616    2.2447758   -0.1497441 
C     3.3334885    2.3065353   -4.1930156 
C     3.1122403    3.3420730   -3.2727471 
C     1.9685602    3.3310158   -2.4623381 
C     1.0278115    2.2801443   -2.5490107 
C     1.2702986    1.2345961   -3.4704075 
C     2.4040016    1.2565734   -4.2899140 
H     4.2228652    2.3163278   -4.8311730 
H     3.8274012    4.1675687   -3.1930662 
H     1.7887091    4.1508017   -1.7587349 
H     0.5864239    0.3804470   -3.5226500 
H     2.5702833    0.4412965   -5.0022634 
C    -6.1049662   -0.6453633   -1.2211999 
C    -5.7571393    0.0605474   -0.0589680 
C    -4.5549978    0.7756644   -0.0077780 
C    -3.6644044    0.7916064   -1.1072909 
C    -4.0469705    0.1031449   -2.2823147 
C    -5.2501683   -0.6095227   -2.3353065 
H    -7.0453245   -1.2039062   -1.2668826 
H    -6.4272350    0.0605256    0.8069882 
H    -4.2969290    1.3371303    0.8965751 
H    -3.4065854    0.1348548   -3.1689599 
H    -5.5281462   -1.1336498   -3.2555637 
C     3.3807017    0.3928077   -0.2809835 
C     2.1269444    1.9470495    1.6719978 
C    -2.5615458   -1.6880634    1.9417239 
C    -0.8326043   -2.8783498    0.0995421 
C     1.7392953   -1.0639258    1.7594597 
C     0.3595580   -1.3431804    2.3712537 
C     4.2908668    1.2238178    0.6576724 
C     3.4794928    2.4405645    1.1082155 
C    -2.6310574   -3.2241587    1.8029169 
C    -2.1952417   -3.5730287    0.3737517 
C     3.9293269   -0.9548819   -0.6992978 
C     0.9909165    2.9589697    1.7048007 
C    -2.6291689   -1.0827062    3.3290557 
C    -0.4742121   -2.6991894   -1.3618361 
C     3.9137224   -1.3246440   -2.0580378 
C     1.1102646    4.2435858    1.1415705 
C    -2.4597410   -1.8471619    4.4993862 
C     0.7634441   -3.1352701   -1.8678286 
C     4.5193485   -1.8418773    0.2277805 
C    -0.2475873    2.6028846    2.2829103 
C    -2.8204508    0.3090570    3.4618248 
C    -1.3873860   -2.0906140   -2.2485418 
C     4.4756856   -2.5372935   -2.4803646 
C     0.0189335    5.1276248    1.1123720 
C    -2.4791414   -1.2366627    5.7632997 
C     1.0693792   -2.9902092   -3.2300841 
C     5.0606044   -3.0652782   -0.1901163 
C    -1.3360077    3.4848017    2.2592466 
C    -2.8353581    0.9207139    4.7213921 
C    -1.0800280   -1.9384729   -3.6057951 
C     5.0423740   -3.4178850   -1.5481614 
C    -1.2135537    4.7476888    1.6590197 
C    -2.6626380    0.1476749    5.8802228 
C     0.1514425   -2.3937764   -4.1042901 
H     3.1812425    0.9913093   -1.1893974 
H     2.2808977    1.5492200    2.6932381 
H    -3.3519296   -1.2385187    1.3098120 
H    -0.0314708   -3.4495485    0.6031363 
H     2.0607739   -1.9125787    1.1277525 
H     2.5074121   -0.9290953    2.5412698 
H     0.3321504   -2.3316378    2.8639590 
H     0.0926509   -0.5937225    3.1386904 
H     5.2115100    1.5156753    0.1234171 
H     4.5995981    0.6198486    1.5305893 
H     4.0138478    3.0517960    1.8558724 
H     3.3017196    3.0780283    0.2247598 
H    -3.6486462   -3.5889992    2.0280139 
H    -1.9451274   -3.7064207    2.5237251 
H    -2.1039423   -4.6612322    0.2169015 
H    -2.9506092   -3.2046288   -0.3432082 
H     3.4670613   -0.6437083   -2.7885487 
H     2.0620832    4.5725681    0.7164614 
H    -2.3198953   -2.9304667    4.4363054 
H     1.4970664   -3.6000579   -1.1985690 
H     4.5782601   -1.5732089    1.2876290 
H    -0.3641910    1.6278506    2.7690808 
H    -2.9526001    0.9132783    2.5579929 
H    -2.3563936   -1.7415760   -1.8756635 
H     4.4775128   -2.7918947   -3.5456795 
H     0.1396831    6.1193190    0.6642191 
H    -2.3542704   -1.8512200    6.6609770 
H     2.0291258   -3.3542188   -3.6062907 
H     5.5142591   -3.7371514    0.5460546 
H    -2.2845580    3.1898210    2.7182489 
H    -2.9868297    2.0023542    4.8031994 
H    -1.8091910   -1.4782514   -4.2820175 
H     5.4814142   -4.3651362   -1.8777426 
H    -2.0654320    5.4347320    1.6355582 
H    -2.6782189    0.6215047    6.8668975 
H     0.3887497   -2.2902727   -5.1682878 
