101
Energy =
C    -0.3432705    2.2242615   -1.7905526 
C    -1.5406809    1.4830924   -2.0156797 
C    -2.4921477    1.3523749   -0.9721493 
H    -1.6365013    0.8737574   -2.9227873 
Pd   -0.4805565    0.5589159   -0.3257698 
P    -0.8970422   -1.1883821    1.1462171 
P     1.7010218    0.4822812    0.4601883 
H    -0.3964343    3.0472984   -1.0624727 
H    -2.4673279    2.1231528   -0.1857859 
C     2.9880737    2.4954428   -4.5100102 
C     2.7796894    3.4777148   -3.5304004 
C     1.6874725    3.3801604   -2.6579985 
C     0.7869017    2.2934512   -2.7380397 
C     1.0192203    1.3020719   -3.7191877 
C     2.0994595    1.4106469   -4.6016999 
H     3.8363908    2.5726736   -5.1974899 
H     3.4630527    4.3299285   -3.4534152 
H     1.5150328    4.1602204   -1.9090606 
H     0.3685039    0.4234106   -3.7734656 
H     2.2579829    0.6362121   -5.3597482 
C    -6.0586512   -1.0571893   -0.8802501 
C    -5.7645005   -0.1618944    0.1591794 
C    -4.6111732    0.6296716    0.0955305 
C    -3.7205337    0.5413027   -1.0007417 
C    -4.0528589   -0.3388091   -2.0575371 
C    -5.2041356   -1.1315563   -1.9933357 
H    -6.9580832   -1.6794476   -0.8347463 
H    -6.4369774   -0.0758882    1.0190023 
H    -4.3917881    1.3396568    0.9009559 
H    -3.4168283   -0.3968107   -2.9463947 
H    -5.4419235   -1.8072427   -2.8214071 
C     3.3300011    0.5817311   -0.4890711 
C     2.0659768    2.0096541    1.5478970 
C    -2.4953381   -1.4394038    2.1237069 
C    -0.9382819   -2.8975396    0.3370544 
C     1.8518621   -0.9989293    1.5876724 
C     0.5365431   -1.2577459    2.3397962 
C     4.2366240    1.3995599    0.4641290 
C     3.3949360    2.5690019    0.9859056 
C    -2.8478183   -2.9335124    1.9188277 
C    -2.4218403   -3.3171470    0.4945945 
C     3.9042566   -0.7172943   -1.0128270 
C     0.8810882    2.9635901    1.6102805 
C    -2.4365252   -0.9034544    3.5366075 
C    -0.3591424   -2.9300813   -1.0592257 
C     3.8137046   -1.0118354   -2.3870700 
C     0.8937874    4.2270817    0.9899071 
C    -1.8491146   -1.6302242    4.5930047 
C    -1.0100953   -2.2738459   -2.1233602 
C     4.5836508   -1.6281062   -0.1757174 
C    -0.3013084    2.5664552    2.2741779 
C    -2.9458091    0.3811497    3.8137047 
C     0.8441125   -3.6094942   -1.3231162 
C     4.3969340   -2.1709467   -2.9146481 
C    -0.2459633    5.0481945    0.9899193 
C    -1.7644447   -1.0825334    5.8806581 
C    -0.4753968   -2.3011828   -3.4173989 
C     5.1530519   -2.7970399   -0.6997413 
C    -1.4365808    3.3869921    2.2832069 
C    -2.8593341    0.9334242    5.0989842 
C     1.3803783   -3.6401067   -2.6186233 
C     5.0668738   -3.0705875   -2.0731270 
C    -1.4208785    4.6272417    1.6262604 
C    -2.2635017    0.2033789    6.1377874 
C     0.7251272   -2.9839982   -3.6694136 
H     3.0701227    1.2234255   -1.3521512 
H     2.2433796    1.5980279    2.5594670 
H    -3.2251555   -0.8413434    1.5484237 
H    -0.3261350   -3.5410640    0.9963951 
H     2.0992698   -1.8489688    0.9255122 
H     2.6940830   -0.8673987    2.2896780 
H     0.5563988   -2.2350318    2.8526523 
H     0.3540155   -0.4919134    3.1154106 
H     5.1343924    1.7463392   -0.0763217 
H     4.5863072    0.7688398    1.3022274 
H     3.9232752    3.1614954    1.7524245 
H     3.1859101    3.2418301    0.1364138 
H    -3.9269177   -3.0903585    2.0881387 
H    -2.3075701   -3.5624823    2.6493430 
H    -2.5335169   -4.3973277    0.2987490 
H    -3.0496798   -2.7824631   -0.2424434 
H     3.2912614   -0.3131661   -3.0470210 
H     1.8000016    4.5896200    0.4976507 
H    -1.4567823   -2.6374560    4.4156911 
H    -1.9540240   -1.7533299   -1.9348690 
H     4.6938242   -1.4192061    0.8935122 
H    -0.3381738    1.6085799    2.8051472 
H    -3.4232974    0.9471623    3.0070066 
H     1.3650037   -4.1294114   -0.5103263 
H     4.3270912   -2.3705752   -3.9892760 
H    -0.2074321    6.0244591    0.4955493 
H    -1.3098818   -1.6657634    6.6883396 
H    -1.0051682   -1.8008707   -4.2362195 
H     5.6822216   -3.4873795   -0.0343657 
H    -2.3337947    3.0586396    2.8158868 
H    -3.2656343    1.9320129    5.2918848 
H     2.3140548   -4.1783816   -2.8025985 
H     5.5268425   -3.9752447   -2.4842545 
H    -2.3086695    5.2677220    1.6297094 
H    -2.1975178    0.6291228    7.1441443 
H     1.1429737   -3.0110646   -4.6812008 
