101
Energy =
C    -0.1874865    2.3022598   -1.7187767 
C    -1.3984715    1.6134880   -2.0225632 
C    -2.3997555    1.4797666   -1.0268247 
H    -1.4745639    1.0410018   -2.9552383 
Pd   -0.4481278    0.5911440   -0.3248341 
P    -0.9920039   -1.1838999    1.0694873 
P     1.6968496    0.3995532    0.5399479 
H    -0.2436759    3.1002442   -0.9634088 
H    -2.3850743    2.2215869   -0.2129265 
C     3.2710254    2.5440251   -4.2773031 
C     3.0481789    3.5044711   -3.2794612 
C     1.9145737    3.4174682   -2.4603395 
C     0.9857356    2.3629345   -2.6130173 
C     1.2318253    1.3929015   -3.6119996 
C     2.3542973    1.4916338   -4.4414247 
H     4.1520886    2.6131821   -4.9231901 
H     3.7532704    4.3317414   -3.1464640 
H     1.7317637    4.1812441   -1.6972522 
H     0.5573444    0.5374969   -3.7212715 
H     2.5232920    0.7347534   -5.2147942 
C    -6.0460900   -0.8043131   -1.1845260 
C    -5.1424844   -0.8714587   -2.2586020 
C    -3.9634818   -0.1180812   -2.2413388 
C    -3.6524276    0.7142746   -1.1402004 
C    -4.5909600    0.7972906   -0.0841041 
C    -5.7718884    0.0448912   -0.1018741 
H    -6.9670612   -1.3956757   -1.2026724 
H    -5.3629458   -1.5103758   -3.1199748 
H    -3.2881018   -0.1691438   -3.1011677 
H    -4.3872116    1.4721535    0.7549477 
H    -6.4813001    0.1257958    0.7282327 
C     3.3616794    0.4534152   -0.3500618 
C     2.0869810    1.8797719    1.6822419 
C    -2.6399494   -1.3932229    1.9707615 
C    -1.0697715   -2.8656788    0.2085077 
C     1.7415217   -1.1185068    1.6269971 
C     0.3869639   -1.3462559    2.3172055 
C     4.2664592    1.2128101    0.6519689 
C     3.4529382    2.4011478    1.1751756 
C    -3.0498283   -2.8622961    1.7008364 
C    -2.5763989   -3.2208787    0.2849548 
C     3.9026617   -0.8561470   -0.8830153 
C     0.9401132    2.8795266    1.7370706 
C    -2.6192220   -0.9054670    3.4019789 
C    -0.4270309   -2.8880193   -1.1597531 
C     3.8507769   -1.1177082   -2.2658846 
C     1.0321120    4.1661431    1.1734179 
C    -3.0878267    0.3896168    3.7011872 
C     0.7473920   -3.6273578   -1.3902898 
C     4.5151634   -1.8109193   -0.0431605 
C    -0.2851145    2.5070530    2.3343971 
C    -2.1064937   -1.6894883    4.4563231 
C    -0.9893878   -2.1644507   -2.2307266 
C     4.4075013   -2.2875109   -2.7985120 
C    -0.0715096    5.0351899    1.1619453 
C    -3.0339922    0.8962276    5.0069139 
C     1.3411494   -3.6511588   -2.6605961 
C     5.0577470   -2.9899218   -0.5729192 
C    -1.3846271    3.3749863    2.3320536 
C    -2.0549998   -1.1875683    5.7642096 
C    -0.3963494   -2.1838957   -3.4992477 
C     5.0111451   -3.2305169   -1.9543676 
C    -1.2892078    4.6394568    1.7303329 
C    -2.5128496    0.1089165    6.0440314 
C     0.7740845   -2.9275231   -3.7183519 
H     3.1581597    1.1235240   -1.2065563 
H     2.2176869    1.4335508    2.6863255 
H    -3.3169876   -0.7448524    1.3856981 
H    -0.5194040   -3.5543809    0.8766539 
H     1.9824520   -1.9580949    0.9492467 
H     2.5585727   -1.0418752    2.3657751 
H     0.3474078   -2.3382253    2.7998120 
H     0.2023209   -0.5969492    3.1083196 
H     5.1940727    1.5372605    0.1494112 
H     4.5638593    0.5494145    1.4849080 
H     3.9784295    2.9557176    1.9714628 
H     3.2955939    3.1002324    0.3356353 
H    -4.1416294   -2.9735927    1.8163728 
H    -2.5729578   -3.5381812    2.4335722 
H    -2.7270730   -4.2881700    0.0488271 
H    -3.1444525   -2.6350161   -0.4616376 
H     3.3804968   -0.3848701   -2.9280191 
H     1.9730714    4.5091613    0.7354509 
H    -3.5077913    1.0007820    2.8953099 
H     1.1996408   -4.1995439   -0.5715607 
H     4.5939789   -1.6294942    1.0338642 
H    -0.3846958    1.5308390    2.8220617 
H    -1.7469653   -2.7055308    4.2608044 
H    -1.9109464   -1.5970215   -2.0687159 
H     4.3686638   -2.4616417   -3.8791085 
H     0.0287825    6.0284937    0.7122135 
H    -3.4076972    1.9041098    5.2166321 
H     2.2506302   -4.2367861   -2.8194685 
H     5.5353811   -3.7144800    0.0950427 
H    -2.3167081    3.0640951    2.8128103 
H    -1.6587806   -1.8147048    6.5697147 
H    -0.8574980   -1.6293910   -4.3246437 
H     5.4502485   -4.1437547   -2.3693199 
H    -2.1490341    5.3170087    1.7246534 
H    -2.4729671    0.4988273    7.0661635 
H     1.2371752   -2.9485834   -4.7104014 
