101
Energy =
C    -0.3941221    2.0584330   -2.2383535 
C    -1.6040583    1.2976554   -2.2817585 
C    -2.5120396    1.3502260   -1.1981921 
H    -1.7329635    0.5408192   -3.0654901 
Pd   -0.4629751    0.6461462   -0.5210248 
P    -0.7798172   -1.0181211    1.0709926 
P     1.7507076    0.6317168    0.1737884 
H    -0.4357436    3.0211845   -1.7108057 
H    -2.4281426    2.2151009   -0.5208699 
C     2.8686015    1.6834439   -5.0253913 
C     2.6336646    2.8971509   -4.3618521 
C     1.5581968    3.0167571   -3.4706446 
C     0.6994035    1.9228378   -3.2202854 
C     0.9524965    0.7023269   -3.8903438 
C     2.0194411    0.5889937   -4.7879135 
H     3.7087818    1.5890799   -5.7205938 
H     3.2865097    3.7572678   -4.5434391 
H     1.3737715    3.9725529   -2.9670244 
H     0.3352981   -0.1759479   -3.6754398 
H     2.1985838   -0.3652772   -5.2947607 
C    -6.1308644   -0.9042206   -0.6186842 
C    -5.6950875    0.0228738    0.3408909 
C    -4.5270767    0.7616915    0.1190794 
C    -3.7604398    0.5840369   -1.0567953 
C    -4.2353356   -0.3240976   -2.0317450 
C    -5.4032419   -1.0631480   -1.8101241 
H    -7.0440279   -1.4840304   -0.4507897 
H    -6.2690427    0.1737352    1.2611404 
H    -4.1906682    1.4938574    0.8618656 
H    -3.7015261   -0.4407497   -2.9800030 
H    -5.7558599   -1.7602922   -2.5772751 
C     3.2308601    0.7897695   -0.9965562 
C     2.1734490    2.1722689    1.1729384 
C    -2.2999041   -1.2875700    2.1595597 
C    -0.8255692   -2.7601448    0.3083547 
C     1.9978101   -0.8314647    1.2993005 
C     0.7382663   -1.0617136    2.1533217 
C     3.9129552    2.1266451   -0.5849680 
C     2.8812825    3.0344577    0.1052430 
C    -2.5170573   -2.8221540    2.1314391 
C    -2.2235383   -3.2997262    0.7043198 
C     4.0968312   -0.4524496   -1.0297042 
C     0.9768015    2.7414525    1.9031189 
C    -2.2958707   -0.6335353    3.5251410 
C    -0.4762167   -2.8136598   -1.1639260 
C     5.0516130   -0.7268500   -0.0283334 
C     0.7609879    2.4114455    3.2560078 
C    -3.1440460    0.4620657    3.7808517 
C     0.7642990   -3.3206674   -1.5941835 
C     3.9186600   -1.3947069   -2.0622489 
C     0.0188093    3.5434255    1.2504263 
C    -1.4984965   -1.1193881    4.5833680 
C    -1.3913147   -2.3667905   -2.1385676 
C     5.8080554   -1.9062015   -0.0606289 
C    -0.3917203    2.8373980    3.9283673 
C    -3.2033799    1.0505376    5.0513375 
C     1.0759428   -3.3929910   -2.9606794 
C     4.6769278   -2.5733116   -2.0972763 
C    -1.1337206    3.9763041    1.9217779 
C    -1.5458053   -0.5249807    5.8516204 
C    -1.0846953   -2.4410194   -3.5029637 
C     5.6232460   -2.8351933   -1.0958108 
C    -1.3486517    3.6140611    3.2596875 
C    -2.4015571    0.5611425    6.0920137 
C     0.1527196   -2.9576241   -3.9210590 
H     2.7636183    0.9196747   -1.9867139 
H     2.9273506    1.8433568    1.9137730 
H    -3.1020509   -0.8252558    1.5546913 
H    -0.0631093   -3.3264991    0.8744087 
H     2.2061489   -1.6957381    0.6424299 
H     2.8914963   -0.6796629    1.9285561 
H     0.7966650   -2.0257057    2.6880768 
H     0.6119509   -0.2646453    2.9062169 
H     4.3482147    2.6054432   -1.4779877 
H     4.7425049    1.9268786    0.1151698 
H     3.3496072    3.9207970    0.5669069 
H     2.1474486    3.3983788   -0.6368296 
H    -3.5477488   -3.0592202    2.4468442 
H    -1.8358374   -3.3188029    2.8468772 
H    -2.2438878   -4.3994865    0.6152778 
H    -2.9929664   -2.9020097    0.0176602 
H     5.2144925   -0.0128561    0.7872202 
H     1.5091248    1.8145605    3.7916620 
H    -3.7771230    0.8476851    2.9759016 
H     1.4932832   -3.6779965   -0.8573406 
H     3.1802842   -1.1933994   -2.8452513 
H     0.1804882    3.8482629    0.2120999 
H    -0.8467474   -1.9855758    4.4279371 
H    -2.3620307   -1.9712063   -1.8246899 
H     6.5487967   -2.0974189    0.7229225 
H    -0.5458201    2.5557718    4.9741837 
H    -3.8809649    1.8924593    5.2283645 
H     2.0405575   -3.8050012   -3.2725835 
H     4.5362540   -3.2865618   -2.9166842 
H    -1.8610365    4.6070747    1.3989467 
H    -0.9228733   -0.9222277    6.6599174 
H    -1.8173928   -2.1045346   -4.2451428 
H     6.2192561   -3.7530931   -1.1252432 
H    -2.2506327    3.9453365    3.7839545 
H    -2.4482337    1.0163294    7.0867030 
H     0.3905159   -3.0259465   -4.9876817 
