101
Energy =
C    -0.3954649    2.2445408   -1.7063621 
C    -1.6088202    1.5313874   -1.9501908 
C    -2.5715469    1.3854025   -0.9219142 
H    -1.7024128    0.9381832   -2.8685344 
Pd   -0.5560152    0.5516230   -0.2856703 
P    -0.9222824   -1.3222196    1.0170116 
P     1.6333294    0.4280871    0.4745983 
H    -0.4321530    3.0825031   -0.9948239 
H    -2.5271154    2.1138214   -0.0970992 
C     2.9978162    2.2476245   -4.3607345 
C     2.7443023    3.3464471   -3.5262069 
C     1.6291180    3.3456901   -2.6762595 
C     0.7455564    2.2441769   -2.6446026 
C     1.0152160    1.1397285   -3.4891107 
C     2.1255361    1.1454169   -4.3396811 
H     3.8708553    2.2469293   -5.0210834 
H     3.4169388    4.2104699   -3.5388364 
H     1.4313452    4.2071545   -2.0297204 
H     0.3764022    0.2507583   -3.4451207 
H     2.3213434    0.2774130   -4.9781880 
C    -6.2017261   -0.9293748   -1.0060793 
C    -5.8371995   -0.2014673    0.1371063 
C    -4.6650491    0.5638425    0.1354227 
C    -3.8216666    0.6110761   -1.0002170 
C    -4.2247171   -0.0980283   -2.1563963 
C    -5.3971052   -0.8622310   -2.1556542 
H    -7.1181676   -1.5280369   -1.0101326 
H    -6.4710972   -0.2236960    1.0295990 
H    -4.3949179    1.1428155    1.0253924 
H    -3.6278160   -0.0395252   -3.0718245 
H    -5.6910654   -1.4021064   -3.0616906 
C     3.1842290    0.6968362   -0.5793831 
C     2.0164611    1.7642473    1.7630134 
C    -2.4673550   -1.6813572    2.0308864 
C    -0.9574242   -2.9682940    0.0732598 
C     1.8340943   -1.1792401    1.4043300 
C     0.5361500   -1.4891383    2.1706086 
C     3.8507018    1.9572443    0.0376257 
C     3.5160719    2.0687316    1.5394685 
C    -2.6777421   -3.2021661    1.8651138 
C    -2.3647111   -3.5380340    0.3979154 
C     4.0173659   -0.5663550   -0.6709101 
C     1.0247644    2.9097074    1.6261852 
C    -2.3799445   -1.0788213    3.4161761 
C    -0.5946824   -2.8403529   -1.3905956 
C     5.0433065   -0.8689422    0.2470061 
C     1.3197875    4.1179877    0.9704400 
C    -1.9819176   -1.8217762    4.5445631 
C    -1.4563561   -2.1775482   -2.2882209 
C     3.7286791   -1.4989755   -1.6887343 
C    -0.2792862    2.7266943    2.1370888 
C    -2.6373705    0.2993447    3.5786982 
C     0.6130877   -3.3663537   -1.8846523 
C     5.7589254   -2.0713331    0.1512537 
C     0.3321348    5.1043025    0.8038193 
C    -1.8449073   -1.2031914    5.7967625 
C    -1.1246396   -2.0508125   -3.6425869 
C     4.4419065   -2.7015702   -1.7827856 
C    -1.2642488    3.7087144    1.9742813 
C    -2.4937934    0.9203630    4.8260051 
C     0.9476821   -3.2406054   -3.2422305 
C     5.4583878   -2.9944797   -0.8608967 
C    -0.9653971    4.9006891    1.2939028 
C    -2.0941538    0.1690043    5.9420019 
C     0.0824958   -2.5817703   -4.1263264 
H     2.8058464    0.9354545   -1.5861925 
H     1.8592356    1.2950328    2.7505704 
H    -3.2638013   -1.1624498    1.4641466 
H    -0.2012800   -3.5985358    0.5764047 
H     2.0548928   -1.9558380    0.6493167 
H     2.7070131   -1.1245094    2.0778694 
H     0.5608600   -2.4990220    2.6172827 
H     0.3722959   -0.7715780    2.9960124 
H     3.4629281    2.8372033   -0.5023575 
H     4.9405342    1.9336110   -0.1328467 
H     4.1069977    1.3308583    2.1102742 
H     3.7799371    3.0618155    1.9439662 
H    -3.7081632   -3.4824530    2.1447801 
H    -1.9942634   -3.7659307    2.5264535 
H    -2.3877307   -4.6235194    0.2017063 
H    -3.1213019   -3.0712073   -0.2588426 
H     5.2992394   -0.1613676    1.0425050 
H     2.3244599    4.3051164    0.5807143 
H    -1.7819179   -2.8943068    4.4554258 
H    -2.4027971   -1.7654841   -1.9235354 
H     2.9377828   -1.2735468   -2.4126027 
H    -0.5212835    1.8072658    2.6828103 
H    -2.9504069    0.8885282    2.7095929 
H     1.2999747   -3.8844690   -1.2052286 
H     6.5575876   -2.2847910    0.8694001 
H     0.5830353    6.0379272    0.2894960 
H    -1.5441232   -1.8003125    6.6639623 
H    -1.8137269   -1.5441035   -4.3275349 
H     4.2113368   -3.4095722   -2.5860361 
H    -2.2656275    3.5483757    2.3890598 
H    -2.6986877    1.9914377    4.9285565 
H     1.8854091   -3.6687576   -3.6110040 
H     6.0196992   -3.9313458   -0.9366713 
H    -1.7321151    5.6708984    1.1629733 
H    -1.9859628    0.6487887    6.9199764 
H     0.3404007   -2.4903686   -5.1864837 
