101
Energy =
C    -0.1614887    2.1534594   -1.8269490 
C    -1.3255739    1.3633711   -2.0568299 
C    -2.3032294    1.2418398   -1.0354014 
H    -1.3767083    0.7033935   -2.9312100 
Pd   -0.3185217    0.5490713   -0.2867324 
P    -0.8388802   -1.2702416    1.0554927 
P     1.7778452    0.5034848    0.7169122 
H    -0.2543995    2.9899440   -1.1180214 
H    -2.3582943    2.0638090   -0.3044101 
C     3.2342875    2.4594558   -4.4664712 
C     3.1153854    3.2962418   -3.3460545 
C     2.0033402    3.1861484   -2.5018439 
C     0.9896573    2.2309357   -2.7485878 
C     1.1265510    1.3920224   -3.8787536 
C     2.2316122    1.5112256   -4.7293305 
H     4.0988282    2.5472370   -5.1319978 
H     3.8865115    4.0447819   -3.1359530 
H     1.9045063    3.8528564   -1.6386163 
H     0.3673372    0.6355490   -4.0975519 
H     2.3135280    0.8565217   -5.6034680 
C    -5.7382337   -1.3474815   -0.9784304 
C    -5.6817827   -0.2137574   -0.1542333 
C    -4.5635211    0.6294743   -0.1992068 
C    -3.4793607    0.3546032   -1.0638052 
C    -3.5540800   -0.7853145   -1.8955161 
C    -4.6722891   -1.6239136   -1.8526765 
H    -6.6094998   -2.0095476   -0.9456949 
H    -6.5109319    0.0168518    0.5224954 
H    -4.5280781    1.5230311    0.4342301 
H    -2.7215810   -1.0354387   -2.5596284 
H    -4.7112502   -2.5039440   -2.5033427 
C     3.4984326    0.7571137    0.0047324 
C     1.9464988    1.9030265    1.9985694 
C    -2.4302748   -1.5808716    2.0187921 
C    -0.8758319   -2.9579662    0.1608315 
C     1.8919541   -1.0819385    1.7009505 
C     0.5303047   -1.4298972    2.3181777 
C     4.2771091    1.3355744    1.2088096 
C     3.3958864    2.4341010    1.8254104 
C    -2.5423205   -3.1218880    2.0281723 
C    -2.2197338   -3.5887739    0.6036709 
C     4.0657312   -0.4489340   -0.7095771 
C     0.8019325    2.8953595    1.8409351 
C    -2.5181387   -0.8510318    3.3403737 
C    -0.6237975   -2.8928938   -1.3395343 
C     3.9173229   -0.5506094   -2.1075064 
C     0.9257759    4.0949580    1.1150273 
C    -1.9426608   -1.3621996    4.5226086 
C    -1.5154514   -3.4689548   -2.2652862 
C     4.7320796   -1.4868090   -0.0256549 
C    -0.4675258    2.5671725    2.3668601 
C    -3.1852343    0.3889205    3.4048469 
C     0.5364600   -2.2662857   -1.8435939 
C     4.4167246   -1.6596895   -2.8028781 
C    -0.1830171    4.9280298    0.8946360 
C    -2.0204826   -0.6469592    5.7262401 
C    -1.2822653   -3.3835006   -3.6469628 
C     5.2255249   -2.6001716   -0.7213432 
C    -1.5744170    3.3988948    2.1517102 
C    -3.2679673    1.1032974    4.6076687 
C     0.7712304   -2.1770803   -3.2213439 
C     5.0671728   -2.6925796   -2.1118267 
C    -1.4411476    4.5792475    1.4041778 
C    -2.6794693    0.5904290    5.7730047 
C    -0.1448785   -2.7248382   -4.1322917 
H     3.3475883    1.5641062   -0.7379116 
H     1.8466031    1.4051251    2.9802102 
H    -3.2114811   -1.1835942    1.3433589 
H    -0.0451150   -3.5215732    0.6286130 
H     2.2214350   -1.8635834    0.9914139 
H     2.6715977   -1.0000632    2.4785225 
H     0.5378198   -2.4439958    2.7554896 
H     0.2760045   -0.7265383    3.1322335 
H     5.2533671    1.7323162    0.8794550 
H     4.4866807    0.5449102    1.9521932 
H     3.7923087    2.7922596    2.7903061 
H     3.3972803    3.2976359    1.1399216 
H    -3.5548591   -3.4292015    2.3418868 
H    -1.8299640   -3.5630512    2.7494585 
H    -2.1775952   -4.6886987    0.5245397 
H    -3.0243033   -3.2364200   -0.0660516 
H     3.4122774    0.2535005   -2.6524043 
H     1.8959406    4.3975132    0.7106132 
H    -1.4360392   -2.3327589    4.5128527 
H    -2.4110381   -3.9896796   -1.9163781 
H     4.8826391   -1.4268171    1.0572620 
H    -0.5972061    1.6542001    2.9598330 
H    -3.6502848    0.7867845    2.4971835 
H     1.2824100   -1.8480000   -1.1584250 
H     4.3039336   -1.7133241   -3.8910793 
H    -0.0569593    5.8552452    0.3260249 
H    -1.5713318   -1.0639292    6.6336960 
H    -1.9947771   -3.8380829   -4.3433410 
H     5.7450683   -3.3938521   -0.1742515 
H    -2.5431891    3.1245495    2.5790231 
H    -3.8004639    2.0599287    4.6388209 
H     1.6792706   -1.6831771   -3.5766351 
H     5.4585762   -3.5591776   -2.6542963 
H    -2.3054676    5.2298645    1.2365173 
H    -2.7447916    1.1452654    6.7144190 
H     0.0368534   -2.6556091   -5.2098942 
