101
Energy =
C    -0.6965460    2.1722864   -1.7138742 
C    -1.6103159    1.1533813   -2.1371224 
C    -2.6384858    0.7433946   -1.2551912 
H    -1.4059699    0.5637590   -3.0393836 
Pd   -0.6160132    0.4718642   -0.3018285 
P    -0.7570948   -1.5860904    0.7482047 
P     1.3078622    0.8558956    0.9439732 
H    -1.0851967    2.9608083   -1.0554148 
H    -2.9045892    1.4585237   -0.4592008 
C     3.0895114    3.1124471   -3.5336998 
C     2.4205463    1.9311869   -3.8958635 
C     1.1762312    1.6236036   -3.3337449 
C     0.5682500    2.4957080   -2.3996156 
C     1.2446534    3.6884617   -2.0573413 
C     2.4930410    3.9905130   -2.6150164 
H     4.0661448    3.3469617   -3.9689122 
H     2.8768911    1.2421857   -4.6142951 
H     0.6793236    0.6879414   -3.6108821 
H     0.7868314    4.3744686   -1.3382993 
H     3.0008828    4.9186827   -2.3321864 
C    -5.6022806   -2.3377456   -1.6866988 
C    -5.6331471   -1.4539792   -0.5963084 
C    -4.6584871   -0.4565969   -0.4814541 
C    -3.6271865   -0.3285104   -1.4444212 
C    -3.6054649   -1.2295184   -2.5323165 
C    -4.5891519   -2.2164896   -2.6520813 
H    -6.3682603   -3.1133888   -1.7880570 
H    -6.4240711   -1.5340839    0.1564939 
H    -4.6967301    0.2473085    0.3585261 
H    -2.8130610   -1.1716497   -3.2847232 
H    -4.5592369   -2.9022743   -3.5040724 
C     2.9388040    1.0344486   -0.0002803 
C     1.6113193    2.3300601    2.0819995 
C    -2.1067710   -1.7853219    2.0409490 
C    -1.1124737   -3.2413942   -0.0950158 
C     1.4809826   -0.5741224    2.1432507 
C     0.8901123   -1.8725499    1.5801382 
C     3.7659897    2.0885489    0.7936321 
C     3.1550314    2.3102156    2.1945513 
C    -2.4108478   -3.2947996    2.0405071 
C    -2.4316840   -3.7253242    0.5615651 
C     3.5347535   -0.3353593   -0.2471929 
C     0.9616421    3.6170997    1.5935306 
C    -1.7108911   -1.0547753    3.3026693 
C    -1.0534494   -3.2380419   -1.6143749 
C     3.1162549   -1.0616494   -1.3815313 
C     1.6948355    4.7777394    1.2841688 
C    -1.0909645   -1.6946286    4.3929228 
C    -0.1702659   -2.3810666   -2.3005132 
C     4.4247311   -0.9540042    0.6537204 
C    -0.4456668    3.6742940    1.4963942 
C    -1.8533848    0.3501359    3.3385090 
C    -1.8356364   -4.1303172   -2.3726463 
C     3.5450190   -2.3783626   -1.5960722 
C     1.0436818    5.9539470    0.8775011 
C    -0.6032125   -0.9462390    5.4763693 
C    -0.0819188   -2.3971680   -3.6991984 
C     4.8610933   -2.2700829    0.4378969 
C    -1.0985895    4.8436962    1.0879647 
C    -1.3638839    1.0989588    4.4162532 
C    -1.7479608   -4.1522047   -3.7724866 
C     4.4144704   -2.9908061   -0.6801867 
C    -0.3529600    5.9910376    0.7704632 
C    -0.7264645    0.4511553    5.4874232 
C    -0.8771062   -3.2816833   -4.4439519 
H     2.6357681    1.4598274   -0.9715630 
H     1.1451261    2.0591820    3.0469735 
H    -2.9675258   -1.2673025    1.5773435 
H    -0.2920437   -3.8896932    0.2746120 
H     2.5381090   -0.7209310    2.4192303 
H     0.9318180   -0.2606463    3.0491962 
H     1.5482872   -2.2853798    0.7919620 
H     0.7887766   -2.6380314    2.3704750 
H     3.7397837    3.0302790    0.2206400 
H     4.8244585    1.7875361    0.8638966 
H     3.4439906    1.4816456    2.8660464 
H     3.5333347    3.2339555    2.6668233 
H    -3.3699840   -3.5045264    2.5452546 
H    -1.6255591   -3.8554951    2.5811469 
H    -2.5384012   -4.8191311    0.4643307 
H    -3.2911306   -3.2592699    0.0447981 
H     2.4540080   -0.5724003   -2.1041617 
H     2.7855958    4.7815982    1.3629800 
H    -0.9826560   -2.7840095    4.4024105 
H     0.4598897   -1.6880932   -1.7311263 
H     4.7881172   -0.4074581    1.5314743 
H    -1.0327465    2.7827826    1.7465788 
H    -2.3515703    0.8552565    2.5016433 
H    -2.5298388   -4.8131324   -1.8739319 
H     3.2014207   -2.9243418   -2.4810502 
H     1.6359487    6.8445818    0.6432875 
H    -0.1258760   -1.4603480    6.3170905 
H     0.6172291   -1.7242443   -4.2083443 
H     5.5553942   -2.7332314    1.1468752 
H    -2.1919933    4.8643612    1.0246224 
H    -1.4837241    2.1877085    4.4234351 
H    -2.3677139   -4.8533409   -4.3413277 
H     4.7545949   -4.0183649   -0.8444263 
H    -0.8588560    6.9079813    0.4519949 
H    -0.3437549    1.0311959    6.3333307 
H    -0.8117459   -3.2990106   -5.5366429 
