101
Energy =
C    -0.1857591    2.1358933   -2.0657684 
C    -1.4467023    1.4599446   -2.1508610 
C    -2.3414506    1.5349540   -1.0586073 
H    -1.6281459    0.7442239   -2.9625505 
Pd   -0.3433006    0.6730884   -0.4225494 
P    -0.7050887   -1.0777730    1.0382781 
P     1.7618013    0.7774313    0.5207782 
H    -0.1694840    3.0795819   -1.5035082 
H    -2.1793450    2.3612130   -0.3468376 
C     3.1156389    1.5729739   -4.7749195 
C     2.1529837    0.5602310   -4.6234589 
C     1.0733284    0.7327692   -3.7508689 
C     0.9223773    1.9351085   -3.0195914 
C     1.8972086    2.9458516   -3.1814926 
C     2.9842775    2.7658277   -4.0480328 
H     3.9631057    1.4314173   -5.4531124 
H     2.2513471   -0.3783709   -5.1792264 
H     0.3597481   -0.0867644   -3.6122294 
H     1.7913020    3.8858889   -2.6277485 
H     3.7265692    3.5627519   -4.1621384 
C    -6.0865016   -0.4847329   -0.4461889 
C    -5.5671843    0.3854583    0.5251804 
C    -4.3561895    1.0482028    0.2940725 
C    -3.6324356    0.8496625   -0.9066154 
C    -4.1843257   -0.0067103   -1.8871441 
C    -5.3950175   -0.6690498   -1.6555941 
H    -7.0337539   -1.0044319   -0.2703369 
H    -6.1076650    0.5486986    1.4631815 
H    -3.9511679    1.7322008    1.0485805 
H    -3.6710551   -0.1438857   -2.8432533 
H    -5.8088864   -1.3265641   -2.4271951 
C     3.4202629    0.8737029   -0.3762056 
C     1.9723256    2.4343397    1.4321213 
C    -2.3584501   -1.5964938    1.8004180 
C    -0.2965374   -2.7443887    0.2540753 
C     1.9269415   -0.5722203    1.8057759 
C     0.5633689   -0.9599824    2.4062651 
C     4.1904824    1.9668821    0.3994915 
C     3.1833791    3.0809074    0.7208697 
C    -2.5935132   -3.0414884    1.2769794 
C    -1.2471879   -3.7340321    0.9895260 
C     4.0740966   -0.4761336   -0.5770883 
C     0.6720515    3.2199288    1.4899368 
C    -2.3494766   -1.3661255    3.2989535 
C    -0.3835837   -2.7250902   -1.2614356 
C     4.9882719   -1.0162306    0.3506492 
C     0.4271168    4.3416867    0.6750894 
C    -1.9994012   -2.3674241    4.2257207 
C    -1.5269345   -2.2654954   -1.9483447 
C     3.7318923   -1.2438122   -1.7093206 
C    -0.3589246    2.7912177    2.3549598 
C    -2.6417278   -0.0743182    3.7858058 
C     0.7124805   -3.1814744   -2.0185392 
C     5.5484503   -2.2861748    0.1485851 
C    -0.8169516    4.9932221    0.6966296 
C    -1.9393337   -2.0821602    5.5983687 
C    -1.5741679   -2.2801914   -3.3496089 
C     4.2945937   -2.5109180   -1.9127064 
C    -1.5977702    3.4437272    2.3847392 
C    -2.5758229    0.2141167    5.1550629 
C     0.6718365   -3.1846835   -3.4203395 
C     5.2037776   -3.0390650   -0.9836060 
C    -1.8379803    4.5429517    1.5448850 
C    -2.2204160   -0.7910257    6.0680502 
C    -0.4745919   -2.7377231   -4.0926675 
H     3.1414590    1.2825838   -1.3657972 
H     2.2687551    2.1590373    2.4618911 
H    -3.1012492   -0.9153076    1.3519486 
H     0.7493053   -2.9702428    0.5229424 
H     2.3798578   -1.4281223    1.2723813 
H     2.6425790   -0.2691556    2.5904382 
H     0.6229382   -1.9175042    2.9524631 
H     0.1989313   -0.2051096    3.1242480 
H     5.0385317    2.3367911   -0.2024920 
H     4.6084912    1.5602739    1.3384266 
H     3.6212687    3.8781182    1.3458975 
H     2.8604738    3.5454896   -0.2276828 
H    -3.1866489   -2.9838980    0.3487354 
H    -3.1978071   -3.6180766    1.9982431 
H    -0.7677418   -4.0320205    1.9397732 
H    -1.3814192   -4.6529002    0.3932047 
H     5.2772522   -0.4433851    1.2379688 
H     1.2101118    4.7213446    0.0121749 
H    -1.7763222   -3.3833182    3.8831447 
H    -2.3905196   -1.8863363   -1.3913181 
H     3.0234742   -0.8359280   -2.4379726 
H    -0.1889011    1.9396761    3.0232545 
H    -2.9269687    0.7085899    3.0745756 
H     1.6128873   -3.5318037   -1.5027170 
H     6.2635433   -2.6844281    0.8760214 
H    -0.9824060    5.8626011    0.0518388 
H    -1.6730832   -2.8759546    6.3041984 
H    -2.4768909   -1.9378261   -3.8669084 
H     4.0276247   -3.0848805   -2.8066682 
H    -2.3745407    3.1012172    3.0764648 
H    -2.8118855    1.2224796    5.5121301 
H     1.5373092   -3.5433343   -3.9878165 
H     5.6482093   -4.0265883   -1.1447751 
H    -2.8053147    5.0550190    1.5656906 
H    -2.1725637   -0.5717923    7.1395100 
H    -0.5135267   -2.7464306   -5.1867553 
