101
Energy =
C    -0.2723641    2.2699622   -1.7554262 
C    -1.4660516    1.5417582   -2.0345795 
C    -2.4529436    1.3957610   -1.0260690 
H    -1.5350120    0.9518501   -2.9569326 
Pd   -0.4686864    0.5754470   -0.3305556 
P    -0.9481496   -1.1837843    1.1066459 
P     1.6921087    0.4556548    0.5062578 
H    -0.3433264    3.0789414   -1.0131027 
H    -2.4521971    2.1519079   -0.2253461 
C     3.1531436    2.5617520   -4.3528265 
C     2.9085891    3.5378591   -3.3754947 
C     1.7856557    3.4343280   -2.5436487 
C     0.8895183    2.3478128   -2.6631073 
C     1.1570998    1.3631523   -3.6421573 
C     2.2686988    1.4776282   -4.4841509 
H     4.0259685    2.6433749   -5.0083722 
H     3.5881697    4.3898779   -3.2684813 
H     1.5853623    4.2094542   -1.7965912 
H     0.5086756    0.4848495   -3.7254430 
H     2.4547447    0.7088799   -5.2417341 
C    -6.0307769   -0.9981642   -1.1065149 
C    -5.7736826   -0.1189776   -0.0438095 
C    -4.6156936    0.6684596   -0.0512489 
C    -3.6833406    0.5916815   -1.1133260 
C    -3.9778357   -0.2723723   -2.1944600 
C    -5.1338333   -1.0607255   -2.1864306 
H    -6.9337552   -1.6169224   -1.1048639 
H    -6.4787686   -0.0419948    0.7903478 
H    -4.4260734    1.3663168    0.7721918 
H    -3.3077089   -0.3217271   -3.0584774 
H    -5.3414772   -1.7239380   -3.0324871 
C     3.3399865    0.5252641   -0.4140930 
C     2.0670791    1.9714801    1.6058955 
C    -2.5798192   -1.4095630    2.0332164 
C    -0.9979503   -2.8857913    0.2852297 
C     1.7895257   -1.0362953    1.6256594 
C     0.4504036   -1.2834464    2.3390078 
C     4.2428265    1.3335773    0.5506850 
C     3.4087130    2.5142411    1.0583011 
C    -2.9632805   -2.8914649    1.7967813 
C    -2.4964585   -3.2693040    0.3837573 
C     3.9028020   -0.7860566   -0.9194611 
C     0.8974470    2.9445419    1.6611373 
C    -2.5506266   -0.8931614    3.4541303 
C    -0.3682903   -2.9289298   -1.0885729 
C     3.8261967   -1.0923044   -2.2919205 
C     0.9537633    4.2260146    1.0813979 
C    -2.0080311   -1.6453542    4.5166509 
C    -0.9485568   -2.2324259   -2.1679127 
C     4.5577064   -1.6987842   -0.0649576 
C    -0.3123290    2.5513638    2.2763604 
C    -3.0414144    0.3980628    3.7337895 
C     0.8090840   -3.6641336   -1.3170088 
C     4.4002511   -2.2642322   -2.8009388 
C    -0.1698990    5.0690446    1.0712361 
C    -1.9493297   -1.1162107    5.8134483 
C    -0.3703108   -2.2745920   -3.4426755 
C     5.1180985   -2.8800373   -0.5705480 
C    -1.4317895    3.3934041    2.2751654 
C    -2.9802079    0.9320285    5.0282440 
C     1.3875794   -3.7113722   -2.5937038 
C     5.0465789   -3.1649633   -1.9424403 
C    -1.3721769    4.6521061    1.6569573 
C    -2.4294433    0.1763407    6.0735583 
C     0.8024705   -3.0150316   -3.6599102 
H     3.1059250    1.1659651   -1.2851514 
H     2.2294628    1.5527125    2.6172309 
H    -3.2773789   -0.7866756    1.4446659 
H    -0.4280011   -3.5476497    0.9640363 
H     2.0431042   -1.8842047    0.9629781 
H     2.6139905   -0.9230705    2.3514667 
H     0.4427227   -2.2653598    2.8432714 
H     0.2566880   -0.5221193    3.1163891 
H     5.1524712    1.6679796    0.0224945 
H     4.5722151    0.7002911    1.3949539 
H     3.9347970    3.1032472    1.8291016 
H     3.2163911    3.1860606    0.2039114 
H    -4.0515418   -3.0214418    1.9252815 
H    -2.4663161   -3.5431424    2.5380278 
H    -2.6278386   -4.3439726    0.1706631 
H    -3.0829132   -2.7101617   -0.3691503 
H     3.3225694   -0.3924911   -2.9651053 
H     1.8819570    4.5853896    0.6295248 
H    -1.6305000   -2.6577166    4.3363979 
H    -1.8727288   -1.6689630   -2.0068528 
H     4.6551982   -1.4820747    1.0039736 
H    -0.3838699    1.5793882    2.7772231 
H    -3.4846995    0.9840319    2.9216411 
H     1.2753558   -4.2147722   -0.4914211 
H     4.3413146   -2.4733483   -3.8743817 
H    -0.0974618    6.0588141    0.6085336 
H    -1.5298861   -1.7189391    6.6258002 
H    -0.8450041   -1.7409399   -4.2741110 
H     5.6288100   -3.5712634    0.1081839 
H    -2.3513875    3.0670219    2.7694602 
H    -3.3711428    1.9363734    5.2229360 
H     2.2995005   -4.2937052   -2.7510717 
H     5.4992461   -4.0796736   -2.3391813 
H    -2.2477108    5.3092307    1.6518583 
H    -2.3836270    0.5876321    7.0870224 
H     1.2536325   -3.0545715   -4.6568728 
