101
Energy =
C    -0.4174843    2.2828439   -1.8139471 
C    -1.5036850    1.3808288   -2.0342902 
C    -2.4261015    1.1500126   -0.9806125 
H    -1.5191669    0.7353120   -2.9217145 
Pd   -0.3452164    0.6262544   -0.3396120 
P    -0.5900029   -1.2075947    1.0480433 
P     1.7969999    0.8065983    0.5217726 
H    -0.5899600    3.1093231   -1.1077960 
H    -2.5222979    1.9566742   -0.2365702 
C     3.0080837    2.8367575   -4.3701576 
C     2.1993452    1.6984023   -4.5258849 
C     1.0766363    1.5109343   -3.7118616 
C     0.7276754    2.4644981   -2.7275387 
C     1.5409257    3.6128258   -2.5941085 
C     2.6710569    3.7950136   -3.4022008 
H     3.8893781    2.9773298   -5.0038872 
H     2.4516395    0.9486745   -5.2833044 
H     0.4711159    0.6068681   -3.8302416 
H     1.2724611    4.3681465   -1.8486702 
H     3.2860925    4.6931833   -3.2821804 
C    -5.6255302   -1.7131982   -0.7714309 
C    -5.6492322   -0.5519696    0.0150683 
C    -4.6047085    0.3768301   -0.0789235 
C    -3.5190927    0.1638625   -0.9607813 
C    -3.5060541   -1.0125386   -1.7445883 
C    -4.5515523   -1.9362558   -1.6506674 
H    -6.4386555   -2.4428527   -0.7001303 
H    -6.4813427   -0.3686579    0.7024504 
H    -4.6269270    1.2852064    0.5341947 
H    -2.6604393   -1.2223172   -2.4078416 
H    -4.5219639   -2.8434023   -2.2620795 
C     3.4028628    0.9366567   -0.4580432 
C     2.0769706    2.4161817    1.4983093 
C    -2.2129222   -1.6972986    1.8816717 
C    -0.2198959   -2.9228789    0.3435525 
C     2.0453852   -0.5962300    1.7349060 
C     0.7151479   -1.0281930    2.3780258 
C     4.2725309    1.8627839    0.4211298 
C     3.3613282    3.0147594    0.8722579 
C    -2.3443868   -3.2307818    1.6554882 
C    -0.9634641   -3.8419535    1.3403541 
C     3.9475910   -0.4080217   -0.8839554 
C     0.8298151    3.2879722    1.5188219 
C    -2.2454675   -1.1655306    3.2994995 
C    -0.5916638   -3.0399523   -1.1299127 
C     3.5107923   -0.9697181   -2.1013953 
C     0.7865158    4.5639652    0.9285010 
C    -2.6705623    0.1620421    3.5147926 
C    -1.5726056   -3.9267266   -1.6087653 
C     4.8352784   -1.1532357   -0.0810091 
C    -0.3521446    2.7918652    2.1136475 
C    -1.7952499   -1.9149248    4.4039928 
C     0.1110866   -2.2544527   -2.0693018 
C     3.9300030   -2.2463142   -2.4980559 
C    -0.4080117    5.3032124    0.8897227 
C    -2.6359408    0.7313033    4.7947852 
C    -1.8538883   -4.0164782   -2.9820911 
C     5.2628710   -2.4279841   -0.4814872 
C    -1.5423643    3.5293073    2.0823195 
C    -1.7674476   -1.3492603    5.6873736 
C    -0.1661062   -2.3427062   -3.4385228 
C     4.8062398   -2.9824562   -1.6864296 
C    -1.5804495    4.7846366    1.4545182 
C    -2.1803520   -0.0234503    5.8867555 
C    -1.1594325   -3.2209790   -3.9025638 
H     3.0981508    1.5005201   -1.3604721 
H     2.2967108    2.0853711    2.5311470 
H    -2.9871350   -1.1726483    1.2979625 
H     0.8737699   -3.0634866    0.4262228 
H     2.4829364   -1.4243535    1.1468948 
H     2.7899794   -0.3175681    2.5015404 
H     0.8332363   -1.9717222    2.9386278 
H     0.3436521   -0.2755299    3.0962312 
H     5.1437517    2.2286535   -0.1495047 
H     4.6628783    1.3172043    1.2998646 
H     3.8627421    3.6924375    1.5843151 
H     3.0951625    3.6086004   -0.0194000 
H    -3.0248566   -3.3855400    0.8019583 
H    -2.8103545   -3.7160853    2.5293517 
H    -0.3653303   -3.9120446    2.2669124 
H    -1.0461864   -4.8711156    0.9489467 
H     2.8408812   -0.3871002   -2.7428123 
H     1.6898161    4.9999250    0.4930922 
H    -3.0366119    0.7452407    2.6619223 
H    -2.1286798   -4.5656461   -0.9170020 
H     5.2038724   -0.7395040    0.8633789 
H    -0.3447750    1.8190810    2.6187058 
H    -1.4640630   -2.9503616    4.2688525 
H     0.9031801   -1.5817680   -1.7213082 
H     3.5740754   -2.6651512   -3.4452153 
H    -0.4154492    6.2919030    0.4192571 
H    -2.9735292    1.7626647    4.9432773 
H    -2.6198002   -4.7172302   -3.3306383 
H     5.9591886   -2.9885182    0.1511088 
H    -2.4424300    3.1248636    2.5563162 
H    -1.4217940   -1.9488914    6.5359680 
H     0.4085794   -1.7394248   -4.1497133 
H     5.1399617   -3.9781631   -1.9958197 
H    -2.5106844    5.3608865    1.4241773 
H    -2.1567816    0.4158899    6.8891481 
H    -1.3781242   -3.2941408   -4.9726944 
