101
Energy =
C    -0.4714454    2.2115553   -1.7317911 
C    -1.6834862    1.4810736   -1.9258543 
C    -2.6129429    1.3446552   -0.8661873 
H    -1.7983974    0.8700759   -2.8299762 
Pd   -0.5703902    0.5424845   -0.2773359 
P    -0.8769029   -1.3137421    1.0656703 
P     1.6422888    0.4522984    0.4163887 
H    -0.4960872    3.0615004   -1.0340448 
H    -2.5507415    2.0886553   -0.0565509 
C     2.8412920    2.2038995   -4.4860945 
C     1.9798883    1.0947391   -4.4229136 
C     0.8953404    1.0922694   -3.5396872 
C     0.6409573    2.2068503   -2.7037801 
C     1.5132239    3.3153241   -2.7780256 
C     2.6027031    3.3129111   -3.6606744 
H     3.6941351    2.2009216   -5.1723259 
H     2.1643505    0.2190485   -5.0542837 
H     0.2661156    0.1986433   -3.4638483 
H     1.3267451    4.1847267   -2.1388371 
H     3.2668840    4.1823624   -3.7059588 
C    -6.2208088   -1.0049429   -0.7955384 
C    -5.8260615   -0.2560606    0.3238303 
C    -4.6621629    0.5199621    0.2717704 
C    -3.8568708    0.5569840   -0.8915272 
C    -4.2906304   -0.1736203   -2.0228714 
C    -5.4549326   -0.9484538   -1.9718440 
H    -7.1311649   -1.6118291   -0.7603285 
H    -6.4300888   -0.2702754    1.2369701 
H    -4.3686385    1.1155614    1.1431444 
H    -3.7246462   -0.1236746   -2.9582214 
H    -5.7732838   -1.5050430   -2.8593365 
C     3.1574099    0.7215927   -0.6881667 
C     2.0486557    1.8123695    1.6721525 
C    -2.3852759   -1.6726499    2.1337926 
C    -0.9257640   -2.9739701    0.1476991 
C     1.8890723   -1.1384478    1.3632519 
C     0.6190994   -1.4496661    2.1744768 
C     3.8277497    1.9986963   -0.1108012 
C     3.5370776    2.1304913    1.3985114 
C    -2.5865771   -3.1975213    1.9956743 
C    -2.3167848   -3.5513959    0.5241707 
C     4.0019160   -0.5335234   -0.7858265 
C     1.0394101    2.9437832    1.5476771 
C    -2.2591885   -1.0506901    3.5074712 
C    -0.6090219   -2.8645727   -1.3282878 
C     3.6971433   -1.4822394   -1.7838909 
C    -0.2453022    2.7548156    2.1034189 
C    -1.8125608   -1.7734421    4.6308540 
C     0.5914286   -3.3806427   -1.8499859 
C     5.0544559   -0.8134253    0.1089202 
C     1.2986975    4.1435304    0.8619432 
C    -2.5296247    0.3259771    3.6613504 
C    -1.5068094   -2.2289576   -2.2100217 
C     4.4208250   -2.6783315   -1.8813117 
C    -1.2468577    3.7222493    1.9551338 
C    -1.6404837   -1.1366637    5.8695143 
C     0.8836265   -3.2720180   -3.2187731 
C     5.7802601   -2.0094302    0.0099523 
C     0.2942486    5.1150981    0.7097326 
C    -2.3515759    0.9651420    4.8950030 
C    -1.2175889   -2.1196587   -3.5756263 
C     5.4637850   -2.9486511   -0.9823744 
C    -0.9844757    4.9051723    1.2446122 
C    -1.9033847    0.2338976    6.0059057 
C    -0.0176245   -2.6409253   -4.0869669 
H     2.7461150    0.9404549   -1.6864930 
H     1.9268903    1.3569615    2.6711145 
H    -3.2043693   -1.1689102    1.5860657 
H    -0.1485639   -3.5896173    0.6365855 
H     2.0943980   -1.9241001    0.6132774 
H     2.7819584   -1.0645929    2.0082300 
H     0.6680661   -2.4526645    2.6344274 
H     0.4741058   -0.7220082    2.9945960 
H     3.4140869    2.8657190   -0.6524137 
H     4.9121925    1.9840203   -0.3135864 
H     4.1537494    1.4088927    1.9628372 
H     3.8009530    3.1330137    1.7789821 
H    -3.6050235   -3.4828924    2.3116677 
H    -1.8774906   -3.7458497    2.6428829 
H    -2.3359368   -4.6397381    0.3439439 
H    -3.0980164   -3.1006596   -0.1147247 
H     2.8855107   -1.2743970   -2.4898288 
H    -0.4585617    1.8427435    2.6729613 
H    -1.6011600   -2.8443607    4.5485421 
H     1.3059125   -3.8777224   -1.1834218 
H     5.3230736   -0.0929944    0.8885610 
H     2.2881302    4.3353054    0.4370993 
H    -2.8803216    0.8996054    2.7962372 
H    -2.4479641   -1.8246324   -1.8237610 
H     4.1773984   -3.3989908   -2.6693769 
H    -2.2322876    3.5578741    2.4050710 
H    -1.3016135   -1.7182965    6.7331944 
H     1.8163300   -3.6924043   -3.6086256 
H     6.5993302   -2.2052754    0.7099035 
H     0.5173222    6.0423398    0.1715838 
H    -2.5675030    2.0346535    4.9910720 
H    -1.9344346   -1.6343665   -4.2474898 
H     6.0329557   -3.8805578   -1.0607087 
H    -1.7643412    5.6639074    1.1248114 
H    -1.7682008    0.7278770    6.9734030 
H     0.2071074   -2.5631898   -5.1557418 
