101
Energy =
C    -0.6550068    1.8771709   -2.0102139 
C    -1.7276416    0.9380919   -1.9961280 
C    -2.5518440    0.8341970   -0.8457407 
H    -1.7992410    0.1744924   -2.7800248 
Pd   -0.4178921    0.4665286   -0.2998728 
P    -0.5313955   -1.2264895    1.2809034 
P     1.7684093    0.7888299    0.4185267 
H    -0.7689888    2.7778364   -1.3884567 
H    -2.6195778    1.7278766   -0.2054145 
C     2.3306846    2.2434333   -5.0997853 
C     2.2434718    3.1897743   -4.0668821 
C     1.2651504    3.0573646   -3.0733629 
C     0.3579316    1.9718855   -3.0804493 
C     0.4624761    1.0241167   -4.1247824 
C     1.4322028    1.1637098   -5.1243815 
H     3.0899354    2.3474583   -5.8812797 
H     2.9333071    4.0398065   -4.0419221 
H     1.1885750    3.8071968   -2.2787798 
H    -0.2154160    0.1662545   -4.1592904 
H     1.4896502    0.4222860   -5.9284236 
C    -5.6078497   -2.0857815   -0.0448734 
C    -5.5859894   -0.8635397    0.6432973 
C    -4.5939309    0.0836230    0.3566044 
C    -3.6033391   -0.1727105   -0.6188830 
C    -3.6434479   -1.4038972   -1.3112068 
C    -4.6359493   -2.3470855   -1.0267303 
H    -6.3807133   -2.8288564    0.1765586 
H    -6.3443416   -0.6454970    1.4022758 
H    -4.5874745    1.0441879    0.8840173 
H    -2.8789335   -1.6387718   -2.0575191 
H    -4.6498908   -3.2965455   -1.5723717 
C     3.3439672    1.1662178   -0.5336350 
C     1.8925121    2.3383206    1.5200210 
C    -1.9431014   -1.6088517    2.4720366 
C    -0.4536578   -2.9982266    0.5707625 
C     2.2090285   -0.6440853    1.5352034 
C     0.9884515   -1.0771913    2.3591921 
C     4.1705258    1.9749765    0.4926616 
C     3.2249026    3.0208395    1.1054001 
C    -1.8543843   -3.1418851    2.6452033 
C    -1.6453807   -3.7248803    1.2424296 
C     3.9858780   -0.0359450   -1.1889052 
C     0.6118392    3.1555787    1.4151194 
C    -1.9681271   -0.7508637    3.7169356 
C    -0.3857858   -3.0729963   -0.9486090 
C     4.8588191   -0.8980602   -0.4933865 
C    -0.5260894    2.7450493    2.1446536 
C    -2.7884137    0.3946822    3.7534250 
C     0.6303790   -2.3909818   -1.6525459 
C     3.6983850   -0.3156560   -2.5400762 
C     0.4797280    4.2593632    0.5515142 
C    -1.1866168   -1.0490748    4.8529777 
C    -1.3069281   -3.8332318   -1.6950054 
C     5.4193908   -2.0145874   -1.1306876 
C    -1.7544231    3.4022856    1.9951550 
C    -2.8208638    1.2249489    4.8820062 
C     0.6946244   -2.4303706   -3.0508742 
C     4.2648571   -1.4268321   -3.1784758 
C    -0.7513466    4.9169685    0.3969224 
C    -1.2142911   -0.2173984    5.9816621 
C    -1.2448077   -3.8761011   -3.0969098 
C     5.1228245   -2.2848175   -2.4746189 
C    -1.8773382    4.4855239    1.1113546 
C    -2.0276346    0.9253546    5.9993260 
C    -0.2519155   -3.1639993   -3.7823819 
H     2.9987511    1.8545742   -1.3287705 
H     1.9775996    1.9500709    2.5511548 
H    -2.8434585   -1.3832057    1.8697472 
H     0.4907389   -3.4053012    0.9816104 
H     2.5547919   -1.4589355    0.8725331 
H     3.0564663   -0.3773542    2.1909526 
H     1.1816213   -2.0262165    2.8900757 
H     0.7430940   -0.3197610    3.1261829 
H     5.0375022    2.4479474   -0.0008713 
H     4.5726811    1.3097233    1.2784016 
H     3.6783060    3.5355958    1.9691147 
H     3.0273848    3.7921852    0.3427255 
H    -2.7748887   -3.5265217    3.1174287 
H    -1.0111117   -3.4142919    3.3062765 
H    -1.4736185   -4.8147862    1.2642848 
H    -2.5613469   -3.5430208    0.6527764 
H     5.1188007   -0.6954191    0.5507466 
H    -0.4554577    1.9053078    2.8460064 
H    -3.4127422    0.6253349    2.8842916 
H     1.3970074   -1.8266164   -1.1100951 
H     3.0313938    0.3517709   -3.0952740 
H     1.3418075    4.6230498   -0.0150303 
H    -0.5553332   -1.9434960    4.8671247 
H    -2.0921145   -4.3999876   -1.1877138 
H     6.0990826   -2.6700374   -0.5761137 
H    -2.6161197    3.0690280    2.5806882 
H    -3.4735936    2.1044430    4.8938950 
H     1.4942499   -1.8894370   -3.5632330 
H     4.0409332   -1.6185990   -4.2334104 
H    -0.8246611    5.7731380   -0.2817852 
H    -0.6036652   -0.4695555    6.8549830 
H    -1.9761903   -4.4737803   -3.6511270 
H     5.5667577   -3.1526962   -2.9727692 
H    -2.8366414    4.9999929    0.9948743 
H    -2.0524372    1.5710956    6.8829538 
H    -0.2035278   -3.1952579   -4.8758939 
