101
Energy =
C    -0.4671487    2.0906409   -2.1308536 
C    -1.6559833    1.2985074   -2.1940673 
C    -2.5681809    1.2860763   -1.1123590 
H    -1.7607002    0.5578260   -2.9966402 
Pd   -0.4982511    0.6274092   -0.4536459 
P    -0.7950088   -1.1075009    1.0528149 
P     1.7123038    0.6279658    0.2748228 
H    -0.5351374    3.0427637   -1.5870815 
H    -2.5158035    2.1290285   -0.4042879 
C     2.8117028    1.8360289   -4.9137174 
C     2.5634158    3.0250563   -4.2111807 
C     1.4825284    3.1063708   -3.3224309 
C     0.6322154    1.9975602   -3.1115630 
C     0.8993562    0.8017222   -3.8200110 
C     1.9706416    0.7275653   -4.7167263 
H     3.6549972    1.7722618   -5.6086517 
H     3.2091479    3.8964940   -4.3615987 
H     1.2862349    4.0442216   -2.7903330 
H     0.2890729   -0.0889890   -3.6391875 
H     2.1580049   -0.2072687   -5.2558208 
C    -6.1129209   -1.1167860   -0.6781497 
C    -5.6923228   -0.2612804    0.3518963 
C    -4.5485670    0.5284299    0.1843514 
C    -3.7914527    0.4721715   -1.0101609 
C    -4.2485010   -0.3694072   -2.0514178 
C    -5.3926032   -1.1576533   -1.8835487 
H    -7.0079414   -1.7342409   -0.5514373 
H    -6.2583906   -0.2046340    1.2873438 
H    -4.2285461    1.1956141    0.9920565 
H    -3.7187086   -0.3948796   -3.0086850 
H    -5.7321997   -1.7998492   -2.7027545 
C     3.1765510    0.7085370   -0.9280350 
C     2.2223010    2.1687162    1.2328036 
C    -2.3175739   -1.5387777    2.0636802 
C    -0.6512548   -2.8204033    0.2387622 
C     1.9348708   -0.8082280    1.4479812 
C     0.6381421   -1.0508522    2.2406141 
C     3.9400475    2.0074465   -0.5395924 
C     2.9690314    2.9773790    0.1472298 
C    -2.3154142   -3.0822187    2.0857523 
C    -1.9502385   -3.5528335    0.6724387 
C     4.0015828   -0.5588710   -0.9980625 
C     1.1141839    2.8723736    1.9832335 
C    -2.4213683   -0.8054131    3.3869765 
C    -0.3906472   -2.7918553   -1.2530961 
C     3.8751763   -1.4154696   -2.1085722 
C     1.0432286    2.7789657    3.3867903 
C    -2.5324634   -1.4978731    4.6084879 
C     0.8379353   -3.2255476   -1.7835564 
C     4.8959104   -0.9218693    0.0313504 
C     0.1461378    3.6486575    1.3139796 
C    -2.4488072    0.6062384    3.4102869 
C    -1.3904351   -2.3528415   -2.1458401 
C     4.6214333   -2.5998727   -2.1905048 
C     0.0459375    3.4548116    4.1036972 
C    -2.6842105   -0.8017418    5.8176748 
C     1.0537793   -3.2419967   -3.1707292 
C     5.6374675   -2.1079985   -0.0456138 
C    -0.8574253    4.3186965    2.0262382 
C    -2.6152829    1.2990802    4.6156508 
C    -1.1771109   -2.3677635   -3.5295559 
C     5.5022031   -2.9530093   -1.1581597 
C    -0.9057934    4.2299963    3.4258618 
C    -2.7350693    0.5980213    5.8252448 
C     0.0477825   -2.8184376   -4.0494067 
H     2.6882828    0.8649357   -1.9044016 
H     2.9689587    1.8041471    1.9640402 
H    -3.1523489   -1.2071998    1.4137218 
H     0.2084703   -3.2973745    0.7435524 
H     2.1989541   -1.6840862    0.8270715 
H     2.7905586   -0.6182589    2.1181566 
H     0.6909434   -1.9853822    2.8270948 
H     0.4318864   -0.2228471    2.9435589 
H     4.3941252    2.4481933   -1.4428572 
H     4.7634535    1.7647155    0.1548327 
H     3.4892175    3.8393672    0.5993840 
H     2.2489799    3.3769368   -0.5896414 
H    -3.2996833   -3.4680905    2.4041678 
H    -1.5673802   -3.4536831    2.8113334 
H    -1.8043982   -4.6449741    0.6171649 
H    -2.7706918   -3.2994183   -0.0225722 
H     3.1878638   -1.1417553   -2.9152218 
H     1.7913694    2.1866195    3.9269356 
H    -2.5187910   -2.5915005    4.6265813 
H     1.6338142   -3.5660736   -1.1112525 
H     5.0226909   -0.2701420    0.9037903 
H     0.1938748    3.7534770    0.2262606 
H    -2.3316913    1.1703350    2.4765161 
H    -2.3537693   -2.0095275   -1.7539890 
H     4.5222285   -3.2460147   -3.0695096 
H     0.0166334    3.3776929    5.1952532 
H    -2.7744712   -1.3610752    6.7547449 
H     2.0104393   -3.6002037   -3.5633257 
H     6.3288380   -2.3700087    0.7621641 
H    -1.5907467    4.9293535    1.4885078 
H    -2.6512134    2.3914843    4.6073705 
H    -1.9726219   -2.0384422   -4.2073410 
H     6.0874094   -3.8760349   -1.2229175 
H    -1.6769947    4.7704124    3.9847686 
H    -2.8686394    1.1408246    6.7666617 
H     0.2125878   -2.8426726   -5.1315891 
