101
Energy =
C    -0.2344330    2.3319060   -1.7861589 
C    -1.3455833    1.4805037   -2.0726830 
C    -2.3260111    1.2721912   -1.0680893 
H    -1.3458954    0.8499899   -2.9708278 
Pd   -0.3010211    0.6497023   -0.3398305 
P    -0.6870560   -1.2039783    0.9894826 
P     1.7999650    0.7239751    0.6311516 
H    -0.4039150    3.1516600   -1.0715474 
H    -2.4231976    2.0689799   -0.3136654 
C     3.3259235    2.7845953   -4.1731467 
C     3.0027185    3.7205379   -3.1789040 
C     1.8298218    3.5725065   -2.4269281 
C     0.9583515    2.4806076   -2.6429587 
C     1.2940096    1.5500364   -3.6535481 
C     2.4601817    1.7040315   -4.4117122 
H     4.2405996    2.8985064   -4.7634158 
H     3.6625792    4.5749270   -2.9944944 
H     1.5727975    4.3111515   -1.6610015 
H     0.6428551    0.6900406   -3.8383681 
H     2.7008654    0.9730707   -5.1909310 
C    -5.6432851   -1.4613869   -1.0558879 
C    -5.6527697   -0.3178287   -0.2435878 
C    -4.5691152    0.5694798   -0.2738423 
C    -3.4576058    0.3318145   -1.1162947 
C    -3.4597154   -0.8262517   -1.9270392 
C    -4.5442035   -1.7083318   -1.8969598 
H    -6.4870330   -2.1587126   -1.0344290 
H    -6.5042385   -0.1159997    0.4142664 
H    -4.5798963    1.4641850    0.3593193 
H    -2.5969285   -1.0558403   -2.5609156 
H    -4.5260911   -2.6019622   -2.5284464 
C     3.4589011    0.8213436   -0.2581662 
C     2.0866015    2.2922952    1.6715495 
C    -2.3652890   -1.6487074    1.7344890 
C    -0.3514979   -2.9146580    0.2567629 
C     1.9352822   -0.7201618    1.8130264 
C     0.5600564   -1.1123787    2.3825747 
C     4.3159553    1.6781583    0.6999706 
C     3.4298452    2.8535239    1.1414741 
C    -2.5465774   -3.1691580    1.4596308 
C    -1.1776191   -3.8279334    1.1920018 
C     3.9693795   -0.5295478   -0.7060733 
C     0.8752594    3.2131426    1.6456144 
C    -2.4435964   -1.1534640    3.1637251 
C    -0.6554325   -2.9801023   -1.2353235 
C     4.7870849   -1.3379435    0.1098375 
C     0.9095416    4.4985509    1.0755770 
C    -2.0751399   -1.9488725    4.2663374 
C    -1.6477414   -3.8125104   -1.7834637 
C     3.5689259   -1.0303025   -1.9621170 
C    -0.3530886    2.7537879    2.1721504 
C    -2.8274930    0.1836168    3.3966325 
C     0.1243626   -2.2028915   -2.1192129 
C     5.1821461   -2.6149623   -0.3162487 
C    -0.2528705    5.2836644    0.9901658 
C    -2.0864680   -1.4188155    5.5650849 
C    -1.8651305   -3.8570977   -3.1705011 
C     3.9556902   -2.3088011   -2.3847617 
C    -1.5115591    3.5368723    2.0946070 
C    -2.8316858    0.7171828    4.6923689 
C    -0.0890864   -2.2463821   -3.5019697 
C     4.7620045   -3.1081754   -1.5604478 
C    -1.4708662    4.8021941    1.4873498 
C    -2.4573786   -0.0834741    5.7825300 
C    -1.0941146   -3.0700702   -4.0356738 
H     3.2260828    1.4295414   -1.1531545 
H     2.2295666    1.9228796    2.7046974 
H    -3.0902088   -1.0780037    1.1310833 
H     0.7304705   -3.1009907    0.3874204 
H     2.3655589   -1.5497243    1.2217702 
H     2.6541634   -0.4935260    2.6202282 
H     0.6135541   -2.0735047    2.9229358 
H     0.1858703   -0.3628214    3.1026584 
H     5.2327250    2.0243255    0.1918325 
H     4.6329538    1.0868156    1.5787306 
H     3.9175461    3.4832993    1.9051357 
H     3.2423070    3.4893936    0.2589159 
H    -3.1916209   -3.2736452    0.5715886 
H    -3.0723937   -3.6575333    2.2971101 
H    -0.6274995   -3.9466010    2.1430710 
H    -1.2824559   -4.8423059    0.7686541 
H     5.1264052   -0.9722868    1.0845496 
H     1.8493410    4.9065687    0.6935288 
H    -1.7779329   -2.9927868    4.1176954 
H    -2.2627743   -4.4436937   -1.1359293 
H     2.9539990   -0.3987384   -2.6124106 
H    -0.4076385    1.7735988    2.6597484 
H    -3.1305105    0.8032378    2.5447456 
H     0.9261819   -1.5733783   -1.7168127 
H     5.8244854   -3.2253323    0.3272643 
H    -0.1993170    6.2790568    0.5371244 
H    -1.8043748   -2.0537936    6.4114724 
H    -2.6413254   -4.5161497   -3.5734323 
H     3.6294522   -2.6797396   -3.3621097 
H    -2.4487695    3.1601150    2.5166096 
H    -3.1361679    1.7568517    4.8540134 
H     0.5446498   -1.6514685   -4.1685599 
H     5.0700139   -4.1057668   -1.8898006 
H    -2.3758896    5.4144739    1.4211648 
H    -2.4645377    0.3279660    6.7969516 
H    -1.2629859   -3.1083627   -5.1165983 
