101
Energy =
C    -0.3827751    2.3052602   -1.7875939 
C    -1.4626925    1.3960654   -2.0640650 
C    -2.4060871    1.1344119   -1.0453399 
H    -1.4536164    0.7828273   -2.9741763 
Pd   -0.2844680    0.6179638   -0.3871283 
P    -0.3849796   -1.4051473    0.7407786 
P     1.6962193    1.0091966    0.7211655 
H    -0.5990494    3.1614319   -1.1326742 
H    -2.4522683    1.8824277   -0.2369966 
C     3.2042003    2.6926417   -4.1500185 
C     2.4532736    1.5064202   -4.2082265 
C     1.2731743    1.3816958   -3.4667326 
C     0.8118097    2.4408960   -2.6479907 
C     1.5692964    3.6328538   -2.6134708 
C     2.7527764    3.7563402   -3.3537477 
H     4.1297756    2.7877498   -4.7266514 
H     2.7942403    0.6721608   -4.8304162 
H     0.7107532    0.4427643   -3.5050384 
H     1.2174733    4.4664079   -1.9979387 
H     3.3227310    4.6907539   -3.3137580 
C    -5.7136393   -1.5993958   -0.8961580 
C    -5.5309977   -0.6325337    0.1041131 
C    -4.4511256    0.2544108    0.0255165 
C    -3.5286227    0.1891448   -1.0478971 
C    -3.7260207   -0.7906595   -2.0467248 
C    -4.8100073   -1.6695601   -1.9704119 
H    -6.5599599   -2.2920520   -0.8436486 
H    -6.2334350   -0.5645804    0.9410666 
H    -4.3173023    1.0173976    0.8012691 
H    -3.0224126   -0.8800471   -2.8790671 
H    -4.9483437   -2.4196823   -2.7547620 
C     3.3445155    0.8231362   -0.1636543 
C     2.0946279    2.7138811    1.4420968 
C    -1.9256130   -1.7907649    1.7631958 
C    -0.3283957   -3.0837783   -0.1153983 
C     1.6886252   -0.1326416    2.2017169 
C     1.1252901   -1.5174886    1.8530802 
C     4.2600718    1.8275828    0.5656656 
C     3.4245538    3.1082336    0.7548378 
C    -2.1940070   -3.3116466    1.5678641 
C    -0.9474470   -3.9982721    0.9691250 
C     3.7124846   -0.6377876   -0.2724903 
C     0.9119327    3.6608270    1.3355290 
C    -1.7530392   -1.2254472    3.1568122 
C    -0.9571130   -3.0894117   -1.5023214 
C     3.1306772   -1.3975172   -1.3099340 
C    -0.3349446    3.2578094    1.8627213 
C    -1.2725608   -1.9876048    4.2393853 
C    -2.0084783   -3.9485193   -1.8679759 
C     4.5133496   -1.2998106    0.6784802 
C     0.9934241    4.9130413    0.7024852 
C    -1.9960741    0.1504063    3.3606752 
C    -0.4008315   -2.2572582   -2.4989054 
C     3.3113955   -2.7848049   -1.3781789 
C    -1.4728205    4.0615362    1.7257041 
C    -1.0343042   -1.3890230    5.4866078 
C    -2.4805957   -3.9846084   -3.1904174 
C     4.6996161   -2.6896663    0.6092059 
C    -0.1474037    5.7225250    0.5629823 
C    -1.7540864    0.7510552    4.6032689 
C    -0.8703144   -2.2880715   -3.8171967 
C     4.0901200   -3.4385247   -0.4090404 
C    -1.3858508    5.2963496    1.0612479 
C    -1.2667734   -0.0183033    5.6716968 
C    -1.9164449   -3.1572457   -4.1701289 
H     3.1308990    1.2175823   -1.1759108 
H     2.2954025    2.5157917    2.5131910 
H    -2.7191569   -1.2160895    1.2562003 
H     0.7459030   -3.3103773   -0.2426193 
H     2.7030699   -0.2112527    2.6323098 
H     1.0429785    0.3652179    2.9495037 
H     1.8698726   -2.0998795    1.2814931 
H     0.8852936   -2.0772982    2.7724148 
H     5.1771021    2.0167537   -0.0188131 
H     4.5728939    1.4327301    1.5502798 
H     3.9606643    3.8700610    1.3463781 
H     3.2147224    3.5419511   -0.2394046 
H    -3.0449701   -3.4145232    0.8738394 
H    -2.4966870   -3.7886368    2.5148830 
H    -0.1907979   -4.1529149    1.7599712 
H    -1.1815555   -4.9996144    0.5667885 
H     2.5346781   -0.8801002   -2.0699844 
H    -0.4168641    2.2982581    2.3862272 
H    -1.0847404   -3.0601857    4.1158928 
H    -2.4636030   -4.6131516   -1.1278412 
H     4.9973829   -0.7343909    1.4814707 
H     1.9502037    5.2699466    0.3100635 
H    -2.3829568    0.7501863    2.5281674 
H     0.4238293   -1.5880602   -2.2288196 
H     2.8477830   -3.3543179   -2.1909622 
H    -2.4294421    3.7262759    2.1421194 
H    -0.6668103   -1.9995336    6.3180614 
H    -3.2933022   -4.6698450   -3.4531420 
H     5.3273363   -3.1887782    1.3547959 
H    -0.0627811    6.6926542    0.0622700 
H    -1.9531945    1.8194822    4.7406380 
H    -0.4137439   -1.6425397   -4.5759150 
H     4.2362782   -4.5224207   -0.4579302 
H    -2.2731163    5.9273137    0.9476677 
H    -1.0812901    0.4454040    6.6458417 
H    -2.2827878   -3.1914503   -5.2011447 
