101
Energy =
C    -0.0335696    2.1713639   -2.0308783 
C    -1.3103668    1.5387495   -2.1801943 
C    -2.2478982    1.6244685   -1.1247085 
H    -1.4802959    0.8429738   -3.0114839 
Pd   -0.3083158    0.6870512   -0.4212025 
P    -0.7949712   -1.0625348    1.0041260 
P     1.7652724    0.6924014    0.5967796 
H    -0.0094362    3.1019918   -1.4473900 
H    -2.0912001    2.4346083   -0.3935038 
C     3.3529740    1.5589182   -4.6217628 
C     2.3546331    0.5740078   -4.5286588 
C     1.2478481    0.7626192   -3.6941675 
C     1.1052811    1.9541989   -2.9440804 
C     2.1160896    2.9368914   -3.0470834 
C     3.2300655    2.7403415   -3.8750178 
H     4.2210422    1.4048200   -5.2705338 
H     2.4455906   -0.3556910   -5.1004747 
H     0.5050853   -0.0369403   -3.5998522 
H     2.0169120    3.8689280   -2.4788518 
H     4.0002075    3.5157563   -3.9436136 
C    -6.0830535   -0.2744490   -0.7145819 
C    -5.5809289    0.5651141    0.2920703 
C    -4.3385495    1.1885381    0.1271243 
C    -3.5663099    0.9805889   -1.0412987 
C    -4.1000271    0.1559142   -2.0583301 
C    -5.3418299   -0.4673567   -1.8928344 
H    -7.0545480   -0.7634011   -0.5904670 
H    -6.1594243    0.7355194    1.2058319 
H    -3.9469487    1.8486511    0.9095230 
H    -3.5469995    0.0127622   -2.9910377 
H    -5.7406789   -1.1008394   -2.6919744 
C     3.4573946    0.7294080   -0.2407300 
C     2.0123177    2.3292172    1.5357168 
C    -2.4959506   -1.5160317    1.6989518 
C    -0.4282109   -2.7370409    0.2149614 
C     1.8257136   -0.6762478    1.8709704 
C     0.4262503   -1.0111663    2.4182792 
C     4.2447224    1.7812270    0.5749632 
C     3.2741750    2.9322984    0.8767819 
C    -2.7791392   -2.9391125    1.1406052 
C    -1.4578284   -3.6915076    0.8878456 
C     4.0685910   -0.6405998   -0.4381535 
C     0.7448902    3.1688289    1.5562027 
C    -2.5301366   -1.3114579    3.2007140 
C    -0.4372969   -2.6886632   -1.3023175 
C     3.7860607   -1.3574122   -1.6187687 
C     0.5827496    4.3166454    0.7573042 
C    -2.2509619   -2.3411885    4.1204205 
C    -1.5398792   -2.2035432   -2.0367759 
C     4.8876653   -1.2467201    0.5368629 
C    -0.3396709    2.7670897    2.3669421 
C    -2.7892079   -0.0176331    3.7008066 
C     0.6928179   -3.1385336   -2.0117087 
C     4.3131893   -2.6397953   -1.8224621 
C    -0.6329390    5.0199187    0.7403219 
C    -2.2261994   -2.0814200    5.4991601 
C    -1.5155385   -2.1892099   -3.4385205 
C     5.4123244   -2.5314365    0.3343998 
C    -1.5504573    3.4707696    2.3582718 
C    -2.7586524    0.2450952    5.0764858 
C     0.7232825   -3.1137178   -3.4135428 
C     5.1267985   -3.2337281   -0.8459440 
C    -1.7080054    4.5959405    1.5334272 
C    -2.4728585   -0.7882194    5.9823894 
C    -0.3837062   -2.6431679   -4.1339842 
H     3.2297941    1.1614318   -1.2334774 
H     2.2590018    2.0303172    2.5720506 
H    -3.1904197   -0.7940464    1.2373175 
H     0.5914973   -3.0151869    0.5308658 
H     2.2599481   -1.5457614    1.3441329 
H     2.5248906   -0.4128630    2.6841662 
H     0.4257972   -1.9757357    2.9553874 
H     0.0684469   -0.2487180    3.1315367 
H     5.1267114    2.1223779    0.0057150 
H     4.6145965    1.3461633    1.5212857 
H     3.7226113    3.7023721    1.5278582 
H     3.0050287    3.4217233   -0.0759077 
H    -3.3358719   -2.8367026    0.1939298 
H    -3.4354168   -3.4982121    1.8294775 
H    -1.0325986   -4.0348017    1.8483871 
H    -1.6140156   -4.5888370    0.2647164 
H     3.1521232   -0.8977422   -2.3841743 
H     1.4087299    4.6760622    0.1366666 
H    -2.0561836   -3.3592026    3.7670137 
H    -2.4271926   -1.8276344   -1.5164858 
H     5.1288924   -0.7142090    1.4628441 
H    -0.2343384    1.8958191    3.0229468 
H    -3.0206310    0.7875564    2.9948090 
H     1.5635552   -3.5071718   -1.4588555 
H     4.0934021   -3.1743802   -2.7529424 
H    -0.7336974    5.9087633    0.1088284 
H    -2.0145710   -2.8966144    6.1990516 
H    -2.3877231   -1.8275917   -3.9937820 
H     6.0536065   -2.9813548    1.0995469 
H    -2.3702761    3.1473252    3.0082110 
H    -2.9680997    1.2556866    5.4436413 
H     1.6136431   -3.4690339   -3.9432670 
H     5.5435622   -4.2333005   -1.0067036 
H    -2.6533321    5.1478788    1.5238934 
H    -2.4522131   -0.5888166    7.0585836 
H    -0.3672112   -2.6304109   -5.2286167 
