101
Energy =
C    -0.3532047    2.3098214   -1.7795546 
C    -1.4868805    1.4787330   -2.0459616 
C    -2.4448349    1.2783679   -1.0194878 
H    -1.5177931    0.8582022   -2.9508070 
Pd   -0.4080094    0.6171379   -0.3486773 
P    -0.7461896   -1.2908838    0.9072205 
P     1.7285904    0.6241836    0.5349096 
H    -0.4947082    3.1417833   -1.0732984 
H    -2.4951187    2.0643282   -0.2492056 
C     3.1740084    2.6313372   -4.2340157 
C     2.8235020    3.6587539   -3.3454523 
C     1.6613466    3.5555104   -2.5686848 
C     0.8251097    2.4203215   -2.6617067 
C     1.1883190    1.3950908   -3.5674381 
C     2.3461649    1.5009219   -4.3452187 
H     4.0833981    2.7097017   -4.8381039 
H     3.4569772    4.5478849   -3.2591269 
H     1.3893791    4.3601771   -1.8783183 
H     0.5687337    0.4960271   -3.6409984 
H     2.6118731    0.6942856   -5.0367786 
C    -5.8339294   -1.3629794   -0.9165540 
C    -5.7504437   -0.2662892   -0.0459436 
C    -4.6443117    0.5906151   -0.1073178 
C    -3.6008424    0.3685152   -1.0372929 
C    -3.6958541   -0.7432780   -1.9048388 
C    -4.8039784   -1.5939126   -1.8448979 
H    -6.6969136   -2.0353627   -0.8738582 
H    -6.5476171   -0.0764025    0.6799882 
H    -4.5838733    1.4502105    0.5703557 
H    -2.8888806   -0.9613292   -2.6118211 
H    -4.8597848   -2.4503843   -2.5238374 
C     3.2885288    0.9562029   -0.4796732 
C     2.0073177    1.9815529    1.8207283 
C    -2.3836181   -1.6835133    1.7561593 
C    -0.5423756   -2.9856976    0.0940099 
C     1.9544037   -0.9541814    1.5094540 
C     0.6206030   -1.3268277    2.1868994 
C     3.9357591    2.2006431    0.1917042 
C     3.5131409    2.3073176    1.6727762 
C    -2.6538852   -3.1863710    1.4578918 
C    -1.3416173   -3.8934419    1.0596957 
C     4.1109708   -0.3087057   -0.6137083 
C     0.9915106    3.0954569    1.6194521 
C    -2.3361475   -1.2106008    3.1941980 
C    -0.9360461   -2.9966590   -1.3772316 
C     3.8128166   -1.2026629   -1.6641419 
C     1.2889138    4.3154334    0.9885599 
C    -1.9309939   -2.0426002    4.2558885 
C    -1.9921162   -3.7759267   -1.8822374 
C     5.1113792   -0.6666930    0.3113119 
C    -0.3373802    2.8655486    2.0421132 
C    -2.6259293    0.1424809    3.4711497 
C    -0.1764994   -2.2318828   -2.2904213 
C     4.4862051   -2.4261664   -1.7804891 
C     0.2815075    5.2691441    0.7597565 
C    -1.8169982   -1.5339190    5.5583654 
C    -2.2881763   -3.7864026   -3.2550836 
C     5.7918173   -1.8875289    0.1909652 
C    -1.3417890    3.8146273    1.8169611 
C    -2.5035443    0.6542590    4.7700481 
C    -0.4711596   -2.2388405   -3.6591813 
C     5.4773650   -2.7741859   -0.8496041 
C    -1.0378953    5.0196396    1.1615790 
C    -2.0954341   -0.1839239    5.8192126 
C    -1.5357816   -3.0138878   -4.1486822 
H     2.9147743    1.2331350   -1.4791765 
H     1.8100722    1.5183298    2.8039928 
H    -3.1195909   -1.0662258    1.2146950 
H     0.5361742   -3.2215339    0.1515960 
H     2.2803760   -1.7335610    0.7968243 
H     2.7662007   -0.8359814    2.2483670 
H     0.6813980   -2.3174810    2.6701470 
H     0.3479889   -0.5997332    2.9732298 
H     3.5947515    3.0904404   -0.3635526 
H     5.0337379    2.1640121    0.0902442 
H     4.0813558    1.5750920    2.2739807 
H     3.7438746    3.3027197    2.0918646 
H    -3.3736545   -3.2369294    0.6239968 
H    -3.1296379   -3.6789599    2.3223747 
H    -0.7269158   -4.0709937    1.9607199 
H    -1.5256594   -4.8863716    0.6132950 
H     3.0529086   -0.9225358   -2.4033515 
H     2.3111961    4.5369124    0.6681670 
H    -1.7024869   -3.0980428    4.0713153 
H    -2.5961756   -4.3923691   -1.2105320 
H     5.3701604    0.0099330    1.1330008 
H    -0.5844895    1.9341593    2.5660977 
H    -2.9562144    0.7944657    2.6535426 
H     0.6676831   -1.6360277   -1.9212131 
H     4.2438153   -3.1044541   -2.6054790 
H     0.5341928    6.2137144    0.2666919 
H    -1.5088167   -2.1970176    6.3735152 
H    -3.1117405   -4.4064900   -3.6243475 
H     6.5723771   -2.1459172    0.9142668 
H    -2.3626756    3.6182868    2.1631468 
H    -2.7356591    1.7067030    4.9654330 
H     0.1418146   -1.6539117   -4.3533864 
H     6.0091545   -3.7267751   -0.9405556 
H    -1.8195446    5.7646152    0.9819470 
H    -2.0044148    0.2105082    6.8363506 
H    -1.7654162   -3.0244905   -5.2189119 
