101
Energy =
C    -0.2571161    2.3325172   -1.7826628 
C    -1.3637515    1.4744109   -2.0681939 
C    -2.3401691    1.2591610   -1.0612234 
H    -1.3622061    0.8456019   -2.9675836 
Pd   -0.3072573    0.6487900   -0.3407508 
P    -0.6757490   -1.2064987    0.9919099 
P     1.7997661    0.7343928    0.6160624 
H    -0.4313348    3.1517195   -1.0685230 
H    -2.4390654    2.0544325   -0.3054142 
C     3.2971604    2.8087200   -4.1739537 
C     2.9575487    3.7542895   -3.1944288 
C     1.7864088    3.5986004   -2.4411036 
C     0.9331215    2.4896531   -2.6416393 
C     1.2850130    1.5494040   -3.6376587 
C     2.4494422    1.7106390   -4.3969542 
H     4.2107427    2.9283671   -4.7647859 
H     3.6032248    4.6219965   -3.0224307 
H     1.5167215    4.3444821   -1.6866233 
H     0.6482285    0.6758341   -3.8087565 
H     2.7033249    0.9716342   -5.1643068 
C    -5.6415839   -1.4934574   -1.0380775 
C    -5.6522569   -0.3529495   -0.2214998 
C    -4.5737785    0.5404600   -0.2554310 
C    -3.4661017    0.3119481   -1.1055279 
C    -3.4666797   -0.8435057   -1.9199997 
C    -4.5462742   -1.7314598   -1.8865817 
H    -6.4815850   -2.1952202   -1.0143325 
H    -6.5007151   -0.1581357    0.4423304 
H    -4.5857643    1.4330477    0.3807028 
H    -2.6065103   -1.0664402   -2.5597351 
H    -4.5272082   -2.6226557   -2.5214435 
C     3.4519742    0.8321821   -0.2872272 
C     2.0890172    2.3089463    1.6457228 
C    -2.3473407   -1.6585089    1.7474275 
C    -0.3366625   -2.9165337    0.2596241 
C     1.9483744   -0.7056045    1.8014671 
C     0.5784060   -1.1057058    2.3780621 
C     4.3114259    1.7042381    0.6549105 
C     3.4209306    2.8766329    1.0947727 
C    -2.5216389   -3.1808061    1.4781159 
C    -1.1506476   -3.8322938    1.2029765 
C     3.9676427   -0.5208703   -0.7228135 
C     0.8721071    3.2226651    1.6310890 
C    -2.4203775   -1.1596560    3.1757074 
C    -0.6528475   -2.9865301   -1.2298408 
C     3.5569155   -1.0418397   -1.9672197 
C     0.8965618    4.5105828    1.0662158 
C    -2.0414837   -1.9501313    4.2783418 
C    -1.6421236   -3.8288715   -1.7682039 
C     4.7999311   -1.3124649    0.0948371 
C    -0.3504682    2.7552352    2.1638360 
C    -2.8098239    0.1760526    3.4072016 
C     0.1124383   -2.2041301   -2.1217398 
C     3.9469547   -2.3237431   -2.3763181 
C    -0.2702565    5.2901691    0.9911097 
C    -2.0479520   -1.4165585    5.5756631 
C    -1.8700692   -3.8787715   -3.1533569 
C     5.1989994   -2.5925591   -0.3180439 
C    -1.5134155    3.5326323    2.0961152 
C    -2.8090575    0.7132165    4.7014624 
C    -0.1110975   -2.2532812   -3.5027201 
C     4.7678633   -3.1061728   -1.5501634 
C    -1.4828059    4.8004448    1.4935158 
C    -2.4239764   -0.0823865    5.7915518 
C    -1.1126582   -3.0874484   -4.0265516 
H     3.2090807    1.4286986   -1.1873738 
H     2.2485317    1.9457428    2.6787162 
H    -3.0787650   -1.0935886    1.1463964 
H     0.7473320   -3.0971078    0.3816451 
H     2.3813680   -1.5338148    1.2103070 
H     2.6694275   -0.4725901    2.6049218 
H     0.6407083   -2.0658200    2.9192511 
H     0.2031813   -0.3577132    3.0992310 
H     5.2205941    2.0525990    0.1347878 
H     4.6411215    1.1232771    1.5358908 
H     3.9121202    3.5177505    1.8466957 
H     3.2174376    3.5020571    0.2082405 
H    -3.1720230   -3.2917243    0.5947714 
H    -3.0387920   -3.6698858    2.3205413 
H    -0.5932792   -3.9450002    2.1505324 
H    -1.2523594   -4.8484985    0.7832748 
H     2.9313130   -0.4231063   -2.6195045 
H     1.8319418    4.9245545    0.6798047 
H    -1.7397368   -2.9928805    4.1307475 
H    -2.2462723   -4.4641021   -1.1144184 
H     5.1471685   -0.9314235    1.0607963 
H    -0.3970111    1.7733694    2.6488994 
H    -3.1211157    0.7916570    2.5553980 
H     0.9104769   -1.5653336   -1.7265965 
H     3.6117082   -2.7105263   -3.3444275 
H    -0.2244860    6.2876538    0.5418242 
H    -1.7582955   -2.0478961    6.4222167 
H    -2.6438646   -4.5453373   -3.5484586 
H     5.8530422   -3.1893886    0.3263744 
H    -2.4462125    3.1494011    2.5219903 
H    -3.1181368    1.7516845    4.8620730 
H     0.5118070   -1.6544684   -4.1760501 
H     5.0787305   -4.1063070   -1.8689509 
H    -2.3914186    5.4081545    1.4348375 
H    -2.4263249    0.3321190    6.8047437 
H    -1.2894327   -3.1301148   -5.1060397 
