101
Energy =
C    -0.3730496    1.9638958   -2.4237524 
C    -1.5757227    1.1877586   -2.4184649 
C    -2.4944542    1.3265650   -1.3516641 
H    -1.6921137    0.3637282   -3.1339960 
Pd   -0.4489658    0.6853717   -0.6048721 
P    -0.7949580   -0.8471994    1.0945791 
P     1.7197572    0.7965275    0.2034185 
H    -0.4352562    2.9700307   -1.9871745 
H    -2.4106005    2.2423768   -0.7449372 
C     2.9588898    1.3815592   -5.0896707 
C     2.7199752    2.6372098   -4.5107767 
C     1.6214219    2.8235634   -3.6603594 
C     0.7425306    1.7563472   -3.3661365 
C     0.9989496    0.4940941   -3.9514293 
C     2.0896143    0.3135777   -4.8085588 
H     3.8163640    1.2349856   -5.7540084 
H     3.3875756    3.4776048   -4.7277371 
H     1.4343337    3.8110457   -3.2230477 
H     0.3613596   -0.3612761   -3.7064112 
H     2.2698678   -0.6719367   -5.2513963 
C    -6.1828349   -0.7810340   -0.6721199 
C    -5.7371116    0.2009028    0.2262306 
C    -4.5403112    0.8841999   -0.0204770 
C    -3.7555467    0.5925581   -1.1620120 
C    -4.2330806   -0.3789637   -2.0719542 
C    -5.4309758   -1.0593557   -1.8262244 
H    -7.1199264   -1.3148119   -0.4846248 
H    -6.3268097    0.4392355    1.1173284 
H    -4.2017006    1.6610649    0.6753265 
H    -3.6711695   -0.5945645   -2.9851176 
H    -5.7873340   -1.8051763   -2.5444196 
C     3.2331726    0.8813395   -0.9284098 
C     2.0895434    2.4223353    1.0838360 
C    -2.3998971   -1.0162088    2.0722848 
C    -0.7065219   -2.6446220    0.4932679 
C     1.9388482   -0.5362280    1.4900475 
C     0.6310233   -0.7052704    2.2857009 
C     3.9112070    2.2357123   -0.5774024 
C     2.8504313    3.1977179   -0.0151950 
C    -3.0450717   -2.2759404    1.4416246 
C    -1.9659145   -3.3277607    1.1061564 
C     4.0853947   -0.3687755   -0.8790029 
C     0.8754988    3.0598800    1.7231528 
C    -2.1697573   -0.9888348    3.5710254 
C    -0.5541510   -2.7410942   -1.0145984 
C     4.9930606   -0.6180733    0.1712121 
C     0.6752921    2.9529775    3.1135751 
C    -2.0037210   -2.1514603    4.3496756 
C    -1.6600009   -2.6057492   -1.8773720 
C     3.9363680   -1.3457019   -1.8834991 
C    -0.1013538    3.7297631    0.9577879 
C    -2.0852258    0.2653604    4.2137717 
C     0.7134363   -2.9778072   -1.5822262 
C     5.7280546   -1.8108013    0.2155001 
C    -0.4719053    3.4847742    3.7205951 
C    -1.7559645   -2.0617740    5.7279817 
C    -1.5049999   -2.7169775   -3.2662775 
C     4.6692364   -2.5398808   -1.8398043 
C    -1.2527741    4.2551964    1.5597455 
C    -1.8347458    0.3553477    5.5886610 
C     0.8693848   -3.0944743   -2.9708941 
C     5.5666438   -2.7781251   -0.7882499 
C    -1.4460631    4.1292677    2.9446547 
C    -1.6655573   -0.8097827    6.3523086 
C    -0.2395438   -2.9667906   -3.8199579 
H     2.7870723    0.9625057   -1.9342134 
H     2.8116931    2.1556652    1.8789835 
H    -2.9987417   -0.1319311    1.8001823 
H     0.2053939   -3.0649103    0.9509273 
H     2.2095820   -1.4614610    0.9493032 
H     2.7865673   -0.2892428    2.1519321 
H     0.6606235   -1.5899745    2.9454208 
H     0.4294127    0.1743920    2.9220980 
H     4.4020178    2.6444219   -1.4767388 
H     4.6977984    2.0805029    0.1818188 
H     3.2994197    4.1173964    0.3977920 
H     2.1544868    3.5020965   -0.8183362 
H    -3.5639400   -1.9611516    0.5180864 
H    -3.8174521   -2.6880142    2.1139411 
H    -1.6584957   -3.8587304    2.0222002 
H    -2.3587903   -4.0923334    0.4146816 
H     5.1342883    0.1247506    0.9647996 
H     1.4315946    2.4543257    3.7314197 
H    -2.0795117   -3.1410870    3.8895945 
H    -2.6559103   -2.4234985   -1.4632862 
H     3.2391930   -1.1565720   -2.7061155 
H     0.0464829    3.8561390   -0.1186742 
H    -2.2176650    1.1817706    3.6264982 
H     1.5901937   -3.0909957   -0.9339668 
H     6.4327838   -1.9836189    1.0356617 
H    -0.5996312    3.3989828    4.8045253 
H    -1.6383959   -2.9779349    6.3162005 
H    -2.3798781   -2.6256835   -3.9194875 
H     4.5461281   -3.2837495   -2.6345847 
H    -1.9946754    4.7791611    0.9472647 
H    -1.7821519    1.3386514    6.0681359 
H     1.8606554   -3.2981837   -3.3885074 
H     6.1437112   -3.7078735   -0.7546247 
H    -2.3403024    4.5482603    3.4174016 
H    -1.4747209   -0.7426465    7.4282174 
H    -0.1209804   -3.0668532   -4.9037668 
