101
Energy =
C    -0.1307962    2.3117960   -1.8191299 
C    -1.2879885    1.5166774   -2.0850647 
C    -2.2681143    1.3742846   -1.0686438 
H    -1.3302591    0.8758538   -2.9749763 
Pd   -0.2713973    0.6557203   -0.3502633 
P    -0.7428309   -1.1482693    1.0191619 
P     1.8429068    0.6318731    0.5937505 
H    -0.2516305    3.1494299   -1.1155576 
H    -2.3146243    2.1855494   -0.3248506 
C     3.4248124    2.5523265   -4.2429406 
C     3.1466262    3.5295417   -3.2752920 
C     1.9751487    3.4503741   -2.5108645 
C     1.0600591    2.3877567   -2.6879588 
C     1.3512357    1.4140912   -3.6713043 
C     2.5160377    1.4995289   -4.4421979 
H     4.3382699    2.6126926   -4.8429395 
H     3.8408036    4.3625565   -3.1215276 
H     1.7534662    4.2214393   -1.7661549 
H     0.6663240    0.5739056   -3.8230197 
H     2.7222176    0.7362453   -5.2000519 
C    -5.7296884   -1.1725255   -0.9858275 
C    -5.6674998   -0.0197008   -0.1891736 
C    -4.5369467    0.8057590   -0.2422916 
C    -3.4493221    0.4961514   -1.0924989 
C    -3.5236953   -0.6707156   -1.8869922 
C    -4.6547931   -1.4910096   -1.8340063 
H    -6.6104677   -1.8216383   -0.9468093 
H    -6.4996764    0.2377666    0.4739220 
H    -4.4914279    1.7078345    0.3787363 
H    -2.6816855   -0.9562218   -2.5261402 
H    -4.6926881   -2.3926495   -2.4531092 
C     3.4911126    0.6148327   -0.3214437 
C     2.2344300    2.2032751    1.5944160 
C    -2.4347099   -1.4814294    1.7911600 
C    -0.5133699   -2.8895190    0.3187295 
C     1.9119517   -0.7933686    1.8038704 
C     0.5242296   -1.0981960    2.3962639 
C     4.4092592    1.4471195    0.6012361 
C     3.5954828    2.6787625    1.0273516 
C    -2.7069576   -2.9931366    1.5457429 
C    -1.3809548   -3.7351035    1.2797066 
C     3.9221030   -0.7726126   -0.7403599 
C     1.0762910    3.1903297    1.5704827 
C    -2.4656329   -0.9573849    3.2119043 
C    -0.8357146   -2.9661652   -1.1690058 
C     4.7025806   -1.6043923    0.0884680 
C    -0.1697646    2.8084568    2.1168094 
C    -2.1366948   -1.7548811    4.3253732 
C    -0.0231061   -2.2502680   -2.0748945 
C     3.4831305   -1.2813719   -1.9801268 
C     1.1773141    4.4650511    0.9846629 
C    -2.7601783    0.4056646    3.4235400 
C    -1.8782278   -3.7521942   -1.6917950 
C     5.0238721   -2.9108921   -0.3090548 
C    -1.2824086    3.6557523    2.0426059 
C    -2.0996391   -1.2018148    5.6140356 
C    -0.2527992   -2.3077059   -3.4545137 
C     3.7958392   -2.5889541   -2.3741999 
C     0.0608047    5.3144833    0.9025586 
C    -2.7157121    0.9617084    4.7089640 
C    -2.1119102   -3.8107117   -3.0756701 
C     4.5656993   -3.4106540   -1.5371416 
C    -1.1767521    4.9093937    1.4191585 
C    -2.3816446    0.1582974    5.8101451 
C    -1.3073495   -3.0841782   -3.9629178 
H     3.2777058    1.2116706   -1.2288175 
H     2.3774264    1.8483909    2.6327269 
H    -3.1329873   -0.8801123    1.1860444 
H     0.5573846   -3.1352353    0.4434075 
H     2.2887252   -1.6568294    1.2247985 
H     2.6518447   -0.5910777    2.5984282 
H     0.5313472   -2.0502031    2.9551464 
H     0.2007924   -0.3151957    3.1052461 
H     5.3343481    1.7305537    0.0698243 
H     4.7090628    0.8607831    1.4893247 
H     4.1299536    3.3000241    1.7662863 
H     3.4253800    3.3016676    0.1320361 
H    -3.3645486   -3.0756479    0.6645689 
H    -3.2532014   -3.4347633    2.3960033 
H    -0.8289919   -3.8661800    2.2281072 
H    -1.5480999   -4.7499677    0.8781531 
H     5.0704635   -1.2343032    1.0510800 
H    -0.2745011    1.8390126    2.6174245 
H    -1.9087342   -2.8182629    4.1933749 
H     0.8164458   -1.6588565   -1.6919619 
H     2.8972695   -0.6332226   -2.6407713 
H     2.1343751    4.8139022    0.5871564 
H    -3.0312853    1.0281786    2.5630455 
H    -2.5205892   -4.3359739   -1.0264907 
H     5.6384442   -3.5394033    0.3440243 
H    -2.2346667    3.3386973    2.4797798 
H    -1.8495971   -1.8382749    6.4693346 
H     0.4059244   -1.7615518   -4.1384189 
H     3.4402008   -2.9653020   -3.3391116 
H     0.1656958    6.2996747    0.4364084 
H    -2.9505956    2.0216731    4.8541024 
H    -2.9275544   -4.4328896   -3.4587789 
H     4.8160707   -4.4312274   -1.8441700 
H    -2.0461943    5.5714405    1.3552363 
H    -2.3511009    0.5875760    6.8167031 
H    -1.4891623   -3.1333816   -5.0412966 
