103
Energy =
C     1.2536708   -0.6796255   -2.2371156 
C     1.5373301    0.6706917   -1.9480362 
C     2.3056975    1.0157136   -0.7974852 
H     1.1005645    1.4616049   -2.5702013 
Pd    0.3699498    0.0028035   -0.1860643 
P     0.2859019    0.2608916    2.1339094 
P    -1.7205831   -1.0517179    0.0513870 
H     1.8670801   -1.4236475   -1.7090487 
H     2.9932000    0.2508253   -0.4133511 
C    -0.6728206   -2.2448934   -5.7382923 
C     0.1577090   -3.0584908   -4.9525234 
C     0.7725295   -2.5332320   -3.8103369 
C     0.5714567   -1.1840307   -3.4333235 
C    -0.2631797   -0.3748670   -4.2382603 
C    -0.8782004   -0.9021368   -5.3762806 
H    -1.1585033   -2.6544133   -6.6299018 
H     0.3277234   -4.1033415   -5.2315432 
H     1.4243385   -3.1708307   -3.2023757 
H    -0.4595996    0.6616299   -3.9539755 
H    -1.5297019   -0.2630489   -5.9803977 
C     3.5319792    5.0580582    0.0301878 
C     2.2778554    4.8192099   -0.5562497 
C     1.8638282    3.5096170   -0.8194909 
C     2.6902128    2.4085912   -0.5002607 
C     3.9493949    2.6646996    0.0893506 
C     4.3665969    3.9758566    0.3485955 
H     3.8556475    6.0831904    0.2371343 
H     1.6193917    5.6583917   -0.8038869 
H     0.8775550    3.3313567   -1.2582965 
H     4.6006374    1.8208262    0.3394357 
H     5.3477825    4.1544262    0.8004826 
O    -1.1839724   -0.8217282    4.1043174 
O    -3.4613851   -1.3571346    2.0764238 
C    -1.3973863   -0.2872500    2.7812282 
C    -2.0344171   -1.3666363    1.8875277 
C     0.6028812    1.9179852    3.0157111 
C    -2.1083889   -2.7220939   -0.7808163 
C    -3.3082035   -0.1424886    0.0286450 
C     1.0154390   -1.0171908    3.2133060 
C    -4.0734219   -0.5603694    1.1459723 
C     0.0800836   -1.3346958    4.2273233 
C    -0.1013664    2.9837764    2.1515250 
C    -2.4898658   -2.4020428   -2.2403663 
C     0.0614292    1.9414803    4.4581766 
C     2.1296980    2.1190201    3.0377236 
C    -0.8088004   -3.5470623   -0.6905585 
C    -3.2693003   -3.4770993   -0.1047007 
C     2.3175083   -1.5631351    3.2523453 
C    -3.8960668    0.6865679   -0.9565315 
C     0.4318772   -2.1238956    5.3287718 
C    -5.4223078   -0.2164303    1.2925157 
C     2.6719690   -2.3464703    4.3690105 
C    -5.2607113    1.0178797   -0.8083333 
C     3.2739688   -1.4366984    2.1115318 
C    -3.1456942    1.2967169   -2.0909886 
C    -6.0084025    0.5653543    0.2903045 
C     1.7457176   -2.6056198    5.3940935 
C     3.0221858   -2.1639321    0.9271659 
C    -3.6452319    1.2001860   -3.4077770 
C     4.4748302   -0.7092860    2.2215687 
C    -2.0237624    2.1209433   -1.8502633 
C    -3.0585434    1.9250633   -4.4534148 
C     3.9626963   -2.1780426   -0.1130645 
C    -1.4525659    2.8612891   -2.8957392 
C     5.4036367   -0.7055517    1.1690925 
C     5.1537185   -1.4435091    0.0019013 
C    -1.9682509    2.7705565   -4.1982131 
H    -1.6644335   -2.3589482    2.1916139 
H    -2.0900502    0.5639324    2.8763529 
H     2.3597928    3.1332386    3.4108386 
H     2.5733052    2.0236546    2.0359229 
H     2.6120197    1.3894453    3.7107381 
H     0.3172683    2.9204496    4.9036669 
H    -1.0336083    1.8283979    4.5082276 
H     0.5243940    1.1600485    5.0837606 
H     0.0600086    3.9826758    2.5950871 
H    -1.1922800    2.8125697    2.0993880 
H     0.3026062    2.9986541    1.1265816 
H    -2.5704619   -3.3433173   -2.8127331 
H    -1.7428591   -1.7673888   -2.7388148 
H    -3.4656942   -1.8890235   -2.2860341 
H    -3.4474138   -4.4098718   -0.6709554 
H    -3.0511307   -3.7564014    0.9389349 
H    -4.2044034   -2.8930846   -0.1241134 
H    -0.9444368   -4.5094811   -1.2158706 
H    -0.5427077   -3.7714730    0.3586721 
H     0.0374382   -3.0188239   -1.1576880 
H    -5.9798969   -0.5608395    2.1673100 
H    -0.3098881   -2.3474154    6.0999750 
H    -5.7271421    1.6745127   -1.5488774 
H     3.6737469   -2.7843438    4.4132090 
H    -7.0616146    0.8508048    0.3785675 
H     2.0467380   -3.2238747    6.2460439 
H    -4.5094726    0.5573220   -3.6055197 
H     2.0990751   -2.7483688    0.8454634 
H    -1.6417179    2.2260792   -0.8279145 
H     4.6840067   -0.1512702    3.1399269 
H    -3.4640984    1.8415880   -5.4670721 
H     3.7749066   -2.7760089   -1.0115749 
H    -0.6154786    3.5374468   -2.6934143 
H     6.3342989   -0.1370374    1.2688179 
H     5.8879378   -1.4547284   -0.8099389 
H    -1.5237935    3.3583170   -5.0077771 
