101
Energy =
C     0.9246240    1.3742839    2.5520605 
C     2.0665286    1.4514116    1.7026578 
C     2.0541162    2.2416152    0.5326320 
H     2.9336798    0.8152304    1.9196205 
Pd    0.4232870    0.5674983    0.5266152 
P     0.5798611    0.2001770   -1.8047364 
P    -1.5122489   -0.5474931    1.2407712 
H     0.2435976    2.2383048    2.5579500 
H     1.2666157    3.0065940    0.4593046 
C     0.9270172   -0.9405008    6.1814070 
C     1.5378916   -1.4560986    5.0259681 
C     1.5388620   -0.7125552    3.8417616 
C     0.9194492    0.5563900    3.7833149 
C     0.3083579    1.0606645    4.9503900 
C     0.3176243    0.3216301    6.1396245 
H     0.9265474   -1.5224958    7.1087910 
H     2.0132122   -2.4423051    5.0497715 
H     2.0123629   -1.1243437    2.9438163 
H    -0.1784950    2.0406335    4.9218612 
H    -0.1620885    0.7307899    7.0344856 
C     5.4259468    3.0012695   -2.0206147 
C     4.2867650    3.8165495   -2.0777175 
C     3.1880640    3.5383390   -1.2564935 
C     3.2009188    2.4418533   -0.3627163 
C     4.3552004    1.6238071   -0.3269199 
C     5.4535470    1.9047121   -1.1422668 
H     6.2902621    3.2169176   -2.6569479 
H     4.2586029    4.6781593   -2.7526344 
H     2.3154405    4.1990635   -1.2794441 
H     4.3945239    0.7577317    0.3398818 
H     6.3366479    1.2600475   -1.0995906 
C    -2.3298057    2.0181848   -1.5638520 
C    -2.7755877    0.6858109   -2.0779242 
C    -1.0392625    2.5354388   -1.8559528 
C    -3.1241986   -0.3860662   -1.2109797 
C    -0.0026314    1.7637606   -2.6575089 
C    -3.1042568   -0.2397198    0.2884436 
C    -3.2276322    2.8085702   -0.8143162 
C    -2.9067542    0.5059789   -3.4700619 
C    -0.7020473    3.8173873   -1.3769590 
C    -3.5528617   -1.6033276   -1.7734333 
C    -0.0888253   -1.2432540   -2.7442935 
C     2.3342311   -0.0429399   -2.3264884 
C    -2.1417662   -0.0332542    2.8961033 
C    -1.3181304   -2.3686779    1.3749077 
C    -2.8661256    4.0697911   -0.3250897 
C    -3.3403165   -0.7089294   -4.0120088 
C    -1.5915231    4.5784952   -0.6087092 
C    -3.6567807   -1.7729935   -3.1583228 
C    -0.4493140   -2.4157900   -2.0626398 
C     3.0276127   -1.0910091   -1.6838018 
C    -2.2644691   -0.9262944    3.9758716 
C    -2.4212131   -3.2423312    1.4682798 
C    -0.0350738   -1.2551340   -4.1542837 
C     2.9532952    0.6451979   -3.3850435 
C    -2.5438991    1.3113109    3.0574637 
C    -0.0141975   -2.9039791    1.4077271 
C    -0.7507761   -3.5883076   -2.7729312 
C     4.3110944   -1.4566780   -2.1056723 
C    -2.8125386   -0.4865075    5.1904691 
C    -2.2187081   -4.6249344    1.5792241 
C    -0.3487635   -2.4210480   -4.8615563 
C     4.2436629    0.2816200   -3.7985219 
C    -3.0973281    1.7413360    4.2697704 
C     0.1867712   -4.2854641    1.5255493 
C    -0.7011914   -3.5934548   -4.1719926 
C     4.9206609   -0.7717694   -3.1683994 
C    -3.2394476    0.8400246    5.3373110 
C    -0.9164394   -5.1483009    1.6076037 
H    -0.3586690    1.5061281   -3.6686658 
H     0.8977864    2.3898542   -2.7684244 
H    -3.8597920   -0.8938608    0.7555314 
H    -3.3596939    0.7868043    0.5875794 
H    -4.2401427    2.4293198   -0.6371213 
H    -2.6819111    1.3474011   -4.1344535 
H     0.2798242    4.2316597   -1.6267259 
H    -3.8118978   -2.4339942   -1.1081072 
H    -3.5856036    4.6610452    0.2507232 
H    -3.4330962   -0.8224863   -5.0964880 
H    -1.2967012    5.5711644   -0.2532821 
H    -3.9880569   -2.7318051   -3.5682510 
H    -0.4882543   -2.4213851   -0.9726189 
H     2.5463448   -1.6330002   -0.8600773 
H    -1.9277345   -1.9623165    3.8769747 
H    -3.4435867   -2.8507920    1.4663714 
H     0.2727564   -0.3613023   -4.7085683 
H     2.4412007    1.4631378   -3.9007609 
H    -2.4285036    2.0264770    2.2324336 
H     0.8417496   -2.2258320    1.3171314 
H    -1.0271248   -4.4938073   -2.2227395 
H     4.8361541   -2.2775338   -1.6060946 
H    -2.8997184   -1.1880341    6.0263685 
H    -3.0816083   -5.2954074    1.6473823 
H    -0.3068167   -2.4180849   -5.9557247 
H     4.7195478    0.8274916   -4.6195680 
H    -3.4174715    2.7825879    4.3817316 
H     1.2044259   -4.6886278    1.5463320 
H    -0.9336708   -4.5071204   -4.7289003 
H     5.9243003   -1.0554904   -3.5012700 
H    -3.6733546    1.1761201    6.2846107 
H    -0.7628664   -6.2289344    1.6940869 
