101
Energy =
C     2.1902504   -1.4948867   -1.4252787 
C     2.3844894   -1.9186233   -0.0939282 
C     1.3708037   -2.6697229    0.5783007 
H     3.2652813   -1.5816384    0.4666192 
Pd    0.5612138   -0.6774873   -0.0055406 
P     0.4898654    1.4780848   -0.9713575 
P    -1.4689483   -0.8486834    1.1346996 
H     1.3911931   -1.9961573   -1.9939144 
H     0.7319207   -3.3046256   -0.0501930 
C     4.9463318    0.6423890   -3.9323009 
C     3.7574294    0.1150410   -4.4577986 
C     2.8736055   -0.5791205   -3.6237106 
C     3.1503107   -0.7474300   -2.2459030 
C     4.3576049   -0.2162578   -1.7345831 
C     5.2441595    0.4672448   -2.5700751 
H     5.6446175    1.1794715   -4.5824348 
H     3.5260254    0.2323059   -5.5215593 
H     1.9618134   -1.0219997   -4.0404998 
H     4.6062901   -0.3346178   -0.6764977 
H     6.1735272    0.8707144   -2.1565474 
C     1.8770066   -4.0439538    4.6208462 
C     1.1837274   -4.8234049    3.6830800 
C     0.9952809   -4.3527513    2.3783603 
C     1.5098719   -3.0992817    1.9820036 
C     2.1834783   -2.3117767    2.9449190 
C     2.3681706   -2.7812781    4.2492895 
H     2.0248046   -4.4124882    5.6411566 
H     0.7851075   -5.8017880    3.9695183 
H     0.4547111   -4.9662610    1.6497454 
H     2.5510747   -1.3166505    2.6680634 
H     2.8949408   -2.1608466    4.9819892 
C    -2.2545571    0.3367331   -2.8716917 
C    -1.7106162   -1.0369561   -2.6328690 
C    -1.4273249    1.4769782   -3.0511572 
C    -1.9990872   -1.7849492   -1.4574548 
C     0.0626457    1.4510333   -2.8049207 
C    -2.6945843   -1.1566908   -0.2579343 
C    -3.6535683    0.4817732   -2.9980207 
C    -0.9809723   -1.6527267   -3.6743332 
C    -2.0301953    2.7104650   -3.3714729 
C    -1.5742497   -3.1296601   -1.3933987 
C    -0.5241182    2.8642288   -0.2997630 
C     2.1983762    2.1499215   -0.8482418 
C    -2.0691089    0.6065067    2.0733037 
C    -1.7403639   -2.1778235    2.3794158 
C    -4.2364111    1.7180945   -3.3028182 
C    -0.5513887   -2.9816888   -3.5841777 
C    -3.4172779    2.8373015   -3.5037801 
C    -0.8620260   -3.7293377   -2.4384250 
C    -1.9296678    2.7402088   -0.2465566 
C     2.8108528    2.9302004   -1.8461498 
C    -3.4396368    0.7951618    2.3419422 
C    -2.5036201   -3.3385701    2.1499209 
C     0.0728094    4.0490900    0.1795078 
C     2.8854530    1.9230092    0.3647561 
C    -1.1241978    1.5159615    2.5859953 
C    -1.1550699   -1.9827174    3.6501502 
C    -2.7194330    3.7818967    0.2508313 
C     4.0849481    3.4755771   -1.6324125 
C    -3.8558653    1.8950751    3.1028664 
C    -2.6896209   -4.2792023    3.1755467 
C    -0.7222349    5.0852747    0.6912084 
C     4.1523241    2.4800153    0.5808576 
C    -1.5436088    2.6057174    3.3600735 
C    -1.3484740   -2.9192299    4.6701272 
C    -2.1177512    4.9572459    0.7240636 
C     4.7543482    3.2588833   -0.4194712 
C    -2.9093734    2.7983963    3.6131192 
C    -2.1174335   -4.0702048    4.4366435 
H     0.5512314    0.5475108   -3.1990584 
H     0.5321797    2.3285454   -3.2762313 
H    -3.5322767   -1.7747982    0.1071156 
H    -3.1048225   -0.1677794   -0.5140376 
H    -4.2862167   -0.4042786   -2.8757272 
H    -0.7883650   -1.0777261   -4.5867593 
H    -1.3937545    3.5932520   -3.4961021 
H    -1.7937529   -3.7169478   -0.4962800 
H    -5.3236658    1.8003088   -3.4011985 
H    -0.0006217   -3.4384261   -4.4128571 
H    -3.8556431    3.8087493   -3.7528460 
H    -0.5543717   -4.7769960   -2.3595763 
H    -2.4153396    1.8268111   -0.5976231 
H     2.3069604    3.1189633   -2.7982778 
H    -4.1825100    0.0827860    1.9664077 
H    -2.9853128   -3.5154167    1.1835809 
H     1.1594967    4.1701344    0.1537327 
H     2.4157014    1.3062585    1.1418229 
H    -0.0610427    1.3749885    2.3592464 
H    -0.5572047   -1.0867021    3.8462246 
H    -3.8069914    3.6656105    0.2791635 
H     4.5555447    4.0718026   -2.4207763 
H    -4.9216594    2.0443185    3.3049107 
H    -3.2951078   -5.1715063    2.9854263 
H    -0.2439876    5.9986386    1.0601646 
H     4.6707921    2.3042572    1.5291697 
H    -0.8055420    3.3145693    3.7477072 
H    -0.8929344   -2.7506368    5.6506461 
H    -2.7352987    5.7688922    1.1224169 
H     5.7468062    3.6913970   -0.2558898 
H    -3.2394932    3.6568681    4.2070373 
H    -2.2686774   -4.8019599    5.2367197 
