101
Energy =
C     1.3844083   -2.6687520    0.5411502 
C     2.4418263   -1.8429956    0.0479827 
C     2.8315235   -0.6875877    0.7570824 
H     2.8737304   -2.0533063   -0.9382974 
Pd    0.6067162   -0.6190396    0.1370298 
P    -1.6534868   -1.1034007    0.4669392 
P     0.6172817    1.6636530   -0.4726593 
H     1.2466800   -2.6916032    1.6306537 
H     2.5033020   -0.6147830    1.8060020 
C     0.1447297   -6.2331142   -1.5188986 
C     0.1311537   -6.1769718   -0.1174019 
C     0.5045839   -5.0009455    0.5435656 
C     0.9133293   -3.8625941   -0.1845800 
C     0.8963245   -3.9240098   -1.5977158 
C     0.5193824   -5.0981973   -2.2573451 
H    -0.1461684   -7.1533886   -2.0357842 
H    -0.1753460   -7.0520595    0.4643884 
H     0.4948032   -4.9635189    1.6381123 
H     1.1671833   -3.0359726   -2.1808153 
H     0.5141552   -5.1303061   -3.3519879 
C     6.0222545    2.0269977   -0.1919665 
C     5.3367524    2.1221278    1.0282092 
C     4.3001727    1.2273914    1.3174880 
C     3.9161674    0.2302099    0.3893286 
C     4.6227705    0.1442077   -0.8331790 
C     5.6646224    1.0306471   -1.1163448 
H     6.8392591    2.7194066   -0.4195623 
H     5.6205494    2.8842610    1.7613340 
H     3.7874957    1.2785255    2.2848907 
H     4.3570416   -0.6185881   -1.5701239 
H     6.2006524    0.9479421   -2.0668322 
C    -0.0451788    1.0252433    3.1418087 
C    -0.6469197    2.3378389    2.7486749 
C    -0.7178471   -0.2150580    2.9586893 
C    -0.0528736    3.2096691    1.7981989 
C    -1.9978174   -0.3198454    2.1413924 
C     1.1207325    2.8028770    0.9389531 
C     1.1883620    1.0398522    3.8304817 
C    -1.8198752    2.7534288    3.4163688 
C    -0.1426445   -1.3809455    3.5087962 
C    -0.6428079    4.4695399    1.5696695 
C    -2.8718139   -0.4160536   -0.7168198 
C    -2.2410675   -2.8450869    0.5694240 
C    -0.8220512    2.5218761   -1.2421462 
C     1.9141573    1.8387779   -1.7658791 
C     1.7531812   -0.1302731    4.3507571 
C    -2.4003227    4.0030146    3.1664764 
C     1.0743985   -1.3486322    4.1992634 
C    -1.7996133    4.8721357    2.2458140 
C    -4.2161011   -0.2037698   -0.3512154 
C    -2.3776082   -3.5402579   -0.6526391 
C    -2.0382517    2.6200976   -0.5315121 
C     2.7826663    2.9413006   -1.8658284 
C    -2.4570954   -0.1580900   -2.0375106 
C    -2.5801383   -3.4996664    1.7690580 
C    -0.7440003    3.0762572   -2.5368936 
C     1.9684577    0.8295937   -2.7527274 
C    -5.1280562    0.2792023   -1.2983679 
C    -2.8599203   -4.8524396   -0.6706744 
C    -3.1401902    3.2754187   -1.0904964 
C     3.6852001    3.0336884   -2.9352096 
C    -3.3759941    0.3099258   -2.9857295 
C    -3.0589366   -4.8192514    1.7461249 
C    -1.8562114    3.7198705   -3.0993929 
C     2.8617400    0.9309546   -3.8268470 
C    -4.7095017    0.5342327   -2.6144446 
C    -3.2039191   -5.4958940    0.5285474 
C    -3.0534912    3.8252250   -2.3780075 
C     3.7222335    2.0358949   -3.9197702 
H    -2.7826144   -0.8874953    2.6694914 
H    -2.4075636    0.6779378    1.9211277 
H     1.8925036    2.2479005    1.4930531 
H     1.5884209    3.6989208    0.5020331 
H     1.6850384    2.0031522    3.9902537 
H    -2.2643285    2.0848104    4.1618750 
H    -0.6532463   -2.3404928    3.3800254 
H    -0.1929400    5.1370655    0.8266870 
H     2.7034553   -0.0875731    4.8927199 
H    -3.3061672    4.3020890    3.7036258 
H     1.4890516   -2.2705653    4.6193906 
H    -2.2341189    5.8567165    2.0464804 
H    -4.5553829   -0.4207074    0.6676464 
H    -2.1211658   -3.0464796   -1.5956196 
H    -2.1287725    2.1865262    0.4670897 
H     2.7695804    3.7355626   -1.1140235 
H    -1.4066291   -0.3086511   -2.3120699 
H    -2.5024397   -2.9873863    2.7326236 
H     0.1844738    3.0106205   -3.1112304 
H     1.2999973   -0.0373428   -2.6730621 
H    -6.1709033    0.4498785   -1.0114666 
H    -2.9623735   -5.3762984   -1.6259013 
H    -4.0714333    3.3432807   -0.5201686 
H     4.3632312    3.8910267   -2.9959742 
H    -3.0456708    0.5181445   -4.0079781 
H    -3.3291635   -5.3111863    2.6862899 
H    -1.7801806    4.1451794   -4.1055738 
H     2.8881682    0.1461491   -4.5900163 
H    -5.4260711    0.9114409   -3.3513298 
H    -3.5833712   -6.5226356    0.5123039 
H    -3.9190807    4.3296475   -2.8197758 
H     4.4249648    2.1158780   -4.7555759 
