101
Energy =
C     0.8905927    0.9985177    2.7338247 
C     2.0425989    1.1943894    1.9181869 
C     2.0426547    2.1416637    0.8710002 
H     2.9084366    0.5343865    2.0543250 
Pd    0.4165948    0.4869578    0.6066161 
P     0.6029163    0.4565230   -1.7512978 
P    -1.5263459   -0.7192106    1.1304230 
H     0.2076349    1.8527730    2.8522950 
H     1.2549739    2.9095658    0.8970632 
C     0.8502763   -1.8057644    5.9994923 
C     1.4789865   -2.1519944    4.7916222 
C     1.4938432   -1.2485950    3.7245114 
C     0.8709243    0.0149704    3.8370051 
C     0.2418049    0.3483942    5.0547878 
C     0.2371145   -0.5512961    6.1276800 
H     0.8388951   -2.5129814    6.8352494 
H     1.9572987   -3.1310036    4.6826698 
H     1.9810807   -1.5286248    2.7841781 
H    -0.2480315    1.3217704    5.1578817 
H    -0.2564675   -0.2734426    7.0644093 
C     5.4465539    3.2576075   -1.5021059 
C     4.3081474    4.0745547   -1.4545152 
C     3.1988245    3.6816839   -0.6968624 
C     3.2004553    2.4670637    0.0281581 
C     4.3539727    1.6501779   -0.0409577 
C     5.4627163    2.0446757   -0.7927269 
H     6.3189578    3.5619175   -2.0892224 
H     4.2885948    5.0252397   -1.9971653 
H     2.3263070    4.3401025   -0.6348128 
H     4.3843445    0.6961009    0.4928297 
H     6.3451480    1.3989310   -0.8332622 
C    -2.3163213    2.2180482   -1.2895980 
C    -2.7526262    0.9727631   -1.9944936 
C    -1.0237162    2.7725195   -1.4898236 
C    -3.1081492   -0.2127143   -1.2943259 
C     0.0235313    2.1237913   -2.3813182 
C    -3.1073642   -0.2823654    0.2107922 
C    -3.2236418    2.8917437   -0.4437310 
C    -2.8657717    0.9937010   -3.3996439 
C    -0.6941176    3.9721958   -0.8273232 
C    -3.5254130   -1.3376839   -2.0305706 
C    -0.0509773   -0.8416026   -2.8918803 
C     2.3629680    0.2935139   -2.2850807 
C    -2.1783691   -0.4444892    2.8335975 
C    -1.3294128   -2.5410798    1.0091708 
C    -2.8694831    4.0688133    0.2269859 
C    -3.2878285   -0.1320664   -4.1153373 
C    -1.5930310    4.6136671    0.0335305 
C    -3.6110967   -1.3078633   -3.4267163 
C    -0.4164145   -2.0981624   -2.3849606 
C     3.0519854   -0.8376911   -1.7971209 
C    -2.5853578    0.8635898    3.1784597 
C    -0.0247334   -3.0750625    0.9864397 
C     0.0201889   -0.6565148   -4.2889365 
C     2.9911509    1.1304269   -3.2242953 
C    -2.3132672   -1.4814509    3.7743425 
C    -2.4314074   -3.4196641    0.9605984 
C    -0.7054222   -3.1606363   -3.2554785 
C     4.3401536   -1.1365625   -2.2556419 
C    -3.1553011    1.1174744    4.4321160 
C     0.1780853   -4.4592169    0.9103905 
C    -0.2815178   -1.7127590   -5.1557236 
C     4.2860466    0.8321501   -3.6741693 
C    -2.8781483   -1.2183354    5.0316110 
C    -2.2269721   -4.8038940    0.8770904 
C    -0.6386957   -2.9704314   -4.6408746 
C     4.9587095   -0.3024021   -3.1998350 
C    -3.3096248    0.0739515    5.3592301 
C    -0.9239395   -5.3254533    0.8514332 
H    -0.3212482    2.0102766   -3.4224449 
H     0.9225437    2.7616861   -2.3938226 
H    -3.8660380   -0.9981414    0.5697607 
H    -3.3713149    0.6902294    0.6502006 
H    -4.2374488    2.4909026   -0.3344215 
H    -2.6354494    1.9218107   -3.9339952 
H     0.2895714    4.4185976   -1.0041307 
H    -3.7898626   -2.2553760   -1.4942306 
H    -3.5960388    4.5701948    0.8746802 
H    -3.3662665   -0.0897763   -5.2060428 
H    -1.3039010    5.5446329    0.5319085 
H    -3.9332695   -2.1989179   -3.9738549 
H    -0.4685170   -2.2555380   -1.3069397 
H     2.5638705   -1.4955140   -1.0671862 
H    -2.4609204    1.6883113    2.4644466 
H     0.8306942   -2.3905888    1.0066027 
H     0.3328123    0.3061397   -4.7087853 
H     2.4828643    2.0154230   -3.6185750 
H    -1.9732124   -2.4929684    3.5340518 
H    -3.4545831   -3.0322861    0.9985448 
H    -0.9855301   -4.1344650   -2.8405025 
H     4.8619334   -2.0218381   -1.8772913 
H    -3.4786921    2.1323799    4.6863718 
H     1.1963625   -4.8608595    0.8904063 
H    -0.2261960   -1.5573359   -6.2382102 
H     4.7687875    1.4932778   -4.4011219 
H    -2.9749830   -2.0312373    5.7583959 
H    -3.0890636   -5.4775786    0.8353689 
H    -0.8615133   -3.7977753   -5.3226557 
H     5.9657805   -0.5339713   -3.5614698 
H    -3.7568291    0.2723585    6.3386456 
H    -0.7688444   -6.4073550    0.7861067 
