101
Energy =
C     1.8342557   -2.2582911    1.3968755 
C     2.3554261   -1.9315888    0.1310692 
C     2.9427223   -0.6570640   -0.1262686 
H     2.2367800   -2.6341356   -0.7037210 
Pd    0.7818519   -0.3873996    0.3336413 
P     0.6961617    1.7127813   -0.6954336 
P    -1.4526293   -0.7424180    1.0871768 
H     2.1164303   -1.6062026    2.2372298 
H     3.3712247   -0.1181325    0.7321885 
C     0.4137811   -6.1161103    2.6537344 
C     0.5951773   -5.8573962    1.2839756 
C     1.0478682   -4.6063292    0.8567022 
C     1.3174310   -3.5753710    1.7883159 
C     1.1564348   -3.8623781    3.1629225 
C     0.7077115   -5.1160938    3.5915871 
H     0.0618847   -7.0982723    2.9857107 
H     0.3940698   -6.6423008    0.5471506 
H     1.2083978   -4.4314517   -0.2096128 
H     1.3942394   -3.0909972    3.9009290 
H     0.5892904   -5.3121267    4.6618506 
C     4.7735279    0.2051242   -3.9230957 
C     3.5217006   -0.4318227   -3.8779791 
C     2.9181345   -0.7059920   -2.6462063 
C     3.5484282   -0.3388399   -1.4367227 
C     4.7990971    0.3095971   -1.4938506 
C     5.4094037    0.5704228   -2.7273195 
H     5.2489853    0.4171445   -4.8863240 
H     3.0155292   -0.7175566   -4.8066398 
H     1.9395778   -1.1962860   -2.6140815 
H     5.2930368    0.6137965   -0.5652640 
H     6.3820646    1.0720786   -2.7541402 
C    -2.0763156    0.1948847   -2.6482442 
C    -1.3233627   -1.0947499   -2.5482596 
C    -1.4645600    1.4764620   -2.6302093 
C    -1.5305325   -2.0027571   -1.4729476 
C     0.0216051    1.6902925   -2.4467692 
C    -2.3875440   -1.6531243   -0.2746237 
C    -3.4747062    0.1085711   -2.8355830 
C    -0.5009666   -1.4870691   -3.6248006 
C    -2.2816289    2.6148733   -2.8098033 
C    -0.9171475   -3.2682448   -1.5250528 
C     2.3312408    2.5479290   -0.9001116 
C    -0.1806408    3.0148329    0.2591795 
C    -2.6414646    0.6097694    1.5309641 
C    -1.5001289   -1.7664910    2.6137625 
C    -4.2703870    1.2486368   -2.9855369 
C     0.1130492   -2.7460502   -3.6544086 
C    -3.6662256    2.5133116   -2.9777392 
C    -0.1001275   -3.6434220   -2.5992114 
C     3.0343285    2.8582213    0.2844493 
C    -0.5422682    4.2454303   -0.3240035 
C    -3.0308491    1.5120370    0.5196736 
C    -0.7868856   -1.2528184    3.7200643 
C     2.8810719    2.9174100   -2.1409134 
C    -0.3912824    2.8167290    1.6373632 
C    -3.1519156    0.7873254    2.8329093 
C    -2.2691573   -2.9314726    2.7793767 
C     4.2545355    3.5404634    0.2275712 
C    -1.1525287    5.2385914    0.4523980 
C    -3.9038048    2.5683417    0.7990840 
C    -0.8860285   -1.8618128    4.9773511 
C     4.1024115    3.6073434   -2.1923138 
C    -0.9842271    3.8181042    2.4167640 
C    -4.0224081    1.8523109    3.1108543 
C    -2.3413834   -3.5580616    4.0327198 
C     4.7888730    3.9240135   -1.0137523 
C    -1.3792838    5.0241000    1.8212377 
C    -4.3984677    2.7467262    2.0994336 
C    -1.6677686   -3.0165887    5.1362090 
H     0.6191274    0.9035181   -2.9380484 
H     0.3050951    2.6524911   -2.9038535 
H    -2.8257193   -2.5633512    0.1642176 
H    -3.2222533   -0.9888903   -0.5427425 
H    -3.9351651   -0.8844108   -2.8793689 
H    -0.3734304   -0.7994520   -4.4680918 
H    -1.8164987    3.6046868   -2.8243813 
H    -1.0983239   -3.9738428   -0.7077593 
H    -5.3510383    1.1483240   -3.1274241 
H     0.7375779   -3.0306476   -4.5073201 
H    -4.2675570    3.4178368   -3.1139579 
H     0.3512924   -4.6410754   -2.6230916 
H     2.6125016    2.5795725    1.2576113 
H    -0.3274090    4.4438296   -1.3786218 
H    -2.6401865    1.4028207   -0.4938421 
H    -0.1658628   -0.3566480    3.5961239 
H     2.3872798    2.6564122   -3.0804436 
H    -0.0996429    1.8645620    2.0950511 
H    -2.8853731    0.0962265    3.6366142 
H    -2.8262178   -3.3608318    1.9412765 
H     4.7857254    3.7821718    1.1540833 
H    -1.4399174    6.1886851   -0.0098206 
H    -4.1823826    3.2573802   -0.0039929 
H    -0.3452920   -1.4398726    5.8309446 
H     4.5209244    3.8845477   -3.1650952 
H    -1.1544184    3.6471171    3.4840074 
H    -4.4130665    1.9742259    4.1265785 
H    -2.9363437   -4.4700000    4.1453343 
H     5.7403082    4.4637101   -1.0591904 
H    -1.8567172    5.8027448    2.4249214 
H    -5.0760527    3.5772141    2.3228981 
H    -1.7420767   -3.4994915    6.1159019 
