101
Energy =
C     0.9256715    0.4965628    2.8581691 
C     2.0804763    0.7947552    2.0787125 
C     2.1043316    1.9048669    1.2059854 
H     2.9275375    0.0976981    2.0951841 
Pd    0.4324644    0.3656853    0.6770653 
P     0.6092659    0.7309405   -1.6526231 
P    -1.5403797   -0.8610888    1.0004477 
H     0.2669416    1.3373732    3.1216686 
H     1.3393373    2.6789913    1.3684657 
C     0.8068347   -2.8107864    5.6107683 
C     0.2256276   -1.5798809    5.9471567 
C     0.2560093   -0.5146628    5.0389728 
C     0.8790433   -0.6566182    3.7813442 
C     1.4699162   -1.8993540    3.4589937 
C     1.4294194   -2.9670405    4.3609435 
H     0.7754871   -3.6466340    6.3172550 
H    -0.2628150   -1.4491665    6.9180553 
H    -0.2086430    0.4403291    5.3038214 
H     1.9528685   -2.0318483    2.4846633 
H     1.8830041   -3.9260872    4.0897006 
C     5.5321398    3.3144555   -0.9682592 
C     5.5154519    1.9981446   -0.4765551 
C     4.3979685    1.5119532    0.2053951 
C     3.2685106    2.3367374    0.4215856 
C     3.2993802    3.6567568   -0.0861268 
C     4.4175567    4.1424346   -0.7738030 
H     6.4115671    3.6904599   -1.5008553 
H     6.3789206    1.3446110   -0.6334921 
H     4.4023993    0.4802955    0.5684228 
H     2.4460627    4.3188251    0.0935329 
H     4.4238310    5.1720568   -1.1459751 
C    -2.2624220    2.4633032   -0.8765744 
C    -2.7334693    1.3696519   -1.7823148 
C    -0.9551703    3.0084783   -0.9871737 
C    -3.1136178    0.0891705   -1.2947926 
C     0.0711616    2.4949456   -1.9847590 
C    -3.1115974   -0.2381546    0.1759982 
C    -3.1489249    3.0055909    0.0786718 
C    -2.8522256    1.6362423   -3.1616310 
C    -0.5904964    4.0663738   -0.1301148 
C    -3.5580940   -0.8825741   -2.2113405 
C    -0.0833428   -0.3395324   -2.9896961 
C     2.3615880    0.6170301   -2.2232672 
C    -2.1837160   -0.8587202    2.7288687 
C    -1.3876498   -2.6410882    0.5748819 
C    -2.7605319    4.0396190    0.9394362 
C    -3.3028997    0.6608208   -4.0577334 
C    -1.4694876    4.5744297    0.8342536 
C    -3.6486349   -0.6096501   -3.5805109 
C    -0.0216113    0.0796529   -4.3354923 
C     3.0072822    1.5867191   -3.0105103 
C    -2.5531918    0.3838954    3.2899563 
C    -0.0956871   -3.1942367    0.4615730 
C    -0.4687557   -1.6574828   -2.6996143 
C     3.0222797   -0.5985391   -1.9434952 
C    -2.3490691   -2.0347127    3.4824588 
C    -2.5097195   -3.4727097    0.3800215 
C    -0.3518522   -0.8080335   -5.3656921 
C     4.2915351    1.3374119   -3.5171194 
C    -3.1166026    0.4397026    4.5706593 
C     0.0751074   -4.5502123    0.1536267 
C    -0.7869930   -2.5506045   -3.7345031 
C     4.2998101   -0.8466883   -2.4584397 
C    -2.9072311   -1.9705374    4.7683145 
C    -2.3372845   -4.8277190    0.0648723 
C    -0.7290608   -2.1283447   -5.0681050 
C     4.9359428    0.1214816   -3.2508524 
C    -3.3015094   -0.7398689    5.3100056 
C    -1.0466676   -5.3680401   -0.0491163 
H    -0.2804873    2.5695119   -3.0270396 
H     0.9868014    3.1024317   -1.8956370 
H    -3.8860182   -0.9877943    0.4108410 
H    -3.3527868    0.6502120    0.7770676 
H    -4.1731160    2.6192838    0.1245086 
H    -2.6027697    2.6376535   -3.5290105 
H     0.4051106    4.5094991   -0.2338155 
H    -3.8406969   -1.8734376   -1.8398151 
H    -3.4713960    4.4415673    1.6687485 
H    -3.3856605    0.8931076   -5.1239395 
H    -1.1532935    5.3971729    1.4836642 
H    -3.9923864   -1.3855800   -4.2711035 
H     0.3054261    1.0942140   -4.5893062 
H     2.5205874    2.5387695   -3.2421967 
H    -2.4043866    1.3127181    2.7237560 
H     0.7751909   -2.5429879    0.5960118 
H    -0.5136301   -1.9956065   -1.6635814 
H     2.5198841   -1.3596545   -1.3335300 
H    -2.0380378   -3.0008302    3.0743183 
H    -3.5238102   -3.0732933    0.4827686 
H    -0.3036002   -0.4712352   -6.4064577 
H     4.7880350    2.1009850   -4.1245714 
H    -3.4108050    1.4062132    4.9931721 
H     1.0838018   -4.9665286    0.0654225 
H    -1.0824806   -3.5757486   -3.4879425 
H     4.7995361   -1.7968949   -2.2428935 
H    -3.0283207   -2.8908461    5.3486664 
H    -3.2146715   -5.4643740   -0.0888576 
H    -0.9741824   -2.8234165   -5.8778885 
H     5.9348283   -0.0699235   -3.6560633 
H    -3.7433198   -0.6960996    6.3107772 
H    -0.9167230   -6.4269244   -0.2954428 
