101
Energy =
C     2.0585108   -2.1340530    1.3333435 
C     2.4346580   -1.9457451   -0.0176643 
C     2.9970778   -0.7171489   -0.4569741 
H     2.1758086   -2.7123313   -0.7579885 
Pd    0.8972381   -0.4073285    0.3479507 
P     0.6385449    1.6709942   -0.7839237 
P    -1.2036875   -0.7072053    1.3360057 
H     2.4879707   -1.4393458    2.0712301 
H     3.5225958   -0.1085221    0.2918750 
C     0.6799120   -5.7968361    3.1081082 
C     0.7762726   -5.6993593    1.7100289 
C     1.2033257   -4.5090688    1.1148576 
C     1.5385944   -3.3836582    1.9045266 
C     1.4315367   -3.4976454    3.3097611 
C     1.0117502   -4.6916362    3.9049322 
H     0.3530150   -6.7325261    3.5729813 
H     0.5305883   -6.5622462    1.0820533 
H     1.2971525   -4.4596059    0.0271536 
H     1.6925490   -2.6395340    3.9380578 
H     0.9407926   -4.7588811    4.9947598 
C     4.0927304    0.1510285   -4.5266980 
C     3.1455770   -0.8518005   -4.2573981 
C     2.7854561   -1.1436157   -2.9385237 
C     3.3629210   -0.4381646   -1.8562993 
C     4.3175326    0.5634971   -2.1415802 
C     4.6785382    0.8536300   -3.4630027 
H     4.3744354    0.3791655   -5.5598167 
H     2.6823281   -1.4060563   -5.0807194 
H     2.0293705   -1.9100216   -2.7468032 
H     4.7756647    1.1200518   -1.3170190 
H     5.4203361    1.6340895   -3.6617656 
C    -1.9527590    0.2047080   -2.7851900 
C    -1.3707485   -1.1403471   -2.4783026 
C    -1.1487188    1.3606478   -2.9666986 
C    -1.5802156   -1.8206546   -1.2483687 
C     0.3218595    1.3884599   -2.6251071 
C    -2.3326284   -1.1772748   -0.0937795 
C    -3.3455420    0.2998309   -2.9931786 
C    -0.6680118   -1.7923092   -3.5147464 
C    -1.7647734    2.5574374   -3.3861141 
C    -1.0654872   -3.1263097   -1.1074868 
C    -0.5680547    2.9800451   -0.2909950 
C     2.2323475    2.5872568   -0.6638059 
C    -1.9675606    0.7576496    2.1361498 
C    -1.5072972   -1.9547192    2.6638421 
C    -3.9434584    1.5027819   -3.3902089 
C    -0.1845063   -3.0966041   -3.3642982 
C    -3.1444644    2.6340145   -3.6051974 
C    -0.3848386   -3.7665502   -2.1495905 
C    -1.9535410    2.7091362   -0.3056391 
C     2.9183904    2.5369748    0.5685678 
C    -3.3603333    0.8347398    2.3383446 
C    -1.1909312   -1.5775141    3.9888194 
C    -0.1333446    4.2562968    0.1258552 
C     2.7526226    3.3824324   -1.7021531 
C    -1.1350551    1.7841060    2.6209186 
C    -2.0773612   -3.2218281    2.4373404 
C    -2.8789920    3.6907635    0.0622978 
C     4.1078054    3.2538858    0.7536860 
C    -3.9100237    1.9397872    3.0000709 
C    -1.4700498   -2.4345715    5.0591231 
C    -1.0640589    5.2345913    0.5053363 
C     3.9462964    4.0956089   -1.5181597 
C    -1.6869960    2.8811786    3.2956509 
C    -2.3448470   -4.0826351    3.5119285 
C    -2.4374107    4.9575386    0.4709467 
C     4.6277206    4.0308010   -0.2941403 
C    -3.0746171    2.9618390    3.4795638 
C    -2.0523370   -3.6893789    4.8242175 
H     0.8421332    0.4474462   -2.8657249 
H     0.8204250    2.1996482   -3.1778511 
H    -3.1380432   -1.8321875    0.2808235 
H    -2.8034044   -0.2349055   -0.4144910 
H    -3.9587616   -0.5986409   -2.8632636 
H    -0.5282349   -1.2631960   -4.4633115 
H    -1.1472702    3.4525978   -3.5184054 
H    -1.1985522   -3.6576974   -0.1608767 
H    -5.0254495    1.5485142   -3.5509531 
H     0.3365003   -3.5884598   -4.1921876 
H    -3.5943687    3.5775583   -3.9295789 
H    -0.0245743   -4.7921747   -2.0171276 
H    -2.3191637    1.7274748   -0.6132621 
H     2.5133045    1.9285209    1.3870265 
H    -4.0168274    0.0305163    1.9884962 
H    -0.7522152   -0.5937576    4.1881862 
H     0.9328613    4.4961440    0.1546769 
H     2.2393846    3.4502290   -2.6656819 
H    -0.0534686    1.7281537    2.4510607 
H    -2.3417255   -3.5479215    1.4278643 
H    -3.9475496    3.4572682    0.0366277 
H     4.6297716    3.2054580    1.7148902 
H    -4.9930920    2.0007937    3.1492492 
H    -1.2359234   -2.1180619    6.0808461 
H    -0.7083358    6.2198058    0.8244658 
H     4.3454915    4.7012833   -2.3381869 
H    -1.0349117    3.6809295    3.6598710 
H    -2.7914893   -5.0627696    3.3167566 
H    -3.1613579    5.7240305    0.7662642 
H     5.5606505    4.5865151   -0.1548304 
H    -3.5084221    3.8240000    3.9964112 
H    -2.2745564   -4.3590508    5.6612685 
