101
Energy =
C     2.2140045   -1.3796856   -1.4965453 
C     2.4272409   -1.8564314   -0.1860598 
C     1.4361254   -2.6589366    0.4587686 
H     3.3048788   -1.5250425    0.3826318 
Pd    0.5770787   -0.6599099   -0.0351612 
P    -1.4375664   -0.9223320    1.1151254 
P     0.4461686    1.5276801   -0.9164346 
H     1.4232179   -1.8746951   -2.0820451 
H     0.8044883   -3.2767026   -0.1936940 
C     4.9109357    0.9169170   -3.9258193 
C     3.7334319    0.3816648   -4.4686726 
C     2.8683472   -0.3639025   -3.6596829 
C     3.1529862   -0.5779001   -2.2898997 
C     4.3485253   -0.0375607   -1.7610375 
C     5.2164286    0.6977902   -2.5716864 
H     5.5943912    1.4948480   -4.5563832 
H     3.4969938    0.5323872   -5.5270912 
H     1.9656156   -0.8113180   -4.0911678 
H     4.6023125   -0.1891145   -0.7084187 
H     6.1367514    1.1078942   -2.1446920 
C     2.0037875   -4.2136936    4.4265728 
C     2.4755266   -2.9289256    4.1097236 
C     2.2700292   -2.4006401    2.8312394 
C     1.5947505   -3.1501883    1.8396341 
C     1.0992457   -4.4270286    2.1822283 
C     1.3084031   -4.9563487    3.4609394 
H     2.1683834   -4.6283631    5.4263907 
H     3.0033348   -2.3372533    4.8650994 
H     2.6229560   -1.3892107    2.5980136 
H     0.5577488   -5.0121703    1.4313427 
H     0.9236764   -5.9514936    3.7055612 
C    -1.7043170   -0.9808423   -2.6519831 
C    -2.2811032    0.3876633   -2.8381660 
C    -1.9694704   -1.7782396   -1.5037060 
C    -1.4824643    1.5528260   -2.9841325 
C    -2.6687248   -1.2098963   -0.2770335 
C     0.0092736    1.5550771   -2.7478274 
C    -0.9666365   -1.5411968   -3.7187712 
C    -3.6841368    0.5039416   -2.9495719 
C    -1.5178096   -3.1155872   -1.4928738 
C    -2.1166687    2.7818829   -3.2574376 
C    -2.0652564    0.4831671    2.1099305 
C    -1.6646243   -2.3008355    2.3135934 
C     2.1376102    2.2378425   -0.7769043 
C    -0.5988561    2.8627202   -0.1908920 
C    -0.5086724   -2.8631947   -3.6805059 
C    -4.2983270    1.7358767   -3.2067648 
C    -0.7989165   -3.6603563   -2.5631381 
C    -3.5073498    2.8804451   -3.3749933 
C    -1.1389888    1.3973218    2.6477206 
C    -1.0630793   -2.1407428    3.5815999 
C     2.8374722    1.9833357    0.4232064 
C    -2.0002856    2.7001221   -0.1333347 
C    -3.4379088    0.6287008    2.3942707 
C    -2.4114814   -3.4657743    2.0538366 
C     2.7236842    3.0706767   -1.7478132 
C    -0.0297180    4.0460317    0.3245764 
C    -1.5790719    2.4498015    3.4609210 
C    -1.2235492   -3.1168835    4.5695845 
C     4.0909745    2.5643788    0.6535373 
C    -2.8135163    3.7035779    0.4032038 
C    -3.8751306    1.6916499    3.1949003 
C    -2.5655920   -4.4454414    3.0477069 
C     3.9843677    3.6408794   -1.5199810 
C    -0.8480084    5.0434712    0.8751576 
C    -2.9471853    2.6002875    3.7292337 
C    -1.9771140   -4.2717020    4.3066163 
C     4.6663693    3.3961884   -0.3194562 
C    -2.2394727    4.8779359    0.9118554 
H    -3.1044659   -0.2224818   -0.4937987 
H    -3.4882289   -1.8603811    0.0725252 
H     0.4540599    2.4600073   -3.1904084 
H     0.5176819    0.6784135   -3.1760676 
H    -0.7908294   -0.9284654   -4.6097597 
H    -4.2948994   -0.4005703   -2.8540018 
H    -1.7208433   -3.7407908   -0.6176917 
H    -1.5020858    3.6832272   -3.3565412 
H     0.0483019   -3.2762909   -4.5277079 
H    -5.3879949    1.7956601   -3.2939277 
H    -0.4692769   -4.7036109   -2.5255134 
H    -3.9702841    3.8492075   -3.5873335 
H    -0.0743253    1.2902418    2.4097421 
H    -0.4804287   -1.2402424    3.8016883 
H     2.3883775    1.3259930    1.1788957 
H    -2.4642977    1.7867032   -0.5123438 
H    -4.1661471   -0.0882890    1.9993280 
H    -2.9041750   -3.6168800    1.0886354 
H     2.2094034    3.2815399   -2.6897024 
H     1.0533267    4.1960052    0.2971705 
H    -0.8556012    3.1630516    3.8675366 
H    -0.7529720   -2.9770896    5.5475068 
H     4.6201175    2.3657655    1.5913760 
H    -3.8974953    3.5581070    0.4336400 
H    -4.9426846    1.8075063    3.4092174 
H    -3.1591709   -5.3406209    2.8349327 
H     4.4342175    4.2790233   -2.2873418 
H    -0.3912153    5.9562205    1.2717485 
H    -3.2936556    3.4294501    4.3546322 
H    -2.1036391   -5.0338988    5.0821710 
H     5.6479021    3.8486089   -0.1442842 
H    -2.8751857    5.6594371    1.3407334 
