101
Energy =
C     0.1759955    0.7128562    2.9177789 
C     1.5205914    0.8541561    2.5151267 
C     1.8824344    1.8431764    1.5488379 
H     2.2752870    0.1368565    2.8603627 
Pd    0.4397073    0.4039255    0.6431257 
P     0.5960409    1.1840318   -1.5520219 
P    -1.0641304   -1.4121514    0.4940186 
H    -0.5014888    1.5504418    2.6880753 
H     1.2594746    2.7473410    1.5157760 
C    -1.4118627   -1.9660418    5.8761730 
C    -2.2134752   -0.9633260    5.3108329 
C    -1.6762542   -0.1003542    4.3488956 
C    -0.3337424   -0.2303941    3.9200250 
C     0.4624729   -1.2419391    4.5064497 
C    -0.0714486   -2.0958081    5.4743972 
H    -1.8253852   -2.6388534    6.6344992 
H    -3.2536395   -0.8440031    5.6312061 
H    -2.2914309    0.7056977    3.9327592 
H     1.5059951   -1.3652649    4.2043723 
H     0.5600444   -2.8721927    5.9171747 
C     5.9541019    2.4052836    0.2875845 
C     5.4789745    1.1083517    0.5444682 
C     4.1482079    0.9105164    0.9263737 
C     3.2661243    2.0074071    1.0670899 
C     3.7496476    3.3014960    0.7755527 
C     5.0823920    3.4988794    0.3959189 
H     6.9973538    2.5598838   -0.0063845 
H     6.1500454    0.2489003    0.4431235 
H     3.7797413   -0.1064534    1.1052096 
H     3.0744218    4.1594358    0.8629698 
H     5.4406964    4.5104171    0.1801741 
C    -2.6558621    1.9533277    0.2101730 
C    -3.5095600    0.9367750   -0.4811811 
C    -1.5532553    2.5912920   -0.4236695 
C    -3.6545108   -0.3979198   -0.0184281 
C    -1.0202362    2.1204791   -1.7694492 
C    -2.7990084   -0.9778696    1.0827036 
C    -3.0411997    2.3762742    1.5020158 
C    -4.2612766    1.3563075   -1.6006962 
C    -0.9104054    3.6524143    0.2497255 
C    -4.5607501   -1.2518786   -0.6794434 
C     1.9435770    2.3351973   -2.0498061 
C     0.6968364   -0.0446698   -2.9079886 
C    -0.4314545   -2.6958170    1.6502046 
C    -1.3491822   -2.3812765   -1.0486681 
C    -2.3777693    3.4167512    2.1626746 
C    -5.1467128    0.4900335   -2.2537791 
C    -1.3116299    4.0683548    1.5245341 
C    -5.3068126   -0.8195197   -1.7812009 
C     1.7728996    3.7176725   -2.2548373 
C     0.2802741    0.2675318   -4.2175518 
C    -1.2551195   -3.5084772    2.4508377 
C    -1.8674225   -1.7365228   -2.1930198 
C     3.2178901    1.7632752   -2.2604828 
C     1.2617893   -1.3054617   -2.6358264 
C     0.9640207   -2.9139785    1.6568678 
C    -1.0495574   -3.7578114   -1.1206246 
C     2.8523539    4.5106354   -2.6757670 
C     0.4132035   -0.6839912   -5.2368828 
C    -0.6929173   -4.5220155    3.2401975 
C    -2.1021073   -2.4533314   -3.3708228 
C     4.2883815    2.5562367   -2.6847458 
C     1.4080583   -2.2481959   -3.6617755 
C     1.5215476   -3.9353709    2.4364892 
C    -1.2739072   -4.4698137   -2.3081973 
C     4.1087273    3.9323665   -2.8959592 
C     0.9779312   -1.9397034   -4.9603188 
C     0.6917720   -4.7428796    3.2296310 
C    -1.8038534   -3.8224818   -3.4329068 
H    -1.7136622    1.4066725   -2.2400849 
H    -0.8799886    2.9559725   -2.4760855 
H    -3.2659862   -1.8966892    1.4701471 
H    -2.6500547   -0.2865827    1.9254725 
H    -3.9077800    1.8972415    1.9707456 
H    -4.1590430    2.3919183   -1.9433420 
H    -0.0645451    4.1549185   -0.2300108 
H    -4.6624620   -2.2856541   -0.3318046 
H    -2.7067524    3.7336584    3.1576169 
H    -5.7223256    0.8441487   -3.1150672 
H    -0.7954030    4.8992207    2.0160629 
H    -6.0029223   -1.5062083   -2.2729848 
H     0.7968921    4.1922319   -2.1162799 
H    -0.1407248    1.2527596   -4.4464413 
H    -2.3386464   -3.3609282    2.4714423 
H    -2.0945955   -0.6683801   -2.1673910 
H     3.3686986    0.6896407   -2.1074022 
H     1.5681294   -1.5499456   -1.6120545 
H     1.6112176   -2.2763341    1.0410642 
H    -0.6420917   -4.2809830   -0.2509125 
H     2.7016544    5.5824823   -2.8414092 
H     0.0814778   -0.4430650   -6.2522102 
H    -1.3432510   -5.1405065    3.8670930 
H    -2.5069290   -1.9338397   -4.2445305 
H     5.2687819    2.0976283   -2.8454170 
H     1.8390162   -3.2297973   -3.4421862 
H     2.6042421   -4.0989847    2.4274872 
H    -1.0375455   -5.5382986   -2.3480622 
H     4.9474073    4.5512716   -3.2306105 
H     1.0799875   -2.6801116   -5.7603495 
H     1.1247802   -5.5397058    3.8431334 
H    -1.9792208   -4.3819616   -4.3575990 
