101
Energy =
C     2.1925871   -1.4835173   -1.4315689 
C     2.3890034   -1.9127465   -0.1022096 
C     1.3781329   -2.6693831    0.5672784 
H     3.2701116   -1.5769815    0.4584988 
Pd    0.5629421   -0.6747677   -0.0084232 
P     0.4825258    1.4811102   -0.9719942 
P    -1.4625729   -0.8508873    1.1394207 
H     1.3944514   -1.9844235   -2.0018913 
H     0.7381960   -3.3000526   -0.0643883 
C     4.9487048    0.6628960   -3.9311357 
C     3.7617089    0.1340153   -4.4593973 
C     2.8772814   -0.5622728   -3.6276591 
C     3.1518443   -0.7319932   -2.2496437 
C     4.3570385   -0.1987573   -1.7354392 
C     5.2441431    0.4869949   -2.5684903 
H     5.6472297    1.2019603   -4.5793656 
H     3.5326203    0.2511254   -5.5236718 
H     1.9666912   -1.0055692   -4.0467218 
H     4.6035485   -0.3170179   -0.6768303 
H     6.1718843    0.8918240   -2.1526787 
C     1.8886906   -4.0727006    4.5989049 
C     2.3861776   -2.8105076    4.2342179 
C     2.2000551   -2.3310713    2.9336971 
C     1.5183948   -3.1079371    1.9677946 
C     0.9971028   -4.3607471    2.3576556 
C     1.1869707   -4.8413228    3.6584839 
H     2.0385773   -4.4494489    5.6158946 
H     2.9190732   -2.1982117    4.9693144 
H     2.5729532   -1.3363899    2.6625545 
H     0.4505634   -4.9660974    1.6266832 
H     0.7822137   -5.8185799    3.9400837 
C    -2.2618392    0.3299457   -2.8643362 
C    -1.7147879   -1.0424112   -2.6250807 
C    -1.4378985    1.4718925   -3.0480182 
C    -2.0007795   -1.7903167   -1.4489337 
C     0.0526420    1.4506489   -2.8049975 
C    -2.6933147   -1.1618160   -0.2479689 
C    -3.6615549    0.4715219   -2.9872661 
C    -0.9846312   -1.6574449   -3.6665923 
C    -2.0446413    2.7035173   -3.3681545 
C    -1.5758337   -3.1349507   -1.3853317 
C    -0.5356056    2.8643372   -0.3005574 
C     2.1885280    2.1591843   -0.8516020 
C    -2.0611875    0.6039176    2.0796833 
C    -1.7271427   -2.1793525    2.3860892 
C    -4.2482394    1.7060408   -3.2919007 
C    -0.5535265   -2.9859307   -3.5762947 
C    -3.4323797    2.8269682   -3.4965444 
C    -0.8638267   -3.7341232   -2.4308171 
C     0.0573700    4.0532798    0.1734569 
C     2.7971892    2.9405699   -1.8509527 
C    -1.1158263    1.5163193    2.5862400 
C    -2.4951780   -3.3381638    2.1629104 
C    -1.9404530    2.7344693   -0.2433480 
C     2.8771666    1.9364768    0.3612640 
C    -3.4307924    0.7901753    2.3546288 
C    -1.1323323   -1.9846945    3.6524747 
C    -0.7409391    5.0879082    0.6832214 
C     4.0688201    3.4920662   -1.6383576 
C    -1.5338388    2.6071505    3.3595413 
C    -2.6764126   -4.2774955    3.1905713 
C    -2.7335458    3.7744591    0.2522565 
C     4.1418413    2.4989720    0.5758808 
C    -3.8457413    1.8910632    3.1148266 
C    -1.3200177   -2.9204885    4.6741460 
C    -2.1358218    4.9540988    0.7197877 
C     4.7396732    3.2797960   -0.4254419 
C    -2.8987853    2.7976293    3.6184353 
C    -2.0941970   -4.0693067    4.4471846 
H     0.5434748    0.5481782   -3.1987085 
H     0.5184449    2.3290585   -3.2783027 
H    -3.5288758   -1.7805839    0.1207376 
H    -3.1057991   -0.1737133   -0.5035683 
H    -4.2917459   -0.4158829   -2.8621867 
H    -0.7930919   -1.0825215   -4.5792798 
H    -1.4106452    3.5876249   -3.4958111 
H    -1.7947806   -3.7223753   -0.4881293 
H    -5.3359652    1.7855194   -3.3872587 
H    -0.0019260   -3.4419634   -4.4047964 
H    -3.8737274    3.7970093   -3.7457999 
H    -0.5555853   -4.7816316   -2.3523147 
H     1.1434914    4.1787529    0.1450621 
H     2.2921231    3.1255357   -2.8031931 
H    -0.0534022    1.3768409    2.3552224 
H    -2.9831084   -3.5150260    1.1996999 
H    -2.4230472    1.8180567   -0.5907070 
H     2.4103529    1.3188445    1.1393845 
H    -4.1739369    0.0755271    1.9839843 
H    -0.5331263   -1.0886283    3.8443354 
H    -0.2657693    6.0045828    1.0479000 
H     4.5360522    4.0900495   -2.4273779 
H    -0.7954030    3.3183675    3.7420941 
H    -3.2858960   -5.1681452    3.0055883 
H    -3.8205485    3.6537501    0.2831419 
H     4.6622002    2.3254520    1.5235571 
H    -4.9108459    2.0383447    3.3218592 
H    -0.8544515   -2.7540069    5.6502911 
H    -2.7558656    5.7645353    1.1167135 
H     5.7299373    3.7175478   -0.2625247 
H    -3.2278605    3.6564599    4.2124010 
H    -2.2416778   -4.8000146    5.2489103 
