101
Energy =
C     2.2154048   -1.4376015   -1.4397947 
C     2.3915739   -1.9067880   -0.1211421 
C     1.3708724   -2.6829682    0.5101136 
H     3.2637379   -1.5880846    0.4630169 
Pd    0.5640790   -0.6724437   -0.0178924 
P    -1.4801911   -0.8857101    1.0899459 
P     0.4973336    1.5109723   -0.9177521 
H     1.4264772   -1.9210639   -2.0373183 
H     0.7412515   -3.2953164   -0.1493798 
C     5.0094079    0.7812910   -3.8313433 
C     3.8310264    0.2683773   -4.3934965 
C     2.9340940   -0.4522260   -3.5966393 
C     3.1869886   -0.6621749   -2.2200278 
C     4.3834859   -0.1440633   -1.6713572 
C     5.2833316    0.5656618   -2.4699143 
H     5.7179847    1.3388581   -4.4524468 
H     3.6183705    0.4171568   -5.4572217 
H     2.0305429   -0.8833138   -4.0428018 
H     4.6132662   -0.2933923   -0.6129168 
H     6.2043411    0.9579750   -2.0279174 
C     1.8258402   -4.2058379    4.5049244 
C     1.1401275   -4.9473537    3.5315421 
C     0.9679813   -4.4282223    2.2431322 
C     1.4914168   -3.1630701    1.8989104 
C     2.1567432   -2.4141459    2.8976681 
C     2.3252771   -2.9321725    4.1857199 
H     1.9618555   -4.6127646    5.5121984 
H     0.7342943   -5.9337678    3.7774573 
H     0.4339078   -5.0124865    1.4862831 
H     2.5310344   -1.4109496    2.6620584 
H     2.8456445   -2.3410593    4.9466755 
C    -1.6712065   -0.9635089   -2.6823539 
C    -2.2159538    0.4153352   -2.8872556 
C    -1.9743794   -1.7480530   -1.5347370 
C    -1.3905182    1.5628814   -3.0230282 
C    -2.6871778   -1.1582086   -0.3261211 
C     0.0959904    1.5352353   -2.7573564 
C    -0.9240814   -1.5450822   -3.7310817 
C    -3.6137358    0.5597406   -3.0274405 
C    -1.5490575   -3.0937773   -1.5068179 
C    -1.9934975    2.8032797   -3.3151589 
C    -1.7603986   -2.2515092    2.2920987 
C    -2.1008174    0.5386291    2.0621391 
C     2.2006725    2.1860645   -0.7513291 
C    -0.5322140    2.8725502   -0.2202104 
C    -0.4928676   -2.8754214   -3.6757758 
C    -4.1969608    1.8026618   -3.3032651 
C    -0.8202447   -3.6594250   -2.5593540 
C    -3.3792216    2.9297646   -3.4611666 
C    -1.1872905   -2.0933104    3.5734359 
C    -3.4761594    0.7140242    2.3148166 
C     2.8233701    2.9970720   -1.7178402 
C    -1.9377813    2.7412232   -0.1905458 
C    -2.5205838   -3.4053369    2.0215017 
C    -1.1680572    1.4367361    2.6155127 
C     2.8715597    1.9274327    0.4643561 
C     0.0524939    4.0458056    0.3008064 
C    -1.3887552   -3.0599272    4.5633046 
C    -3.9090684    1.7904177    3.0996877 
C     4.0917208    3.5416083   -1.4706718 
C    -2.7392525    3.7656052    0.3237352 
C    -2.7161116   -4.3753895    3.0174566 
C    -1.6043414    2.5029107    3.4127613 
C     4.1327935    2.4832037    0.7138758 
C    -0.7544407    5.0642730    0.8291493 
C    -2.1556543   -4.2033313    4.2893146 
C    -2.9747087    2.6830026    3.6496167 
C     4.7449634    3.2932032   -0.2550488 
C    -2.1497060    4.9297862    0.8380471 
H    -3.0987873   -0.1638630   -0.5578456 
H    -3.5262985   -1.7903324    0.0103145 
H     0.5682102    2.4277521   -3.1966979 
H     0.5940443    0.6453328   -3.1702337 
H    -0.7189785   -0.9416266   -4.6221527 
H    -4.2448300   -0.3314878   -2.9395060 
H    -1.7813593   -3.7093041   -0.6321010 
H    -1.3585019    3.6912076   -3.4064259 
H     0.0722781   -3.3047934   -4.5093719 
H    -5.2831673    1.8843648   -3.4129764 
H    -0.5120622   -4.7086798   -2.5088892 
H    -3.8176876    3.9067136   -3.6874756 
H    -0.5945566   -1.2016003    3.8021725 
H    -4.2100704    0.0096999    1.9078106 
H     2.3316841    3.2109585   -2.6710112 
H    -2.4142370    1.8360058   -0.5738919 
H    -2.9918011   -3.5546810    1.0454034 
H    -0.1007494    1.3060812    2.4023713 
H     2.3936747    1.2872743    1.2170972 
H     1.1389459    4.1715545    0.2949945 
H    -0.9396817   -2.9217174    5.5515106 
H    -4.9785130    1.9293999    3.2893955 
H     4.5702195    4.1626051   -2.2347635 
H    -3.8266329    3.6445441    0.3322708 
H    -3.3201757   -5.2613946    2.7959494 
H    -0.8755904    3.2037632    3.8313372 
H     4.6393411    2.2817226    1.6635190 
H    -0.2856416    5.9690886    1.2299151 
H    -2.3142517   -4.9580503    5.0663025 
H    -3.3178178    3.5228229    4.2625236 
H     5.7326706    3.7256894   -0.0648205 
H    -2.7764990    5.7274688    1.2499341 
