101
Energy =
C     1.4453961   -2.4663183    1.0818839 
C     2.5124311   -1.6360982    0.6179505 
C     2.7347023   -0.3716960    1.2024131 
H     3.0878820   -1.9417870   -0.2646651 
Pd    0.6166979   -0.5510378    0.2970731 
P     0.5840335    1.6285845   -0.6140482 
P    -1.6372671   -1.1533449    0.3940228 
H     1.1600018   -2.3546148    2.1366736 
H     2.2612286   -0.1866617    2.1795470 
C     0.7046662   -6.3559971   -0.5932282 
C     0.4907419   -6.1137077    0.7717197 
C     0.7025997   -4.8354320    1.3012505 
C     1.1469187   -3.7778692    0.4782214 
C     1.3321097   -4.0291319   -0.9014708 
C     1.1167068   -5.3057205   -1.4303930 
H     0.5405216   -7.3562601   -1.0070530 
H     0.1535989   -6.9231173    1.4269485 
H     0.5366820   -4.6523848    2.3682689 
H     1.6334681   -3.2097777   -1.5646970 
H     1.2674948   -5.4845715   -2.5002341 
C     5.8668329    2.4263609    0.3027322 
C     5.6945153    1.2958356   -0.5140973 
C     4.6756214    0.3785706   -0.2463078 
C     3.8061142    0.5684979    0.8531957 
C     4.0039760    1.7021841    1.6770422 
C     5.0182163    2.6263784    1.4016579 
H     6.6664551    3.1426123    0.0875177 
H     6.3579715    1.1317401   -1.3687829 
H     4.5553425   -0.4899704   -0.8995411 
H     3.3627519    1.8393099    2.5553529 
H     5.1566773    3.4952630    2.0533768 
C    -1.1480115    2.6181003    2.2931822 
C    -0.5363967    1.4139813    2.9383248 
C    -0.4749067    3.4008955    1.3180687 
C    -1.1075828    0.1145625    2.8401498 
C     0.8264520    2.9716017    0.6831272 
C    -2.2536340   -0.1874355    1.8849596 
C    -2.4234320    3.0306402    2.7376428 
C     0.5864138    1.6067448    3.7739905 
C    -1.0939239    4.5751828    0.8434059 
C    -0.5511667   -0.9263395    3.6145259 
C    -0.7824845    2.2742203   -1.6707558 
C     2.0326681    1.7317014   -1.7433533 
C    -2.1355116   -2.9056385    0.6587460 
C    -2.7170787   -0.7162456   -1.0207942 
C    -3.0296859    4.1926585    2.2444392 
C     1.1365589    0.5572997    4.5189195 
C    -2.3537512    4.9772270    1.3002174 
C     0.5538661   -0.7169323    4.4476013 
C    -2.0879269    2.3721184   -1.1417268 
C     2.2788268    0.6099539   -2.5655547 
C    -2.0562919   -3.7619597   -0.4618397 
C    -4.1088057   -0.5594421   -0.8645750 
C    -0.5595613    2.6635879   -3.0080782 
C     2.8403600    2.8750961   -1.8855963 
C    -2.6071277   -3.4217204    1.8808673 
C    -2.1391869   -0.5985525   -2.2994100 
C    -3.1381975    2.8679237   -1.9209590 
C     3.3012234    0.6388071   -3.5224643 
C    -2.4579245   -5.0974498   -0.3620575 
C    -4.9068914   -0.2694679   -1.9785505 
C    -1.6188401    3.1467900   -3.7903862 
C     3.8719634    2.8963260   -2.8353041 
C    -3.0043493   -4.7648647    1.9773168 
C    -2.9432305   -0.3239207   -3.4132275 
C    -2.9074074    3.2546572   -3.2493093 
C     4.0999311    1.7847676   -3.6591691 
C    -2.9348718   -5.6031003    0.8575259 
C    -4.3256441   -0.1532370   -3.2516558 
H     1.3035123    3.8350075    0.1937609 
H     1.5412126    2.5472076    1.4039172 
H    -2.6826431    0.7411364    1.4780770 
H    -3.0719531   -0.7379853    2.3791251 
H    -2.9311611    2.4332010    3.5028941 
H     1.0023615    2.6162378    3.8639407 
H    -0.5814156    5.1717153    0.0809544 
H    -0.9844996   -1.9294450    3.5512711 
H    -4.0166488    4.4921565    2.6114640 
H     1.9980011    0.7383881    5.1698761 
H    -2.8083542    5.8941876    0.9123614 
H     0.9563698   -1.5447684    5.0401575 
H    -2.2895191    2.0636093   -0.1133358 
H     1.6578522   -0.2877498   -2.4508646 
H    -1.6940663   -3.3775143   -1.4208546 
H    -4.5728187   -0.6700618    0.1216366 
H     0.4407781    2.5937852   -3.4446703 
H     2.6786067    3.7574239   -1.2597838 
H    -2.6970035   -2.7840851    2.7654205 
H    -1.0541350   -0.7050901   -2.4129395 
H    -4.1409455    2.9387572   -1.4890459 
H     3.4764447   -0.2342443   -4.1597457 
H    -2.3926244   -5.7474025   -1.2399599 
H    -5.9873346   -0.1413832   -1.8548507 
H    -1.4300645    3.4448011   -4.8270449 
H     4.5001406    3.7879761   -2.9291828 
H    -3.3798383   -5.1488597    2.9315129 
H    -2.4870126   -0.2235434   -4.4028068 
H    -3.7313239    3.6340479   -3.8625226 
H     4.9027545    1.8089631   -4.4032953 
H    -3.2506028   -6.6485766    0.9332785 
H    -4.9535988    0.0737317   -4.1193184 
