101
Energy =
C     0.7914696   -0.2659229    2.9689613 
C     1.9844777    0.1023597    2.3092017 
C     2.1211908    1.3802936    1.6938843 
H     2.7885227   -0.6343044    2.1885546 
Pd    0.4689329    0.2302768    0.7113544 
P     0.4060199    1.5869013   -1.2017114 
P    -1.2284172   -1.3928640    0.4322358 
H     0.1052414    0.5489610    3.2443188 
H     1.5217949    2.2043773    2.1084431 
C     0.1990816   -3.8517347    5.2612673 
C    -0.6655432   -2.7576888    5.4072469 
C    -0.4728164   -1.6081459    4.6323233 
C     0.5842592   -1.5250850    3.6959758 
C     1.4390643   -2.6438721    3.5535403 
C     1.2500572   -3.7887937    4.3304771 
H     0.0570555   -4.7511491    5.8690075 
H    -1.4826261   -2.7938688    6.1350733 
H    -1.1288105   -0.7434183    4.7759624 
H     2.2557567   -2.6222016    2.8264535 
H     1.9222210   -4.6431776    4.2058366 
C     5.7540798    2.6039475   -0.2640978 
C     5.0306835    3.5067639    0.5281441 
C     3.8419689    3.1041089    1.1488773 
C     3.3606854    1.7866277    0.9989099 
C     4.1048264    0.8837803    0.2060522 
C     5.2854851    1.2890226   -0.4238795 
H     6.6789205    2.9211789   -0.7568229 
H     5.3872383    4.5337039    0.6569511 
H     3.2762083    3.8170741    1.7568506 
H     3.7434067   -0.1415113    0.0717429 
H     5.8429950    0.5790860   -1.0437741 
C    -3.2889882    1.0122641   -0.8147156 
C    -3.0530947    1.5220591    0.5718601 
C    -2.4375342    1.3478396   -1.9029896 
C    -2.7947116    0.6399740    1.6551017 
C    -1.2598488    2.2734062   -1.7395813 
C    -2.6870608   -0.8671838    1.4846502 
C    -4.4255089    0.2149898   -1.0598802 
C    -3.1385002    2.9078290    0.8266156 
C    -2.7373398    0.8416981   -3.1819420 
C    -2.6239030    1.1853054    2.9435579 
C     1.1663735    0.8182462   -2.6859530 
C     1.2688550    3.2082273   -1.0347133 
C    -0.6991367   -3.0382313    1.0819760 
C    -1.8843900   -2.0363105   -1.1703743 
C    -4.7120915   -0.2745557   -2.3389211 
C    -2.9406618    3.4339997    2.1091396 
C    -3.8574088    0.0334981   -3.4046789 
C    -2.6806379    2.5647347    3.1771284 
C     0.9480635    1.3106069   -3.9892710 
C     2.3468610    3.5864455   -1.8551789 
C     0.4824702   -3.5702799    0.5224214 
C    -2.9932614   -2.9088597   -1.1810819 
C     2.0159472   -0.2923471   -2.5055084 
C     0.7898303    4.1091328   -0.0576504 
C    -1.4533859   -3.8226974    1.9724092 
C    -1.1561809   -1.8390829   -2.3536571 
C     1.5594927    0.6921757   -5.0886614 
C     2.9164056    4.8618807   -1.7206955 
C     0.8915232   -4.8721660    0.8335536 
C    -3.3659284   -3.5598603   -2.3623349 
C     2.6322756   -0.9048435   -3.6044388 
C     1.3580617    5.3829706    0.0660730 
C    -1.0346046   -5.1237024    2.2889429 
C    -1.5228991   -2.5032929   -3.5345516 
C     2.4009435   -0.4152732   -4.8986871 
C     2.4190789    5.7644882   -0.7712380 
C     0.1298016   -5.6536979    1.7161862 
C    -2.6269728   -3.3640865   -3.5413027 
H    -1.0643479    2.8268226   -2.6734998 
H    -1.4587760    3.0323148   -0.9693084 
H    -3.6054337   -1.3100167    1.0652332 
H    -2.5156938   -1.3239829    2.4731954 
H    -5.1051018   -0.0052593   -0.2294247 
H    -3.3914540    3.5801186   -0.0007251 
H    -2.0771222    1.0902229   -4.0198216 
H    -2.4555232    0.5058178    3.7850649 
H    -5.6007281   -0.8919346   -2.5024377 
H    -3.0158226    4.5134971    2.2760228 
H    -4.0636040   -0.3503918   -4.4082863 
H    -2.5440309    2.9542193    4.1911948 
H     0.3099112    2.1845819   -4.1547514 
H     2.7498717    2.8880215   -2.5943355 
H     1.0718162   -2.9627903   -0.1757706 
H    -3.5591076   -3.1028558   -0.2629863 
H     2.1705730   -0.6850389   -1.4942932 
H    -0.0330365    3.8174269    0.6079894 
H    -2.3720988   -3.4362726    2.4237492 
H    -0.2930272   -1.1721867   -2.3566477 
H     1.3803659    1.0791845   -6.0970717 
H     3.7574969    5.1455323   -2.3614022 
H     1.8044079   -5.2785826    0.3857570 
H    -4.2298444   -4.2326305   -2.3601896 
H     3.2876074   -1.7683096   -3.4509199 
H     0.9726097    6.0791134    0.8184653 
H    -1.6257022   -5.7243121    2.9878493 
H    -0.9401468   -2.3388415   -4.4469137 
H     2.8759201   -0.8958122   -5.7602392 
H     2.8623182    6.7609477   -0.6750888 
H     0.4463168   -6.6728050    1.9608264 
H    -2.9139764   -3.8858239   -4.4602037 
