101
Energy =
C     1.6402385   -2.1629442    1.4345088 
C     2.4496232   -1.7768182    0.3205524 
C     3.1033083   -0.5302556    0.2875517 
H     2.4700535   -2.4267188   -0.5638503 
Pd    0.7606309   -0.3750892    0.4677365 
P     0.5237927    1.3823028   -1.1197597 
P    -1.3073621   -0.6370791    1.5332479 
H     1.9117513   -1.7623956    2.4228403 
H     3.2125507    0.0049380    1.2431724 
C    -0.2868011   -6.0084127    1.4172648 
C    -0.3677493   -5.1781135    0.2869247 
C     0.2426881   -3.9197831    0.2947061 
C     0.9422184   -3.4674230    1.4360577 
C     1.0007835   -4.2999347    2.5720995 
C     0.3971291   -5.5638710    2.5584689 
H    -0.7617139   -6.9949867    1.4106249 
H    -0.9098939   -5.5108329   -0.6042540 
H     0.1621938   -3.2683969   -0.5831788 
H     1.5265679   -3.9553229    3.4684476 
H     0.4547077   -6.2009270    3.4469063 
C     5.8477213    0.7993139   -2.7363730 
C     5.8536456    1.3743993   -1.4573486 
C     4.9351672    0.9490467   -0.4913749 
C     4.0001897   -0.0703620   -0.7802948 
C     4.0101154   -0.6448815   -2.0725377 
C     4.9193518   -0.2110944   -3.0411734 
H     6.5638103    1.1337028   -3.4940038 
H     6.5718299    2.1628455   -1.2121104 
H     4.9400081    1.4069612    0.5029274 
H     3.3025366   -1.4421610   -2.3153746 
H     4.9140894   -0.6686129   -4.0361566 
C    -1.4459413   -1.1706654   -2.3886771 
C    -2.4032145   -0.0971827   -1.9742924 
C    -0.1102980   -0.8940793   -2.7868116 
C    -3.0361827   -0.0703844   -0.7018221 
C     0.4974900    0.5006070   -2.7771909 
C    -2.7180626   -1.0686750    0.3877052 
C    -1.9337916   -2.4911650   -2.5042331 
C    -2.7836845    0.8548532   -2.9440436 
C     0.6783307   -1.9561471   -3.2769138 
C    -4.0224460    0.9049363   -0.4564681 
C    -0.7291594    2.7393456   -1.2476666 
C     2.0090771    2.4793388   -1.1913843 
C    -1.7813410    0.8382530    2.5251453 
C    -1.4531737   -1.9333735    2.8399838 
C    -1.1350356   -3.5317654   -2.9924520 
C    -3.7609088    1.8199291   -2.6818948 
C     0.1842703   -3.2624361   -3.3793444 
C    -4.3860260    1.8423063   -1.4293973 
C    -1.5735001    3.0552734   -0.1742135 
C     2.7059572    2.7971048   -2.3712855 
C    -0.7757591    1.7541074    2.8957315 
C    -2.1942500   -3.1186276    2.6709203 
C    -0.7231756    3.5747833   -2.3870751 
C     2.3619116    3.1254573    0.0119334 
C    -3.0945126    1.0248918    3.0008350 
C    -0.8036166   -1.6983524    4.0714483 
C    -2.3994803    4.1899085   -0.2286773 
C     3.7321654    3.7533225   -2.3465606 
C    -1.0813242    2.8544605    3.7086084 
C    -2.3013376   -4.0385648    3.7246241 
C    -1.5602079    4.6933367   -2.4473209 
C     3.3824213    4.0839090    0.0316515 
C    -3.4014094    2.1347405    3.7991153 
C    -0.9113388   -2.6216647    5.1180131 
C    -2.3971189    5.0089038   -1.3628701 
C     4.0676519    4.4032796   -1.1510081 
C    -2.3974137    3.0512246    4.1517214 
C    -1.6679625   -3.7919914    4.9494339 
H     1.5553675    0.4185749   -3.0759033 
H     0.0005902    1.1630383   -3.5070985 
H    -2.4012807   -2.0368368   -0.0349662 
H    -3.6066620   -1.2549221    1.0145662 
H    -2.9784815   -2.6879248   -2.2391717 
H    -2.3202761    0.8100878   -3.9353835 
H     1.6970325   -1.7424774   -3.6166292 
H    -4.5199591    0.9261579    0.5181053 
H    -1.5472973   -4.5415087   -3.0869048 
H    -4.0363022    2.5446688   -3.4537539 
H     0.8227244   -4.0597253   -3.7727973 
H    -5.1560980    2.5875445   -1.2080202 
H    -1.5916496    2.4199568    0.7100891 
H     2.4616967    2.3080609   -3.3191055 
H     0.2468288    1.6061507    2.5257631 
H    -2.6845488   -3.3487946    1.7219484 
H    -0.0480093    3.3703863   -3.2254831 
H     1.8205618    2.8851332    0.9351015 
H    -3.8788750    0.2984152    2.7643415 
H    -0.2280096   -0.7776808    4.2203039 
H    -3.0490959    4.4206323    0.6219592 
H     4.2725815    3.9867691   -3.2696130 
H    -0.2938392    3.5615512    3.9885778 
H    -2.8790392   -4.9566289    3.5780335 
H    -1.5485447    5.3311952   -3.3373223 
H     3.6420232    4.5842929    0.9704924 
H    -4.4261207    2.2789871    4.1568312 
H    -0.4109023   -2.4216177    6.0712037 
H    -3.0409490    5.8935288   -1.4068249 
H     4.8649358    5.1535066   -1.1388403 
H    -2.6412057    3.9146216    4.7792910 
H    -1.7579817   -4.5114343    5.7696952 
