101
Energy =
C     1.0231241    2.0392373    2.0533402 
C     1.8589958    0.8928495    2.2392445 
C     2.8432332    0.5436055    1.2958099 
H     1.6502695    0.2225816    3.0830642 
Pd    0.6421527    0.5855746    0.4301334 
P     0.8408887   -1.4383704   -0.8074303 
P    -1.3614418    1.6055165   -0.2123107 
H     1.4441031    2.8887917    1.4948109 
H     3.1414518    1.3173242    0.5721325 
C    -1.9337538    3.0092353    5.0237799 
C    -1.8251052    1.6928180    4.5452910 
C    -0.8753062    1.3767822    3.5684401 
C    -0.0194383    2.3739431    3.0488414 
C    -0.1487647    3.6952973    3.5224502 
C    -1.0940409    4.0074947    4.5079664 
H    -2.6753461    3.2568105    5.7903564 
H    -2.4839828    0.9088788    4.9327200 
H    -0.8053626    0.3522303    3.1855190 
H     0.4982664    4.4804538    3.1180585 
H    -1.1802586    5.0376227    4.8682708 
C     5.7079493   -2.6325258    1.6765919 
C     4.5230103   -2.6761563    2.4314113 
C     3.5746063   -1.6570763    2.3093250 
C     3.7834723   -0.5765707    1.4210132 
C     4.9773604   -0.5496976    0.6654059 
C     5.9322378   -1.5637488    0.7968147 
H     6.4527768   -3.4285694    1.7773895 
H     4.3455784   -3.5043305    3.1256220 
H     2.6637804   -1.6929073    2.9130191 
H     5.1550018    0.2782391   -0.0283167 
H     6.8513599   -1.5226261    0.2043135 
C    -2.4161172   -1.9514718   -0.0345726 
C    -1.8189112   -2.0145075    1.3364818 
C    -2.9584118   -0.7616623   -0.5919905 
C    -0.4783391   -2.4236464    1.5701221 
C    -2.8850516    0.5751956    0.1102427 
C     0.4972371   -2.7814954    0.4586213 
C    -2.5580190   -3.1623041   -0.7455183 
C    -2.6642454   -1.7790451    2.4432629 
C    -3.6192621   -0.8357618   -1.8337715 
C    -0.0433756   -2.5698110    2.9041293 
C    -1.8016045    3.2194963    0.5679874 
C    -1.3592469    2.1203657   -1.9786628 
C     2.5711545   -1.7521254   -1.3744023 
C     0.0164745   -1.9931677   -2.3697303 
C    -3.2129688   -3.2171799   -1.9795671 
C    -2.2139849   -1.9310849    3.7599131 
C    -3.7493461   -2.0448630   -2.5254484 
C    -0.8901419   -2.3261012    3.9925702 
C    -1.0392040    4.3503255    0.2023266 
C    -0.1221448    2.2530002   -2.6413599 
C     3.1470953   -0.7568085   -2.1913692 
C    -0.6549248   -1.0851958   -3.2004780 
C    -2.8636113    3.3734225    1.4792249 
C    -2.5452498    2.4720748   -2.6533392 
C     3.2739804   -2.9504311   -1.1528996 
C     0.2045375   -3.3215080   -2.8127350 
C    -1.3468507    5.6121368    0.7239709 
C    -0.0711876    2.7041369   -3.9675694 
C     4.3956776   -0.9633944   -2.7904922 
C    -1.1305724   -1.4894111   -4.4585721 
C    -3.1692033    4.6413669    1.9962562 
C    -2.4935635    2.9065432   -3.9844561 
C     4.5278679   -3.1511685   -1.7490059 
C    -0.2866224   -3.7271938   -4.0576436 
C    -2.4189328    5.7620316    1.6178548 
C    -1.2586821    3.0202068   -4.6436519 
C     5.0873710   -2.1652945   -2.5733951 
C    -0.9504287   -2.8083657   -4.8890042 
H    -3.7625424    1.1940098   -0.1431141 
H    -2.8700296    0.4530735    1.2063161 
H     0.1748393   -3.6871563   -0.0839967 
H     1.4753607   -3.0037053    0.9157375 
H    -2.1710535   -4.0836439   -0.2975035 
H    -3.7093608   -1.5093799    2.2552396 
H    -4.0459832    0.0748584   -2.2654885 
H     0.9787430   -2.9156127    3.0897927 
H    -3.3091744   -4.1707556   -2.5070738 
H    -2.8985905   -1.7598637    4.5968272 
H    -4.2687857   -2.0694778   -3.4882105 
H    -0.5204602   -2.4589876    5.0142212 
H    -0.2137995    4.2468238   -0.5112951 
H     0.8004778    1.9815658   -2.1129399 
H     2.6035173    0.1791187   -2.3691188 
H    -0.8092605   -0.0583049   -2.8726319 
H    -3.4551214    2.5158942    1.8088669 
H    -3.5110434    2.4230503   -2.1399801 
H     2.8578843   -3.7381790   -0.5174840 
H     0.7553521   -4.0421270   -2.1980877 
H    -0.7535565    6.4823003    0.4242621 
H     0.8942281    2.8004241   -4.4746826 
H     4.8291175   -0.1866316   -3.4292274 
H    -1.6492707   -0.7636547   -5.0934402 
H    -3.9959334    4.7459912    2.7060176 
H    -3.4200229    3.1675465   -4.5063512 
H     5.0691093   -4.0845070   -1.5632621 
H    -0.1375394   -4.7604617   -4.3880898 
H    -2.6638324    6.7496116    2.0218342 
H    -1.2232232    3.3632665   -5.6827620 
H     6.0632840   -2.3299834   -3.0414550 
H    -1.3213398   -3.1251138   -5.8693270 
