101
Energy =
C     1.2430797    2.1389631    1.9773723 
C     1.8218839    0.8891783    2.2685898 
C     2.7377817    0.2666290    1.3633097 
H     1.4919092    0.3269452    3.1517187 
Pd    0.7600827    0.4638125    0.3894554 
P     1.2777727   -1.0688751   -1.3010372 
P    -1.5491347    1.0011148    0.1802068 
H     1.7230602    2.7428930    1.1923507 
H     3.3568795    0.9247743    0.7352420 
C    -1.2856551    4.4310440    4.5838822 
C    -0.6004595    5.0443232    3.5250984 
C     0.1994854    4.2794759    2.6692179 
C     0.3412269    2.8867567    2.8621721 
C    -0.3498183    2.2837089    3.9386765 
C    -1.1586430    3.0458743    4.7860418 
H    -1.9146685    5.0280349    5.2521249 
H    -0.6946576    6.1219948    3.3598272 
H     0.7261049    4.7630222    1.8402520 
H    -0.2456375    1.2096711    4.1145246 
H    -1.6852014    2.5624401    5.6157141 
C     4.4576211   -3.5457862    2.3696038 
C     5.2674164   -2.5104363    1.8797103 
C     4.7019538   -1.2780443    1.5281480 
C     3.3174549   -1.0581742    1.6765549 
C     2.5085864   -2.1097636    2.1629233 
C     3.0740035   -3.3427871    2.5039605 
H     4.9011793   -4.5099373    2.6389529 
H     6.3448157   -2.6647921    1.7621407 
H     5.3381414   -0.4765583    1.1388450 
H     1.4263881   -1.9615464    2.2531483 
H     2.4316764   -4.1484150    2.8744497 
C    -1.5426741   -2.3105908    1.1943741 
C    -2.0445897   -2.3253004   -0.2157095 
C    -1.7119260   -1.1939503    2.0566989 
C    -1.2001067   -2.5366949   -1.3393644 
C    -2.3585867    0.1132635    1.6229008 
C     0.3019464   -2.6590024   -1.2196026 
C    -0.9950717   -3.5022360    1.7188769 
C    -3.4397151   -2.2540527   -0.4163960 
C    -1.3188066   -1.3213267    3.4056356 
C    -1.7880264   -2.6695659   -2.6125429 
C    -1.8865632    2.7934101    0.4766568 
C    -2.7140517    0.8138536   -1.2466881 
C     3.0174284   -1.6756148   -1.4160184 
C     1.1036864   -0.3535127   -2.9871955 
C    -0.6106813   -3.6085166    3.0605844 
C    -4.0063826   -2.3828975   -1.6880552 
C    -0.7709364   -2.5068188    3.9110695 
C    -3.1733629   -2.5948350   -2.7931195 
C    -2.8470168    3.2817882    1.3810061 
C    -2.2426312    0.5711085   -2.5443807 
C     3.3967631   -2.9970240   -1.1125538 
C     1.0722867   -1.1631967   -4.1400390 
C    -1.2126883    3.6999604   -0.3681863 
C    -4.0881560    1.0793714   -1.0527842 
C     3.9996069   -0.7618509   -1.8564559 
C     1.0989781    1.0491382   -3.1278577 
C    -3.1337303    4.6541462    1.4298770 
C    -3.1235392    0.5962358   -3.6379823 
C     4.7313599   -3.4000557   -1.2698823 
C     0.9934075   -0.5752077   -5.4093838 
C    -1.5060485    5.0682679   -0.3212962 
C    -4.9671037    1.0848348   -2.1404186 
C     5.3300784   -1.1689396   -2.0084846 
C     1.0375674    1.6355736   -4.3995492 
C    -2.4723115    5.5480001    0.5766065 
C    -4.4849778    0.8501926   -3.4398634 
C     5.6981940   -2.4931018   -1.7222491 
C     0.9732692    0.8229075   -5.5408644 
H    -3.4266109   -0.0260238    1.3808749 
H    -2.3029841    0.8228013    2.4646941 
H     0.6988963   -3.3303974   -1.9998501 
H     0.5956276   -3.0760547   -0.2416758 
H    -0.9094634   -4.3729770    1.0595024 
H    -4.0906928   -2.1270361    0.4551654 
H    -1.4787813   -0.4759614    4.0829401 
H    -1.1447350   -2.8409395   -3.4811733 
H    -0.2061608   -4.5514545    3.4421989 
H    -5.0917371   -2.3249481   -1.8128051 
H    -0.4860614   -2.5718743    4.9659270 
H    -3.5994011   -2.7024603   -3.7952444 
H    -3.3814101    2.6055823    2.0552588 
H    -1.1868592    0.3621298   -2.7103394 
H     2.6701550   -3.7229104   -0.7393823 
H     1.1249889   -2.2534581   -4.0540500 
H    -0.4640461    3.3257727   -1.0770165 
H    -4.4775439    1.3062019   -0.0540241 
H     3.7180256    0.2684477   -2.1023948 
H     1.1256456    1.6782037   -2.2290077 
H    -3.8778295    5.0234810    2.1429963 
H    -2.7339978    0.4076386   -4.6437012 
H     5.0124601   -4.4298743   -1.0278259 
H     0.9587854   -1.2106114   -6.3003995 
H    -0.9815354    5.7611836   -0.9876294 
H    -6.0304468    1.2885075   -1.9763854 
H     6.0797356   -0.4524823   -2.3603215 
H     1.0313444    2.7258978   -4.4979930 
H    -2.7045712    6.6172288    0.6145439 
H    -5.1731389    0.8692477   -4.2913724 
H     6.7374473   -2.8138936   -1.8469692 
H     0.9153785    1.2777315   -6.5350819 
