101
Energy =
C     1.1802823    2.6560518   -0.9487790 
C     2.3239260    1.8096025   -0.8741096 
C     2.4787558    0.6928684   -1.7237936 
H     3.0530149    1.9701574   -0.0709656 
Pd    0.5531172    0.5591160   -0.4277760 
P    -1.6681773    1.1270580    0.1160186 
P     0.7133124   -1.7531203   -0.0458906 
H     0.6673257    2.7325386   -1.9176869 
H     1.8509807    0.6579453   -2.6274232 
C     0.5943966    6.0477274    1.6401416 
C     1.3865620    4.9702389    2.0729327 
C     1.5791306    3.8616418    1.2441425 
C     0.9828429    3.8011222   -0.0387208 
C     0.1931412    4.8931704   -0.4597471 
C     0.0023120    6.0048355    0.3703030 
H     0.4443946    6.9155934    2.2904826 
H     1.8546261    4.9969751    3.0626129 
H     2.1926147    3.0271493    1.6027096 
H    -0.2739165    4.8662133   -1.4498784 
H    -0.6147538    6.8392714    0.0215693 
C     5.9349151   -1.8537829   -1.9439717 
C     5.7738565   -0.9960551   -0.8427546 
C     4.6453346   -0.1795714   -0.7410971 
C     3.6499657   -0.1936128   -1.7471335 
C     3.8294658   -1.0617828   -2.8493841 
C     4.9566669   -1.8853845   -2.9481072 
H     6.8214281   -2.4917995   -2.0181294 
H     6.5320470   -0.9695862   -0.0543366 
H     4.5378537    0.4718528    0.1304868 
H     3.0870193   -1.0628368   -3.6536088 
H     5.0784108   -2.5413507   -3.8161942 
C    -1.8401954   -1.8515297   -2.4322981 
C    -2.5054221   -2.3570296   -1.1921410 
C    -0.4457476   -2.0151348   -2.6358051 
C    -3.0500337   -1.4687291   -0.2265899 
C     0.4508554   -2.7165004   -1.6297254 
C    -3.0763239    0.0201844   -0.4598641 
C    -2.6082449   -1.2137050   -3.4294542 
C    -2.6225021   -3.7471920   -0.9897881 
C     0.1269576   -1.5106765   -3.8205075 
C    -3.6452802   -2.0061049    0.9313661 
C     2.3985110   -2.2239982    0.5467933 
C    -0.2099635   -2.5701045    1.3260256 
C    -2.2272430    2.6450607   -0.7701180 
C    -1.9652935    1.4826094    1.8925352 
C    -2.0198833   -0.7028879   -4.5931656 
C    -3.2352375   -4.2636978    0.1567746 
C    -0.6395119   -0.8485924   -4.7876051 
C    -3.7361174   -3.3875220    1.1293965 
C     3.1601541   -3.2846381    0.0255155 
C    -0.7036025   -1.7731599    2.3732210 
C    -2.1011863    2.6552300   -2.1775145 
C    -0.8511329    1.8167713    2.6891420 
C     2.8696143   -1.5276104    1.6810898 
C    -0.2297981   -3.9728818    1.4587685 
C    -2.7952096    3.7530122   -0.1168433 
C    -3.2468772    1.4583408    2.4799833 
C     4.3695290   -3.6475577    0.6375380 
C    -1.2170871   -2.3634943    3.5368575 
C    -2.5522281    3.7547979   -2.9177884 
C    -1.0109828    2.1177835    4.0476263 
C     4.0718850   -1.8986685    2.2935709 
C    -0.7480905   -4.5612139    2.6192477 
C    -3.2476317    4.8518988   -0.8649542 
C    -3.4037572    1.7511596    3.8421312 
C     4.8234512   -2.9641501    1.7737618 
C    -1.2391616   -3.7589701    3.6619064 
C    -3.1292866    4.8557419   -2.2612810 
C    -2.2879288    2.0798240    4.6276652 
H     0.0834172   -3.7244271   -1.3749891 
H     1.4567300   -2.8254889   -2.0673758 
H    -3.9887531    0.4671519   -0.0298159 
H    -3.1091053    0.2405828   -1.5366498 
H    -3.6916249   -1.1323639   -3.2876661 
H    -2.2398111   -4.4275652   -1.7585219 
H     1.1972752   -1.6586233   -3.9927909 
H    -4.0512989   -1.3256017    1.6872647 
H    -2.6397929   -0.2123041   -5.3506060 
H    -3.3194606   -5.3466230    0.2922402 
H    -0.1632770   -0.4703526   -5.6980464 
H    -4.2023185   -3.7789470    2.0385523 
H     2.8225954   -3.8429032   -0.8526686 
H    -0.6775277   -0.6848834    2.2865308 
H    -1.6530960    1.7973461   -2.6965967 
H     0.1446460    1.8323175    2.2342939 
H     2.2772382   -0.7010024    2.0931960 
H     0.1750701   -4.6140981    0.6681537 
H    -2.8772994    3.7675512    0.9741250 
H    -4.1319265    1.2200580    1.8818114 
H     4.9568865   -4.4723993    0.2211998 
H    -1.5976062   -1.7257205    4.3415655 
H    -2.4553678    3.7528645   -4.0085309 
H    -0.1371803    2.3795235    4.6529801 
H     4.4224092   -1.3573392    3.1785481 
H    -0.7624788   -5.6521409    2.7120457 
H    -3.6867718    5.7114930   -0.3481915 
H    -4.4025019    1.7253632    4.2900315 
H     5.7635353   -3.2581866    2.2517013 
H    -1.6353607   -4.2247374    4.5702235 
H    -3.4827419    5.7149810   -2.8404271 
H    -2.4153500    2.3075638    5.6910286 
