101
Energy =
C     1.1044827    2.6667651   -0.9709957 
C     2.2752630    1.8925794   -0.7250341 
C     2.5795978    0.7598748   -1.5116550 
H     2.8983872    2.1333055    0.1453269 
Pd    0.5342884    0.5772994   -0.4024964 
P     0.7414590   -1.7550274   -0.0703111 
P    -1.6894594    1.1183255    0.1100074 
H     0.7101920    2.6684351   -1.9980151 
H     2.0613502    0.6742852   -2.4785228 
C     0.1564457    6.1823026    1.3252276 
C    -0.0510031    6.1571677   -0.0612942 
C     0.2459263    5.0037410   -0.7974575 
C     0.7678242    3.8573109   -0.1623801 
C     0.9813396    3.8993927    1.2340558 
C     0.6735851    5.0469097    1.9713830 
H    -0.0838756    7.0810790    1.9024586 
H    -0.4548655    7.0364759   -0.5731822 
H     0.0717962    4.9873716   -1.8779740 
H     1.3790731    3.0167222    1.7466699 
H     0.8349904    5.0574283    3.0544126 
C     6.2017347   -1.5422445   -1.3005659 
C     5.8391642   -0.7183716   -0.2214946 
C     4.6501918    0.0131398   -0.2583888 
C     3.7957532   -0.0536646   -1.3844488 
C     4.1729623   -0.8926060   -2.4591098 
C     5.3619205   -1.6300267   -2.4197595 
H     7.1354462   -2.1127156   -1.2661793 
H     6.4867978   -0.6525545    0.6580690 
H     4.3823303    0.6381595    0.5981644 
H     3.5388061   -0.9371808   -3.3505135 
H     5.6392829   -2.2628437   -3.2690304 
C    -2.2961156   -2.2059766   -1.5382657 
C    -1.5158861   -1.5995000   -2.6614349 
C    -3.0034691   -1.4169831   -0.5901250 
C    -0.1128547   -1.7889862   -2.7803078 
C    -3.0500322    0.0864606   -0.6777960 
C     0.7044275   -2.5653038   -1.7595741 
C    -2.3754314   -3.6107843   -1.4499506 
C    -2.1915854   -0.8639784   -3.6589542 
C    -3.7273081   -2.0652610    0.4285316 
C     0.5523694   -1.2266353   -3.8883246 
C    -2.0439388    1.1782054    1.9109600 
C    -2.2600303    2.7541726   -0.5218774 
C    -0.2557124   -2.7978751    1.0835434 
C     2.3779193   -2.1854346    0.6681377 
C    -3.1054720   -4.2387301   -0.4349291 
C    -1.5098530   -0.2902904   -4.7391751 
C    -3.7779556   -3.4606825    0.5156844 
C    -0.1252685   -0.4732390   -4.8546552 
C    -0.9579743    1.2711483    2.8054441 
C    -2.2607619    2.9542056   -1.9202735 
C    -0.1136338   -4.2016091    1.0705577 
C     3.2456778   -3.1700645    0.1635489 
C    -3.3566438    1.1546110    2.4255062 
C    -2.7194837    3.7798743    0.3238606 
C    -0.9869698   -2.1927819    2.1173149 
C     2.6834713   -1.5571940    1.8946008 
C    -1.1760196    1.3328129    4.1879493 
C    -2.7525169    4.1483219   -2.4617424 
C    -0.7057525   -4.9789153    2.0722344 
C     4.3968243   -3.5254893    0.8823243 
C    -3.5730188    1.2089735    3.8094269 
C    -3.2032662    4.9771923   -0.2252239 
C    -1.5690727   -2.9726314    3.1287788 
C     3.8279734   -1.9216287    2.6129949 
C    -2.4848730    1.2973573    4.6918788 
C    -3.2319830    5.1602585   -1.6141951 
C    -1.4298904   -4.3655488    3.1083698 
C     4.6860029   -2.9111996    2.1085905 
H    -3.0181950    0.4209304   -1.7246288 
H    -3.9945673    0.4735061   -0.2597947 
H     1.7544427   -2.5943532   -2.0939011 
H     0.3592690   -3.6063745   -1.6474077 
H    -1.8679351   -4.2166861   -2.2084425 
H    -3.2807889   -0.7655680   -3.5926692 
H    -4.2637146   -1.4596730    1.1669556 
H     1.6279189   -1.3971712   -3.9994190 
H    -3.1506932   -5.3311838   -0.3886586 
H    -2.0618254    0.2728135   -5.4988077 
H    -4.3447391   -3.9379092    1.3207628 
H     0.4231695   -0.0507555   -5.7028224 
H     0.0620903    1.2714895    2.4052957 
H    -1.8795076    2.1732490   -2.5912331 
H     0.4778362   -4.6951960    0.2912420 
H     3.0357698   -3.6728702   -0.7853085 
H    -4.2181592    1.1038376    1.7519453 
H    -2.6957711    3.6525612    1.4100888 
H    -1.0981612   -1.1080368    2.1421586 
H     2.0066612   -0.7913763    2.2937604 
H    -0.3238770    1.4012812    4.8718702 
H    -2.7603139    4.2897784   -3.5476719 
H    -0.5920164   -6.0677537    2.0505853 
H     5.0693829   -4.2889671    0.4781398 
H    -4.5958559    1.1853343    4.1993855 
H    -3.5547263    5.7711221    0.4415317 
H    -2.1333893   -2.4815259    3.9283952 
H     4.0503329   -1.4344880    3.5681707 
H    -2.6583770    1.3391709    5.7721436 
H    -3.6177367    6.0931933   -2.0378120 
H    -1.8810391   -4.9766107    3.8970657 
H     5.5814366   -3.1994750    2.6686809 
