101
Energy =
C     1.7926299   -0.7747189    2.2883729 
C     1.8068569    0.6324611    2.3854288 
C     0.6029237    1.3470340    2.6743197 
H     2.7170123    1.1908687    2.1337879 
Pd    0.3636246    0.2178226    0.7671457 
P     0.9022181   -1.2334652   -1.0179398 
P    -1.6941235    1.1331610    0.1518745 
H     0.9186132   -1.2928529    2.7134757 
H    -0.1468798    0.8206799    3.2804500 
C     5.1275744   -3.3943891    1.6073007 
C     5.3051786   -2.0050690    1.4921860 
C     4.2318066   -1.1353791    1.6986834 
C     2.9521299   -1.6372705    2.0328387 
C     2.7936555   -3.0376924    2.1631797 
C     3.8670549   -3.9088885    1.9452462 
H     5.9723486   -4.0713780    1.4437866 
H     6.2878755   -1.5983076    1.2345502 
H     4.3912558   -0.0584796    1.5970947 
H     1.8174453   -3.4363262    2.4620077 
H     3.7245822   -4.9889936    2.0546620 
C     0.5421513    5.6309834    3.0354699 
C    -0.2826079    4.8343248    3.8433361 
C    -0.2799977    3.4424057    3.6955853 
C     0.5585761    2.8191443    2.7461933 
C     1.3651953    3.6358905    1.9195425 
C     1.3596072    5.0267667    2.0657320 
H     0.5403153    6.7196865    3.1514614 
H    -0.9349640    5.2992410    4.5893134 
H    -0.9244046    2.8249341    4.3303364 
H     1.9907579    3.1729092    1.1472323 
H     1.9927804    5.6448459    1.4204849 
C    -1.7936662   -2.4866674    1.2365789 
C    -1.9516023   -3.1011196   -0.1187788 
C    -2.3213817   -1.2076334    1.5677022 
C    -0.8497256   -3.4524853   -0.9427357 
C    -2.8886148   -0.2751775    0.5065800 
C     0.5692141   -3.0445971   -0.6249628 
C    -1.1983294   -3.2658355    2.2537601 
C    -3.2576607   -3.4112816   -0.5570992 
C    -2.2615000   -0.7816530    2.9122175 
C    -1.0966019   -4.1175727   -2.1609939 
C    -2.3602281    2.6185894    1.0113570 
C    -1.9414083    1.6268643   -1.5955862 
C     2.7192278   -1.0848986   -1.2651775 
C     0.2542501   -1.0255818   -2.7317028 
C    -1.1307853   -2.8177071    3.5779356 
C    -3.4852995   -4.0592770   -1.7774853 
C    -1.6788621   -1.5700196    3.9111822 
C    -2.3956791   -4.4267258   -2.5785189 
C    -1.8106126    3.8652659    0.6384493 
C    -3.2272463    1.6871083   -2.1691933 
C     3.2650536    0.2164192   -1.2043453 
C    -1.1364523   -1.0971261   -2.9654181 
C    -3.3819998    2.5848312    1.9795021 
C    -0.8187375    2.0116281   -2.3534690 
C     3.5614132   -2.1662301   -1.5833453 
C     1.1159369   -0.7838141   -3.8220283 
C    -2.2880362    5.0487957    1.2095451 
C    -3.3797944    2.1123995   -3.4950907 
C     4.6223624    0.4327079   -1.4738387 
C    -1.6507091   -0.9556221   -4.2583197 
C    -3.8544592    3.7756634    2.5538526 
C    -0.9775447    2.4515415   -3.6740745 
C     4.9225936   -1.9483471   -1.8405363 
C     0.5944453   -0.6277531   -5.1148143 
C    -3.3128816    5.0082121    2.1679531 
C    -2.2569740    2.4960361   -4.2463529 
C     5.4539612   -0.6516049   -1.7940905 
C    -0.7866192   -0.7177341   -5.3372665 
H    -3.0163473   -0.8011182   -0.4519040 
H    -3.8742609    0.1291921    0.7929873 
H     1.2713987   -3.6549209   -1.2139768 
H     0.8247767   -3.1574816    0.4391514 
H    -0.8204695   -4.2609389    1.9946287 
H    -4.1032392   -3.1561015    0.0911014 
H    -2.6674292    0.1987634    3.1805221 
H    -0.2480270   -4.3763879   -2.8035374 
H    -0.6760970   -3.4483521    4.3487254 
H    -4.5083153   -4.2922070   -2.0900481 
H    -1.6557283   -1.2124962    4.9456307 
H    -2.5550857   -4.9440784   -3.5297497 
H    -1.0170260    3.9111642   -0.1145089 
H    -4.1104754    1.4101353   -1.5830542 
H     2.6139032    1.0615956   -0.9466154 
H    -1.8259194   -1.2677912   -2.1353542 
H    -3.8416076    1.6391824    2.2820464 
H     0.1808374    1.9461699   -1.9083882 
H     3.1703061   -3.1864708   -1.6305826 
H     2.1969405   -0.7186942   -3.6685465 
H    -1.8526173    6.0065786    0.9088714 
H    -4.3786655    2.1519661   -3.9419058 
H     5.0319504    1.4473110   -1.4307848 
H    -2.7313737   -1.0194531   -4.4169112 
H    -4.6571424    3.7342479    3.2974580 
H    -0.1003253    2.7393583   -4.2615484 
H     5.5693388   -2.7991203   -2.0777948 
H     1.2760324   -0.4406084   -5.9511765 
H    -3.6867614    5.9360462    2.6126728 
H    -2.3812694    2.8282274   -5.2821469 
H     6.5162237   -0.4863610   -2.0017301 
H    -1.1897639   -0.5969036   -6.3480612 
