101
Energy =
C     1.4442909    1.9494292    2.1660607 
C     1.8216580    0.6162072    2.4532180 
C     2.6825797   -0.1048869    1.5829714 
H     1.3462896    0.0936081    3.2919829 
Pd    0.7645642    0.4878645    0.5221115 
P     1.0439596   -1.1661726   -1.1679837 
P    -1.3134707    1.4176234   -0.0221110 
H     2.0642017    2.4969733    1.4397251 
H     3.3715655    0.4808877    0.9588757 
C    -0.8235634    4.5607363    4.7165145 
C    -0.1858227    5.0522439    3.5683704 
C     0.5247195    4.1837409    2.7335254 
C     0.6222889    2.8051921    3.0321656 
C    -0.0237683    2.3258355    4.1963552 
C    -0.7402907    3.1929655    5.0258130 
H    -1.3784739    5.2399925    5.3716602 
H    -0.2440436    6.1164373    3.3206700 
H     1.0233759    4.5747876    1.8404005 
H     0.0518467    1.2695372    4.4659959 
H    -1.2254120    2.8042082    5.9273488 
C     3.8624681   -4.2039020    2.1511285 
C     2.6915896   -3.7234313    2.7622357 
C     2.3018001   -2.3923723    2.5871799 
C     3.0731831   -1.5092188    1.7951196 
C     4.2512850   -2.0041062    1.1924644 
C     4.6412084   -3.3372255    1.3696637 
H     4.1668583   -5.2466839    2.2878105 
H     2.0769974   -4.3917839    3.3748188 
H     1.3754536   -2.0403592    3.0493071 
H     4.8619871   -1.3351098    0.5768069 
H     5.5574764   -3.7003274    0.8927738 
C    -1.6866782   -2.1501241    1.3589265 
C    -1.8937252   -2.8313000    0.0416157 
C    -2.0387657   -0.7951802    1.6027647 
C    -0.8137469   -3.2739116   -0.7666828 
C    -2.5616560    0.1094951    0.4976180 
C     0.6182114   -2.8795191   -0.4948150 
C    -1.2127019   -2.9415162    2.4276705 
C    -3.2146316   -3.1250919   -0.3595351 
C    -1.8897666   -0.2881567    2.9105497 
C    -1.0963272   -4.0263154   -1.9250153 
C    -1.9070042    3.0119122    0.6966919 
C    -1.6370862    1.7617435   -1.7959820 
C     2.8271650   -1.2139322   -1.6277223 
C     0.2447731   -1.0983559   -2.8322621 
C    -1.0933620   -2.4272031    3.7233027 
C    -3.4774916   -3.8570226   -1.5246010 
C    -1.4336840   -1.0890320    3.9640487 
C    -2.4099049   -4.3257918   -2.3022190 
C    -2.8021379    3.1018733    1.7794332 
C    -0.5486395    1.9945320   -2.6577235 
C     3.5154124   -2.3981568   -1.9516506 
C    -1.1625434   -1.1101601   -2.9444858 
C    -1.4676451    4.2031602    0.0755785 
C    -2.9531186    1.8683980   -2.2893396 
C     3.5046752    0.0201439   -1.7270667 
C     1.0158852   -1.0117965   -4.0110298 
C    -3.2642405    4.3518454    2.2167809 
C    -0.7701846    2.3241322   -4.0015095 
C     4.8606500   -2.3502606   -2.3457991 
C    -1.7814285   -1.0609243   -4.1974904 
C    -1.9399437    5.4474595    0.5076073 
C    -3.1707012    2.1835764   -3.6363575 
C     4.8469127    0.0678915   -2.1258636 
C     0.3913554   -0.9509301   -5.2654212 
C    -2.8440443    5.5255255    1.5777928 
C    -2.0807209    2.4121723   -4.4919645 
C     5.5298864   -1.1206960   -2.4300992 
C    -1.0063631   -0.9796271   -5.3634335 
H    -2.7689558   -0.4722758   -0.4139726 
H    -3.5043077    0.6035320    0.7895943 
H     1.3028946   -3.6027536   -0.9642352 
H     0.8601805   -2.8349405    0.5791965 
H    -0.9614787   -3.9888797    2.2296137 
H    -4.0429320   -2.7909053    0.2747990 
H    -2.1360736    0.7580730    3.1131497 
H    -0.2649507   -4.3613365   -2.5548735 
H    -0.7458049   -3.0690412    4.5393880 
H    -4.5111639   -4.0775633   -1.8100464 
H    -1.3585857   -0.6717964    4.9737655 
H    -2.5980107   -4.9117890   -3.2073081 
H    -3.1697247    2.2033554    2.2821934 
H     0.4739862    1.8985283   -2.2745475 
H     3.0152319   -3.3692126   -1.8946011 
H    -1.7860392   -1.1662533   -2.0498904 
H    -0.7758599    4.1555951   -0.7724920 
H    -3.8091411    1.7147189   -1.6231959 
H     2.9714544    0.9489543   -1.4879779 
H     2.1076740   -0.9940713   -3.9585442 
H    -3.9629492    4.4019888    3.0579670 
H     0.0807789    2.4927065   -4.6684975 
H     5.3871969   -3.2801395   -2.5839176 
H    -2.8737889   -1.0772757   -4.2572935 
H    -1.6034822    6.3587964    0.0025135 
H    -4.1939504    2.2586210   -4.0188523 
H     5.3604146    1.0321621   -2.1981199 
H     1.0061302   -0.8854970   -6.1692069 
H    -3.2172781    6.4982568    1.9138677 
H    -2.2550778    2.6575873   -5.5446008 
H     6.5808680   -1.0872430   -2.7349131 
H    -1.4907405   -0.9334495   -6.3442527 
