101
Energy =
C     1.1786703    2.0264545    2.2190705 
C     1.7332119    0.7449889    2.3953475 
C     2.6436951    0.1909579    1.4469502 
H     1.4000194    0.1187082    3.2328252 
Pd    0.6541337    0.4612172    0.4831079 
P     1.1235021   -1.0847532   -1.2099675 
P    -1.5698150    1.1725110    0.0026425 
H     1.6547895    2.6784433    1.4713256 
H     3.2289582    0.8976477    0.8394202 
C    -1.2180864    4.1842907    5.0614057 
C    -1.0133672    2.8043131    5.2342126 
C    -0.2441194    2.0852447    4.3156085 
C     0.3287152    2.7253684    3.1906813 
C     0.1356769    4.1183391    3.0481610 
C    -0.6301028    4.8396808    3.9702085 
H    -1.8186476    4.7456582    5.7845203 
H    -1.4465967    2.2905388    6.0989378 
H    -0.0730604    1.0188844    4.4801915 
H     0.6002051    4.6382915    2.2055185 
H    -0.7660000    5.9174005    3.8360909 
C     4.5274754   -3.6124958    2.1508010 
C     3.1503313   -3.4589906    2.3850368 
C     2.5318086   -2.2267456    2.1492320 
C     3.2749308   -1.1279770    1.6641785 
C     4.6537268   -1.2960261    1.4220142 
C     5.2750751   -2.5261517    1.6725601 
H     5.0139020   -4.5753226    2.3383485 
H     2.5572561   -4.3027426    2.7547103 
H     1.4572282   -2.1117970    2.3254765 
H     5.2399678   -0.4578334    1.0315103 
H     6.3471562   -2.6392635    1.4820323 
C    -1.6420293   -2.2329188    1.3269985 
C    -2.0121144   -2.7026827   -0.0451140 
C    -2.0626488   -0.9687809    1.8260613 
C    -1.0704514   -2.9913844   -1.0683050 
C    -2.7564018    0.0545425    0.9519126 
C     0.4214231   -2.7991953   -0.9094728 
C    -0.9901998   -3.1293455    2.1993587 
C    -3.3845751   -2.9283081   -0.2969898 
C    -1.8251173   -0.6596435    3.1782919 
C    -1.5465741   -3.5019735   -2.2965203 
C    -1.8544532    2.9105410    0.5311680 
C    -2.3282935    1.1886528   -1.6895081 
C     2.9193448   -1.4223703   -1.4812613 
C     0.6659871   -0.5474758   -2.9062659 
C    -0.7493845   -2.7999761    3.5396959 
C    -3.8388821   -3.4100668   -1.5286156 
C    -1.1735718   -1.5584572    4.0326687 
C    -2.9094648   -3.7044329   -2.5356114 
C    -0.9968013    3.8750247   -0.0439406 
C    -2.4792425   -0.0411708   -2.3626757 
C     3.7131330   -0.3274971   -1.8873236 
C     0.6419750   -1.4491417   -3.9886313 
C    -2.9091404    3.3403602    1.3551690 
C    -2.7368117    2.3721362   -2.3372570 
C     3.5154725   -2.6891165   -1.3460242 
C     0.4457084    0.8226603   -3.1453062 
C    -1.2245442    5.2421468    0.1577253 
C    -3.0197528   -0.0909682   -3.6515737 
C     5.0723947   -0.5021438   -2.1691592 
C     0.3494873   -0.9902038   -5.2791320 
C    -3.1157423    4.7095984    1.5817200 
C    -3.2725533    2.3187881   -3.6331697 
C     4.8781243   -2.8604373   -1.6360709 
C     0.1722739    1.2831982   -4.4395257 
C    -2.2888231    5.6622361    0.9706188 
C    -3.4129905    1.0915213   -4.2953751 
C     5.6576088   -1.7737439   -2.0507545 
C     0.1086845    0.3744186   -5.5049696 
H    -3.3839650   -0.4171708    0.1814094 
H    -3.4150778    0.6958010    1.5585794 
H     0.9466153   -3.4781730   -1.6011776 
H     0.7656191   -3.0380198    0.1111893 
H    -0.7008511   -4.1159745    1.8210824 
H    -4.1018523   -2.7329954    0.5076107 
H    -2.1723426    0.3036830    3.5655149 
H    -0.8271304   -3.7522173   -3.0814235 
H    -0.2516999   -3.5182592    4.1991541 
H    -4.9086953   -3.5729691   -1.6926939 
H    -1.0168074   -1.2995904    5.0853130 
H    -3.2413759   -4.1018106   -3.5000758 
H    -0.1571873    3.5491684   -0.6708334 
H    -2.1592255   -0.9702137   -1.8871049 
H     3.2576792    0.6636844   -2.0005790 
H     0.8753275   -2.5072059   -3.8345406 
H    -3.5857762    2.6193018    1.8235207 
H    -2.6506878    3.3405462   -1.8379954 
H     2.9430155   -3.5505602   -0.9926903 
H     0.4759695    1.5270113   -2.3063051 
H    -0.5652594    5.9792003   -0.3125211 
H    -3.1175122   -1.0588766   -4.1524828 
H     5.6750135    0.3535732   -2.4910326 
H     0.3226962   -1.6983268   -6.1138904 
H    -3.9347175    5.0299726    2.2335537 
H    -3.5885322    3.2467285   -4.1212934 
H     5.3300456   -3.8509267   -1.5220839 
H    -0.0097214    2.3485530   -4.6102404 
H    -2.4655366    6.7298780    1.1362707 
H    -3.8294760    1.0565624   -5.3073389 
H     6.7197537   -1.9128853   -2.2767572 
H    -0.1199991    0.7292813   -6.5151328 
