101
Energy =
C     1.4062621    1.9622700   -1.8727107 
C     2.4431722    1.0446364   -1.5195881 
C     2.3360366   -0.3176850   -1.8700131 
H     3.2698606    1.3841659   -0.8835480 
Pd    0.5814571    0.3775860   -0.5370439 
P    -1.5158313    1.3491822   -0.2024248 
P     0.5103218   -1.5918660    0.7680879 
H     0.8323678    1.7276407   -2.7792488 
H     1.5978952   -0.5737562   -2.6464471 
C     1.6465153    6.1488497   -0.9257376 
C     1.0284860    5.7180835   -2.1089828 
C     0.9256346    4.3511394   -2.3915779 
C     1.4516686    3.3884509   -1.5027259 
C     2.0471351    3.8354589   -0.2999906 
C     2.1468378    5.2014375   -0.0170056 
H     1.7286519    7.2181816   -0.7055382 
H     0.6210727    6.4498577   -2.8137514 
H     0.4452872    4.0201839   -3.3185809 
H     2.4218365    3.1020536    0.4236930 
H     2.6139107    5.5313994    0.9169165 
C     5.2190091   -3.4321261   -1.2064497 
C     4.0876547   -3.6583174   -2.0042948 
C     3.1597654   -2.6302579   -2.2066704 
C     3.3341659   -1.3608231   -1.6055791 
C     4.4836461   -1.1484969   -0.8087957 
C     5.4146134   -2.1718838   -0.6160434 
H     5.9518199   -4.2307275   -1.0516926 
H     3.9365703   -4.6318812   -2.4819890 
H     2.2937067   -2.7955493   -2.8577912 
H     4.6523201   -0.1783910   -0.3334143 
H     6.2982534   -1.9885321    0.0029336 
C    -2.0578303   -2.6972103   -1.3822571 
C    -1.4904143   -1.7361625   -2.3794168 
C    -1.2563586   -3.4251018   -0.4634099 
C    -1.8414723   -0.3575205   -2.4040349 
C     0.2129965   -3.1419002   -0.2586620 
C    -2.6355845    0.2874490   -1.2770176 
C    -3.4486124   -2.9402930   -1.4163219 
C    -0.6682088   -2.2515537   -3.4063717 
C    -1.8741538   -4.3808885    0.3687041 
C    -1.3864222    0.4347584   -3.4800680 
C     2.1832786   -1.7758337    1.5108873 
C    -0.5924456   -1.8110859    2.2296583 
C    -1.8345491    3.0985727   -0.6791051 
C    -2.2185102    1.3389356    1.4901090 
C    -4.0475401   -3.8834567   -0.5721705 
C    -0.2080218   -1.4446970   -4.4533695 
C    -3.2520639   -4.6179852    0.3175451 
C    -0.5822550   -0.0932988   -4.4967998 
C     2.8443360   -3.0080867    1.6663665 
C    -0.0699642   -2.0238994    3.5225229 
C    -2.5581535    3.4927055   -1.8208242 
C    -3.6084543    1.4100322    1.7111106 
C     2.7846096   -0.6040745    2.0212532 
C    -1.9932982   -1.7540376    2.0623183 
C    -1.3351940    4.0917444    0.1924568 
C    -1.3359566    1.3214699    2.5871184 
C     4.0811717   -3.0667911    2.3245932 
C    -0.9327017   -2.1830974    4.6170154 
C    -2.7903189    4.8532060   -2.0784155 
C    -4.1052394    1.4440978    3.0203260 
C     4.0138326   -0.6676153    2.6896478 
C    -2.8499896   -1.9275315    3.1541009 
C    -1.5735578    5.4449800   -0.0655909 
C    -1.8363909    1.3714786    3.8946386 
C     4.6640588   -1.9018223    2.8434716 
C    -2.3220610   -2.1400085    4.4360887 
C    -2.3036198    5.8302705   -1.2010356 
C    -3.2207404    1.4264059    4.1109972 
H     0.6848038   -3.9898471    0.2619647 
H     0.7570046   -2.9706272   -1.1994736 
H    -3.0549540   -0.4753972   -0.6032435 
H    -3.4785646    0.8904739   -1.6548210 
H    -4.0600276   -2.3892975   -2.1394195 
H    -0.4262405   -3.3199974   -3.3941592 
H    -1.2587706   -4.9322442    1.0878694 
H    -1.6553149    1.4952750   -3.5136213 
H    -5.1274195   -4.0557727   -0.6242342 
H     0.4162851   -1.8737844   -5.2437383 
H    -3.7023916   -5.3663371    0.9772020 
H    -0.2512419    0.5476939   -5.3202067 
H     2.4081077   -3.9317284    1.2757332 
H     1.0112511   -2.0689761    3.6812742 
H    -2.9728971    2.7509125   -2.5098530 
H    -4.3042223    1.4462922    0.8655712 
H     2.2774295    0.3607537    1.8930278 
H    -2.4225534   -1.5771469    1.0734125 
H    -0.7711003    3.8035393    1.0855246 
H    -0.2564950    1.2499003    2.4102497 
H     4.5905409   -4.0300495    2.4300685 
H    -0.5120342   -2.3473162    5.6145883 
H    -3.3644632    5.1438314   -2.9643426 
H    -5.1858289    1.4922461    3.1907153 
H     4.4656202    0.2466479    3.0884181 
H    -3.9323816   -1.8832546    3.0005365 
H    -1.1823748    6.2020906    0.6208061 
H    -1.1460406    1.3470197    4.7433530 
H     5.6268737   -1.9544117    3.3621281 
H    -2.9924276   -2.2662889    5.2925491 
H    -2.4907877    6.8902878   -1.4004939 
H    -3.6136892    1.4530745    5.1325604 
