101
Energy =
C     1.8608164    2.3223745   -0.7022135 
C     2.7646330    1.2512119   -0.4216911 
C     2.7546787    0.0863196   -1.2173932 
H     3.3892922    1.2953461    0.4791147 
Pd    0.7064013    0.4768241   -0.2220796 
P    -1.4028474    1.4750527   -0.1369826 
P     0.2854975   -1.7875741    0.3084623 
H     1.5550896    2.4441729   -1.7501262 
H     2.2519914    0.1573006   -2.1949483 
C     1.8249463    5.9376171    1.6245783 
C     2.0536350    4.7051946    2.2590302 
C     2.0386652    3.5197110    1.5171574 
C     1.8022039    3.5429279    0.1226664 
C     1.5437922    4.7856410   -0.4955269 
C     1.5622526    5.9719807    0.2471412 
H     1.8405696    6.8656470    2.2052866 
H     2.2419283    4.6705674    3.3372727 
H     2.1971706    2.5600779    2.0231019 
H     1.3410369    4.8184801   -1.5713453 
H     1.3670016    6.9268246   -0.2511292 
C     5.3348871   -3.3331473   -0.9027162 
C     5.3706242   -2.3460017    0.0969914 
C     4.5329330   -1.2308541    0.0197679 
C     3.6409083   -1.0737557   -1.0668491 
C     3.6295830   -2.0673770   -2.0747257 
C     4.4617011   -3.1896487   -1.9911845 
H     5.9934953   -4.2052747   -0.8368658 
H     6.0546292   -2.4499474    0.9448605 
H     4.5724461   -0.4788544    0.8124763 
H     2.9720142   -1.9370247   -2.9418859 
H     4.4405677   -3.9451902   -2.7833712 
C    -1.6078063   -1.9388473   -2.6635145 
C    -0.7925407   -0.7683104   -3.1162502 
C    -1.0829571   -2.9839687   -1.8579654 
C    -1.1209834    0.5743574   -2.7789115 
C     0.2770368   -2.9073264   -1.2055819 
C    -2.1900430    0.9028537   -1.7461311 
C    -2.9380508   -2.0371860   -3.1273926 
C     0.2742831   -1.0081579   -4.0109706 
C    -1.9015431   -4.0943009   -1.5669039 
C    -0.3898043    1.6191206   -3.3844655 
C     1.6963496   -2.3388247    1.3528322 
C    -1.1703507   -2.3559855    1.2876310 
C    -1.5847052    3.3064741   -0.0857302 
C    -2.5322088    0.9967185    1.2244685 
C    -3.7417348   -3.1410536   -2.8165000 
C     1.0013031    0.0408960   -4.5852839 
C    -3.2147790   -4.1829241   -2.0413761 
C     0.6567550    1.3658683   -4.2787123 
C     2.1477785   -1.4361626    2.3408857 
C    -2.4745407   -2.1274678    0.7971756 
C    -1.3536306    3.9307734    1.1601543 
C    -1.9738003    0.5594731    2.4408875 
C     2.2804991   -3.6166599    1.2751891 
C    -1.0150988   -3.0052897    2.5302477 
C    -1.9622990    4.0987359   -1.1868271 
C    -3.9306617    1.1174703    1.0995600 
C     3.1511064   -1.8110559    3.2435102 
C    -3.5933840   -2.5565928    1.5184037 
C    -1.5160320    5.3123195    1.3008212 
C    -2.8042447    0.2428308    3.5237516 
C     3.2939640   -3.9847561    2.1717856 
C    -2.1404767   -3.4214017    3.2568615 
C    -2.1195231    5.4862952   -1.0416253 
C    -4.7581204    0.7844998    2.1795815 
C     3.7257637   -3.0887695    3.1602941 
C    -3.4299111   -3.2027961    2.7525423 
C    -1.9015989    6.0946346    0.2008614 
C    -4.1961205    0.3493398    3.3908034 
H     0.5930992   -3.9129696   -0.8870723 
H     1.0533017   -2.4975168   -1.8687928 
H    -2.7758378    0.0076632   -1.4868312 
H    -2.8994898    1.6649700   -2.1104422 
H    -3.3325891   -1.2369418   -3.7631791 
H     0.5019105   -2.0440482   -4.2853726 
H    -1.5019503   -4.8942817   -0.9341923 
H    -0.6358019    2.6565442   -3.1371459 
H    -4.7676949   -3.1940008   -3.1947725 
H     1.8142530   -0.1734988   -5.2865255 
H    -3.8255429   -5.0579988   -1.7982524 
H     1.1991307    2.1998389   -4.7356188 
H     1.7021182   -0.4347776    2.3985055 
H    -2.6218353   -1.6141406   -0.1557142 
H    -1.0619926    3.3304897    2.0281663 
H    -0.8864014    0.4516805    2.5273426 
H     1.9568676   -4.3362070    0.5176941 
H    -0.0165357   -3.1911113    2.9357860 
H    -2.1643734    3.6482044   -2.1631126 
H    -4.3756657    1.4771533    0.1653059 
H     3.4864949   -1.1048542    4.0102063 
H    -4.5945298   -2.3721287    1.1174969 
H    -1.3356640    5.7803196    2.2733512 
H    -2.3649141   -0.1058486    4.4633448 
H     3.7474894   -4.9781216    2.0945363 
H    -2.0037068   -3.9239915    4.2200601 
H    -2.4250404    6.0874662   -1.9042747 
H    -5.8449964    0.8719122    2.0791424 
H     4.5131838   -3.3835298    3.8616231 
H    -4.3059086   -3.5298866    3.3221387 
H    -2.0307548    7.1758885    0.3134841 
H    -4.8470569    0.0902781    4.2321352 
