101
Energy =
C     1.7576972    1.9071924   -1.6202182 
C     2.6992260    0.9948925   -1.0522364 
C     2.6461555   -0.3762740   -1.3804981 
H     3.3941893    1.3480043   -0.2804552 
Pd    0.6788817    0.3618265   -0.4235781 
P     0.3413436   -1.5746540    0.8878373 
P    -1.4351886    1.3509196   -0.5146209 
H     1.3623058    1.6485176   -2.6117195 
H     2.0672008   -0.6496074   -2.2768889 
C     1.8534030    6.1188880   -0.7637582 
C     1.4592655    5.6553021   -2.0276326 
C     1.3991821    4.2809325   -2.2854957 
C     1.7458542    3.3432179   -1.2883618 
C     2.1141485    3.8237308   -0.0098713 
C     2.1711671    5.1971571    0.2477283 
H     1.9022870    7.1939905   -0.5625707 
H     1.1942426    6.3672148   -2.8157048 
H     1.0943309    3.9243141   -3.2751866 
H     2.3434941    3.1110010    0.7908802 
H     2.4617025    5.5531040    1.2417742 
C     5.3185306   -3.4854940   -0.0994929 
C     4.3641978   -3.7250310   -1.0992771 
C     3.5022601   -2.6982877   -1.5013562 
C     3.5655174   -1.4166198   -0.9044624 
C     4.5383038   -1.1907215    0.0974155 
C     5.4047624   -2.2131647    0.4910733 
H     6.0001218   -4.2832636    0.2131101 
H     4.3020355   -4.7083628   -1.5768215 
H     2.7795627   -2.8748156   -2.3063495 
H     4.6179200   -0.2109179    0.5760027 
H     6.1509798   -2.0195457    1.2678014 
C    -1.0260851   -1.7828993   -2.5813542 
C    -1.7783852   -2.7197027   -1.6889408 
C    -1.3556285   -0.4039054   -2.7006486 
C    -1.1702048   -3.4295663   -0.6198936 
C    -2.3418899    0.2688802   -1.7566712 
C     0.2353542   -3.1451066   -0.1461682 
C    -0.0291911   -2.3237264   -3.4238592 
C    -3.1395501   -2.9588108   -1.9796624 
C    -0.7003357    0.3628455   -3.6881476 
C    -1.9406315   -4.3653659    0.1000430 
C    -2.4455228    1.3862038    1.0143344 
C    -1.6414449    3.0896715   -1.0826287 
C    -1.0250726   -1.7565853    2.1129847 
C     1.8366640   -1.7496109    1.9449059 
C     0.6254801   -1.5418834   -4.3825861 
C    -3.8937411   -3.8816715   -1.2444398 
C     0.2762805   -0.1904837   -4.5243306 
C    -3.2856956   -4.5995091   -0.2056895 
C    -3.8511403    1.4760178    0.9661147 
C    -2.1428162    3.4602310   -2.3450148 
C    -2.3668124   -1.6959163    1.6775519 
C     2.4370164   -2.9823929    2.2607417 
C    -1.7871078    1.3851335    2.2589775 
C    -1.2979637    4.1004788   -0.1576533 
C    -0.7637238   -1.9419703    3.4867288 
C     2.3439912   -0.5683662    2.5298198 
C    -4.5864256    1.5447013    2.1563403 
C    -2.3110384    4.8154879   -2.6709009 
C    -3.4195147   -1.8390188    2.5871478 
C     3.5216913   -3.0319950    3.1480709 
C    -2.5254757    1.4695653    3.4465567 
C    -1.4720674    5.4484594   -0.4850527 
C    -1.8227088   -2.0709606    4.3975243 
C     3.4187504   -0.6224169    3.4263791 
C    -3.9248811    1.5428708    3.3951299 
C    -1.9811826    5.8104960   -1.7422092 
C    -3.1506786   -2.0243509    3.9512364 
C     4.0092768   -1.8569305    3.7377629 
H    -3.0947759    0.8658264   -2.2984049 
H    -2.8855053   -0.4771979   -1.1571121 
H     0.9481634   -2.9932590   -0.9703257 
H     0.5961939   -3.9831199    0.4702571 
H     0.1988696   -3.3921773   -3.3430540 
H    -3.5997694   -2.4213668   -2.8161067 
H    -0.9492270    1.4235986   -3.7931051 
H    -1.4758076   -4.9032156    0.9334859 
H     1.3841203   -1.9903967   -5.0321690 
H    -4.9456543   -4.0515484   -1.4957486 
H     0.7607238    0.4306264   -5.2846115 
H    -3.8576422   -5.3324601    0.3718876 
H    -4.3734388    1.4999631    0.0032933 
H    -2.4329887    2.7044115   -3.0808757 
H    -2.5956422   -1.5395090    0.6209858 
H     2.0707595   -3.9137379    1.8195594 
H    -0.6948386    1.2987458    2.2915381 
H    -0.9082942    3.8302998    0.8293261 
H     0.2660378   -1.9881816    3.8522382 
H     1.8857012    0.3966017    2.2779360 
H    -5.6789352    1.6075446    2.1177093 
H    -2.7129693    5.0881244   -3.6522658 
H    -4.4515358   -1.7922828    2.2267297 
H     3.9869844   -3.9959641    3.3775517 
H    -2.0088406    1.4578197    4.4111491 
H    -1.2032249    6.2195865    0.2432620 
H    -1.6037509   -2.2135834    5.4609199 
H     3.7974956    0.2994790    3.8798870 
H    -4.5039727    1.5964591    4.3227616 
H    -2.1185669    6.8664659   -1.9961428 
H    -3.9746614   -2.1268172    4.6649250 
H     4.8523234   -1.9020783    4.4349543 
