101
Energy =
C     1.7910360   -0.7750081    2.2886138 
C     1.8035779    0.6320064    2.3894968 
C     0.5988129    1.3446010    2.6783036 
H     2.7136274    1.1920120    2.1411226 
Pd    0.3640366    0.2174672    0.7672598 
P    -1.6910794    1.1353608    0.1458887 
P     0.9024445   -1.2355761   -1.0161041 
H     0.9174845   -1.2953020    2.7120873 
H    -0.1525164    0.8150278    3.2796742 
C     5.1317583   -3.3877919    1.6081932 
C     5.3064846   -1.9980642    1.4934817 
C     4.2311828   -1.1306817    1.6996503 
C     2.9524067   -1.6352605    2.0332308 
C     2.7968111   -3.0360249    2.1629812 
C     3.8721793   -3.9049513    1.9455246 
H     5.9779960   -4.0629973    1.4448038 
H     6.2886509   -1.5891467    1.2371704 
H     4.3884315   -0.0534247    1.5982097 
H     1.8212073   -3.4369534    2.4608047 
H     3.7317515   -4.9854057    2.0541964 
C     0.5291638    5.6271154    3.0532063 
C    -0.3021852    4.8267105    3.8505879 
C    -0.2967740    3.4353417    3.6978083 
C     0.5516712    2.8162712    2.7543282 
C     1.3648435    3.6369237    1.9379257 
C     1.3561143    5.0272534    2.0887881 
H     0.5254647    6.7153617    3.1734141 
H    -0.9613571    5.2882710    4.5926543 
H    -0.9463026    2.8149078    4.3244128 
H     1.9972250    3.1777373    1.1689412 
H     1.9939671    5.6483297    1.4510574 
C    -1.9529249   -3.0978350   -0.1133304 
C    -1.7966087   -2.4789054    1.2402296 
C    -0.8509465   -3.4533415   -0.9353976 
C    -2.3264223   -1.1994933    1.5667475 
C     0.5684160   -3.0455580   -0.6190496 
C    -2.8895026   -0.2694323    0.5014102 
C    -3.2590316   -3.4094599   -0.5506643 
C    -1.2023857   -3.2544900    2.2607273 
C    -1.0978876   -4.1246314   -2.1502743 
C    -2.2724156   -0.7708246    2.9106307 
C     0.2543686   -1.0323954   -2.7305036 
C     2.7192991   -1.0875275   -1.2644990 
C    -1.9332208    1.6254835   -1.6032741 
C    -2.3556978    2.6244870    0.9999339 
C    -3.4866247   -4.0641838   -1.7674400 
C    -1.1396463   -2.8032462    3.5841186 
C    -2.3969176   -4.4359519   -2.5663450 
C    -1.6916160   -1.5561345    3.9131113 
C     1.1162196   -0.7931383   -3.8212763 
C     3.2653520    0.2137613   -1.2052697 
C    -3.2173325    1.6858363   -2.1806361 
C    -1.7978191    3.8681226    0.6291774 
C    -1.1362451   -1.1050458   -2.9644451 
C     3.5611403   -2.1693698   -1.5819112 
C    -0.8080129    2.0076508   -2.3587430 
C    -3.3850212    2.5966532    1.9602285 
C     0.5949593   -0.6395841   -5.1144585 
C     4.6228285    0.4294046   -1.4744964 
C    -3.3656248    2.1079231   -3.5080365 
C    -2.2747470    5.0546716    1.1943406 
C    -1.6502917   -0.9656958   -4.2576795 
C     4.9225669   -1.9521430   -1.8384212 
C    -0.9625470    2.4444189   -3.6808872 
C    -3.8569890    3.7905154    2.5286951 
C    -0.7860551   -0.7299248   -5.3369748 
C     5.4543473   -0.6555215   -1.7927997 
C    -2.2402373    2.4883918   -4.2570756 
C    -3.3073024    5.0200749    2.1447283 
H     0.8245036   -3.1570130    0.4450755 
H     1.2698870   -3.6572991   -1.2074823 
H    -3.8750770    0.1376184    0.7841715 
H    -3.0159570   -0.7979774   -0.4558213 
H    -4.1047705   -3.1494597    0.0954307 
H    -0.8216558   -4.2493834    2.0049595 
H    -0.2492590   -4.3867591   -2.7914228 
H    -2.6815263    0.2092536    3.1755024 
H    -4.5096351   -4.2987942   -2.0787742 
H    -0.6861151   -3.4313906    4.3576334 
H    -2.5562286   -4.9580956   -3.5149833 
H    -1.6726003   -1.1965650    4.9469404 
H     2.1972252   -0.7279965   -3.6678586 
H     2.6144001    1.0593381   -0.9483619 
H    -4.1025596    1.4116266   -1.5962044 
H    -0.9979285    3.9092069   -0.1173960 
H    -1.8258079   -1.2751437   -2.1343635 
H     3.1693786   -3.1893490   -1.6297517 
H     0.1901914    1.9428258   -1.9105008 
H    -3.8514182    1.6535202    2.2602904 
H     1.2766830   -0.4540028   -5.9510673 
H     5.0324964    1.4440508   -1.4330327 
H    -4.3632264    2.1476250   -3.9577055 
H    -1.8334808    6.0101680    0.8949041 
H    -2.7309561   -1.0296769   -4.4162919 
H     5.5693443   -2.8033961   -2.0739024 
H    -0.0833995    2.7302530   -4.2664532 
H    -4.6659719    3.7538842    3.2657065 
H    -1.1890230   -0.6115197   -6.3481346 
H     6.5169157   -0.4909020   -1.9994074 
H    -2.3610721    2.8173900   -5.2943004 
H    -3.6808951    5.9502918    2.5846979 
