101
Energy =
C     1.4250686    1.9426120    2.1809188 
C     1.8018408    0.6090323    2.4663300 
C     2.6682201   -0.1094709    1.5991665 
H     1.3228159    0.0837869    3.3013867 
Pd    0.7570121    0.4830455    0.5276956 
P     1.0518040   -1.1643091   -1.1635428 
P    -1.3162337    1.4160419   -0.0307971 
H     2.0481731    2.4928443    1.4594035 
H     3.3605322    0.4783776    0.9806515 
C    -0.8590381    4.5425258    4.7284784 
C    -0.7798186    3.1729041    5.0306933 
C    -0.0579554    2.3096062    4.2019428 
C     0.5972733    2.7945754    3.0451879 
C     0.5037845    4.1748915    2.7536647 
C    -0.2117800    5.0396570    3.5881350 
H    -1.4184022    5.2187375    5.3829896 
H    -1.2727508    2.7796027    5.9260021 
H     0.0142426    1.2517119    4.4661512 
H     1.0099371    4.5703567    1.8667335 
H    -0.2668974    6.1052756    3.3458866 
C     3.8550063   -4.2051849    2.1756236 
C     2.6726945   -3.7309077    2.7693094 
C     2.2802922   -2.4009957    2.5911034 
C     3.0604727   -1.5130871    1.8131790 
C     4.2496892   -2.0017874    1.2276737 
C     4.6424087   -3.3336349    1.4083643 
H     4.1614303   -5.2470603    2.3146762 
H     2.0512646   -4.4031406    3.3706576 
H     1.3453664   -2.0535054    3.0392743 
H     4.8667067   -1.3289759    0.6225174 
H     5.5673882   -3.6920834    0.9449634 
C    -1.7016367   -2.1532203    1.3367891 
C    -1.8985873   -2.8303345    0.0158230 
C    -2.0568864   -0.7993407    1.5821174 
C    -0.8129237   -3.2708336   -0.7859691 
C    -2.5704067    0.1087035    0.4754238 
C     0.6176273   -2.8800613   -0.5017612 
C    -1.2358010   -2.9475545    2.4069143 
C    -3.2166556   -3.1225375   -0.3957889 
C    -1.9181601   -0.2959000    2.8923806 
C    -1.0875210   -4.0185446   -1.9493088 
C    -1.9113840    3.0092703    0.6890346 
C    -1.6256871    1.7668618   -1.8058498 
C     2.8394406   -1.2120940   -1.6058033 
C     0.2682218   -1.0902774   -2.8347882 
C    -1.1272026   -2.4370285    3.7050325 
C    -3.4713980   -3.8507450   -1.5649524 
C    -1.4699487   -1.0997097    3.9470407 
C    -2.3983942   -4.3165554   -2.3368704 
C    -1.4597746    4.2016322    0.0789809 
C    -2.9374884    1.8728578   -2.3103876 
C     3.5155053    0.0228665   -1.7053768 
C    -1.1380757   -1.0977955   -2.9593045 
C    -2.8188078    3.0977263    1.7616117 
C    -0.5301186    2.0056532   -2.6569227 
C     3.5337260   -2.3967039   -1.9148639 
C     1.0500346   -1.0049355   -4.0065305 
C    -1.9311214    5.4458680    0.5122591 
C    -3.1437395    2.1936371   -3.6579036 
C     4.8614339    0.0711826   -2.0913289 
C    -1.7457817   -1.0444007   -4.2176072 
C    -3.2799875    4.3475664    2.2003628 
C    -0.7404011    2.3408013   -4.0011477 
C     4.8828180   -2.3481777   -2.2957693 
C     0.4367268   -0.9397601   -5.2662378 
C    -2.8465987    5.5226070    1.5728282 
C    -2.0467483    2.4287081   -4.5027211 
C     5.5500173   -1.1177093   -2.3816331 
C    -0.9601945   -0.9631330   -5.3764884 
H    -2.7712088   -0.4704136   -0.4393251 
H    -3.5147695    0.6030035    0.7612645 
H     1.3040412   -3.6021957   -0.9703384 
H     0.8522351   -2.8413949    0.5740932 
H    -0.9825797   -3.9942492    2.2078290 
H    -4.0493687   -2.7903332    0.2337936 
H    -2.1660725    0.7498051    3.0959216 
H    -0.2517390   -4.3511854   -2.5745843 
H    -0.7864050   -3.0813135    4.5220380 
H    -4.5030369   -4.0708570   -1.8579816 
H    -1.4030354   -0.6854007    4.9585295 
H    -2.5801045   -4.8995190   -3.2452191 
H    -0.7590647    4.1552564   -0.7618053 
H    -3.7991859    1.7144366   -1.6527209 
H     2.9782515    0.9520397   -1.4769287 
H    -1.7694968   -1.1535743   -2.0702577 
H    -3.1961575    2.1982570    2.2554280 
H     0.4893161    1.9095724   -2.2653294 
H     3.0357638   -3.3687276   -1.8557174 
H     2.1414142   -0.9924772   -3.9444018 
H    -1.5848091    6.3582450    0.0157718 
H    -4.1637122    2.2677655   -4.0492252 
H     5.3734654    1.0361870   -2.1642279 
H    -2.8376183   -1.0573586   -4.2870196 
H    -3.9878550    4.3965839    3.0339261 
H     0.1161293    2.5143242   -4.6596970 
H     5.4139075   -3.2784548   -2.5219491 
H     1.0596261   -0.8756140   -6.1645348 
H    -3.2183374    6.4953718    1.9104548 
H    -2.2123370    2.6787838   -5.5556772 
H     6.6038439   -1.0837340   -2.6764033 
H    -1.4357687   -0.9128605   -6.3614100 
