101
Energy =
C     2.2109160    0.0206624    2.1605894 
C     2.1062170    1.3663840    1.7485502 
C     0.9232842    2.1295056    1.9723141 
H     2.9176107    1.8053185    1.1556254 
Pd    0.4582622    0.3652473    0.6633866 
P    -1.6991651    1.1132756    0.0866819 
P     0.7743439   -1.6602070   -0.4911008 
H     1.4797148   -0.3370236    2.9017635 
H     0.2995652    1.8574384    2.8352618 
C     5.7383851   -2.4232998    1.9228473 
C     5.6710765   -1.2283998    1.1866859 
C     4.5231557   -0.4343258    1.2304074 
C     3.4127880   -0.8121433    2.0224110 
C     3.4985537   -2.0171992    2.7581756 
C     4.6458807   -2.8169367    2.7087071 
H     6.6408721   -3.0417885    1.8846446 
H     6.5189706   -0.9177529    0.5688594 
H     4.4912052    0.4858155    0.6406320 
H     2.6629466   -2.3091288    3.4021134 
H     4.6929442   -3.7399520    3.2956595 
C     0.5159615    6.2254426    0.7055908 
C     1.3620031    5.3573397   -0.0059906 
C     1.4969822    4.0245504    0.3920104 
C     0.7864784    3.5247987    1.5098372 
C    -0.0585899    4.4095988    2.2140590 
C    -0.1900635    5.7462831    1.8176659 
H     0.4119033    7.2696361    0.3934139 
H     1.9171600    5.7240820   -0.8757706 
H     2.1550349    3.3597179   -0.1793211 
H    -0.6168941    4.0410850    3.0811373 
H    -0.8509705    6.4136560    2.3801934 
C    -2.0269546   -2.5834430    1.3618356 
C    -2.5159109   -2.5948433   -0.0514326 
C    -0.6646673   -2.8297914    1.6734822 
C    -3.0034995   -1.4183582   -0.6818872 
C     0.3800459   -3.1226790    0.6100648 
C    -3.1222037   -0.1166125    0.0675762 
C    -2.9374459   -2.3468117    2.4138809 
C    -2.5289632   -3.8099688   -0.7655972 
C    -0.2666033   -2.8061856    3.0252247 
C    -3.4433015   -1.4947744   -2.0173564 
C     0.0722476   -1.9658478   -2.1697839 
C     2.5426587   -1.8742353   -0.9824075 
C    -1.7965206    2.0560774   -1.4855231 
C    -2.4157967    2.2372774    1.3614902 
C    -2.5212274   -2.3092121    3.7504351 
C    -2.9817651   -3.8704587   -2.0880121 
C    -1.1730081   -2.5367422    4.0580729 
C    -3.4302341   -2.7036308   -2.7209207 
C    -0.3843230   -0.8742229   -2.9266175 
C     3.2926969   -3.0451817   -0.7738067 
C    -3.0085103    2.2840564   -2.1696805 
C    -2.4811539    1.7525886    2.6872719 
C     0.1931531   -3.2289178   -2.7844328 
C     3.1081099   -0.8152539   -1.7256470 
C    -0.6012954    2.5881444   -2.0105187 
C    -2.9210665    3.5155708    1.0656806 
C    -0.7182774   -1.0352975   -4.2795409 
C     4.5845694   -3.1566626   -1.3100536 
C    -3.0171416    3.0206062   -3.3624168 
C    -3.0607958    2.5323374    3.6954762 
C    -0.1491176   -3.3902665   -4.1323247 
C     4.3938603   -0.9338371   -2.2657148 
C    -0.6128226    3.3296687   -3.1988055 
C    -3.5035179    4.2917492    2.0805578 
C    -0.6003198   -2.2931038   -4.8845350 
C     5.1340694   -2.1089697   -2.0616480 
C    -1.8210194    3.5428797   -3.8791785 
C    -3.5768666    3.8041596    3.3921222 
H     1.3312656   -3.3716199    1.1085469 
H     0.1001756   -3.9784321   -0.0264398 
H    -3.2815762   -0.2979758    1.1402337 
H    -3.9977997    0.4577106   -0.2797568 
H    -3.9965310   -2.2059459    2.1712347 
H    -2.1932285   -4.7229553   -0.2618146 
H     0.7776240   -3.0223101    3.2706064 
H    -3.8059224   -0.5871591   -2.5115552 
H    -3.2500234   -2.1241025    4.5462281 
H    -2.9843992   -4.8254019   -2.6228127 
H    -0.8307097   -2.5282410    5.0980484 
H    -3.7736716   -2.7349331   -3.7592873 
H    -0.4713151    0.1100575   -2.4624617 
H     2.8830617   -3.8823604   -0.2007970 
H    -3.9539743    1.8983197   -1.7753051 
H    -2.0816262    0.7590559    2.9310037 
H     0.5742267   -4.0886546   -2.2220283 
H     2.5250848    0.0989535   -1.8940522 
H     0.3402915    2.4057206   -1.4821745 
H    -2.8529562    3.9140303    0.0490414 
H    -1.0710693   -0.1721200   -4.8535548 
H     5.1615536   -4.0710253   -1.1379616 
H    -3.9626116    3.1892371   -3.8881786 
H    -3.1121284    2.1471812    4.7192465 
H    -0.0546910   -4.3756665   -4.6002330 
H     4.8185820   -0.1096567   -2.8483523 
H     0.3226478    3.7382969   -3.5942927 
H    -3.8926367    5.2867872    1.8414272 
H    -0.8562464   -2.4225878   -5.9412893 
H     6.1393229   -2.2056524   -2.4843963 
H    -1.8325615    4.1169958   -4.8114198 
H    -4.0317717    4.4129662    4.1801759 
