101
Energy =
C     1.5892267    2.0276317    1.6472055 
C     2.1100522    0.7694339    2.0814851 
C     2.7738990   -0.0778624    1.1696010 
H     1.8959133    0.4205220    3.0992620 
Pd    0.6071368    0.3778602    0.5126554 
P     0.1321258   -1.8181337   -0.2197456 
P    -1.0036328    1.6878268   -0.5563499 
H     2.1151969    2.5159710    0.8157521 
H     3.1168327    0.3785736    0.2276346 
C    -0.4191987    4.7070948    4.3441131 
C    -0.6089729    3.3209350    4.4718100 
C     0.0162742    2.4414840    3.5821041 
C     0.8508534    2.9300703    2.5496862 
C     1.0072365    4.3267262    2.4148557 
C     0.3840689    5.2060518    3.3080682 
H    -0.9054830    5.3949109    5.0435036 
H    -1.2495483    2.9265292    5.2676514 
H    -0.1530706    1.3622581    3.6752486 
H     1.6353485    4.7215712    1.6091972 
H     0.5229376    6.2856221    3.1921837 
C     4.6491677   -3.8560284    1.9805738 
C     4.8039665   -3.2296309    0.7350102 
C     4.1841589   -1.9986701    0.4913882 
C     3.3854227   -1.3754797    1.4797122 
C     3.2458255   -2.0177843    2.7323562 
C     3.8734713   -3.2412352    2.9782312 
H     5.1384763   -4.8152375    2.1785800 
H     5.4208551   -3.6934936   -0.0416226 
H     4.3327822   -1.4916864   -0.4688741 
H     2.6413801   -1.5609874    3.5207343 
H     3.7545365   -3.7227299    3.9537022 
C     1.7412533    0.3580930   -2.7887416 
C     0.9500281   -0.7150063   -3.4686052 
C     1.1588540    1.5767248   -2.3413877 
C     0.8279199   -2.0323424   -2.9527358 
C    -0.3491594    1.7828103   -2.3168034 
C     1.3007656   -2.4147255   -1.5702571 
C     3.1417828    0.1948868   -2.6985426 
C     0.3648819   -0.4145094   -4.7182136 
C     2.0112096    2.5934637   -1.8590952 
C     0.1451160   -3.0008888   -3.7164461 
C    -2.7203536    1.0528944   -0.6468719 
C    -1.3221571    3.4197836   -0.0194360 
C    -1.5310766   -2.3634943   -0.8005159 
C     0.4165428   -2.9139624    1.2305016 
C     3.9685869    1.2073002   -2.1982616 
C    -0.3224255   -1.3856718   -5.4567274 
C     3.3984165    2.4214766   -1.7873028 
C    -0.4214702   -2.6914434   -4.9576868 
C    -3.6079000    1.4689388   -1.6593566 
C    -2.1075392    3.5886012    1.1424638 
C    -2.1072547   -1.7580968   -1.9386283 
C     0.9966321   -4.1931826    1.1482137 
C    -3.1698501    0.1787156    0.3614267 
C    -0.8603294    4.5606948   -0.7032626 
C    -2.2548004   -3.3681660   -0.1247106 
C    -0.0581067   -2.4538771    2.4787217 
C    -4.9266560    0.9967770   -1.6674707 
C    -2.4360227    4.8700916    1.5949238 
C    -3.3633763   -2.1619045   -2.4026389 
C     1.0961189   -4.9976658    2.2924444 
C    -4.4940480   -0.2785745    0.3584427 
C    -1.1884872    5.8454184   -0.2419473 
C    -3.5206224   -3.7598064   -0.5850624 
C     0.0308298   -3.2646881    3.6173607 
C    -5.3701011    0.1255594   -0.6592174 
C    -1.9790885    6.0029443    0.9032572 
C    -4.0756396   -3.1626432   -1.7253762 
C     0.6084079   -4.5404434    3.5250096 
H    -0.6450672    2.7402141   -2.7781463 
H    -0.8650826    0.9809811   -2.8669369 
H     2.2799082   -1.9844170   -1.3119963 
H     1.3763320   -3.5106274   -1.4942412 
H     3.5832298   -0.7361604   -3.0704548 
H     0.4767802    0.5985196   -5.1200939 
H     1.5760409    3.5376490   -1.5169286 
H     0.0387632   -4.0136790   -3.3128309 
H     5.0524590    1.0594149   -2.1532917 
H    -0.7610466   -1.1264718   -6.4257278 
H     4.0312661    3.2333030   -1.4145816 
H    -0.9456750   -3.4653438   -5.5270880 
H    -3.2759951    2.1656052   -2.4370967 
H    -2.4775428    2.7131003    1.6859197 
H    -1.5732569   -0.9679274   -2.4714601 
H     1.3789151   -4.5753716    0.1975330 
H    -2.4709432   -0.1549958    1.1371575 
H    -0.2632101    4.4685190   -1.6153982 
H    -1.8340101   -3.8508150    0.7618784 
H    -0.5026896   -1.4528275    2.5496796 
H    -5.6134473    1.3153658   -2.4585434 
H    -3.0475836    4.9838267    2.4951619 
H    -3.7889437   -1.6816417   -3.2888097 
H     1.5588006   -5.9869860    2.2173821 
H    -4.8349155   -0.9655500    1.1390612 
H    -0.8314639    6.7228876   -0.7910502 
H    -4.0704621   -4.5405834   -0.0491873 
H    -0.3483059   -2.8996678    4.5775829 
H    -6.4017999   -0.2407728   -0.6697696 
H    -2.2389701    7.0055218    1.2578530 
H    -5.0632537   -3.4720159   -2.0827274 
H     0.6830488   -5.1752489    4.4139733 
