53
Energy =
C     0.4912245   -1.2368617   -1.8749860 
C     1.5022053   -0.3245611   -1.4617870 
C     2.2161665   -0.5540061   -0.2499223 
H     1.5897477    0.6478700   -1.9619640 
Pd    0.0343069   -0.4638612    0.1619620 
P    -0.0375638    0.3013610    2.3515852 
P    -2.2846864   -0.5796067    0.2484595 
H     0.6051993   -2.2833199   -1.5504158 
H     2.3482414   -1.6031887    0.0579791 
C    -2.3866932   -0.7280531   -5.0370820 
C    -2.2001458   -1.9784499   -4.4276814 
C    -1.2436112   -2.1301533   -3.4156529 
C    -0.4574538   -1.0352702   -2.9872568 
C    -0.6551436    0.2176152   -3.6127700 
C    -1.6061338    0.3666221   -4.6278548 
H    -3.1308852   -0.6071147   -5.8306501 
H    -2.7955571   -2.8398544   -4.7474233 
H    -1.0963949   -3.1113138   -2.9488604 
H    -0.0700976    1.0882877   -3.2985416 
H    -1.7424999    1.3434616   -5.1032056 
C     4.8986560    2.1722686    1.7331775 
C     4.9250049    0.8000543    2.0232980 
C     4.0557197   -0.0756205    1.3594275 
C     3.1402694    0.4017263    0.3934194 
C     3.1258733    1.7881977    0.1112614 
C     3.9976457    2.6610357    0.7716441 
H     5.5788663    2.8579365    2.2483286 
H     5.6306732    0.4083879    2.7632003 
H     4.0895068   -1.1484743    1.5823971 
H     2.4182736    2.1919982   -0.6210866 
H     3.9745665    3.7303955    0.5371720 
C    -1.7910000    0.0493094    2.9494329 
C    -2.7963752    0.3116048    1.8116187 
C     1.0366594   -0.4532242    3.6361999 
C     0.2775484    2.1081896    2.5012607 
C    -3.2814042    0.1818411   -1.0935331 
C    -2.9714504   -2.2811440    0.4124868 
H    -1.8565468   -0.9998312    3.2932863 
H    -1.9956914    0.6933631    3.8238114 
H    -3.8203264    0.0153507    2.1030245 
H    -2.8271983    1.3881101    1.5599141 
H     0.8624840   -1.5410079    3.6724017 
H     0.8366004   -0.0110824    4.6274945 
H     2.0880604   -0.2680602    3.3570534 
H     1.3107331    2.3095774    2.1701438 
H     0.1491323    2.4425696    3.5453773 
H    -0.4147876    2.6618251    1.8461112 
H    -2.9860680    1.2360500   -1.2177621 
H    -4.3585831    0.1200973   -0.8606707 
H    -3.0741395   -0.3526096   -2.0358927 
H    -4.0646153   -2.2519557    0.5628038 
H    -2.4942406   -2.7980500    1.2611192 
H    -2.7440719   -2.8384316   -0.5118529 
