119
Energy =
C    -0.1361299   -0.0737950   -3.0144978 
C     0.0571849    1.3039432   -2.7061462 
C     1.3251415    1.8109803   -2.3612286 
H    -0.8123969    1.9688226   -2.6627452 
Pd    0.5617593    0.1556864   -0.8755570 
P     1.6648346    1.1354823    0.9845716 
P     0.4392312   -2.1054363   -0.2465208 
H     0.7409496   -0.6209945   -3.3859463 
H     2.1919841    1.1825916   -2.6062306 
C    -3.8822466   -1.7925476   -4.2683976 
C    -2.6720817   -2.4679234   -4.4847627 
C    -1.4625590   -1.9004225   -4.0697797 
C    -1.4300710   -0.6403749   -3.4304354 
C    -2.6582840    0.0398702   -3.2431503 
C    -3.8689223   -0.5314157   -3.6510106 
H    -4.8291670   -2.2397776   -4.5865635 
H    -2.6687683   -3.4462644   -4.9744297 
H    -0.5252645   -2.4373741   -4.2431212 
H    -2.6670100    1.0297490   -2.7763381 
H    -4.8064040    0.0117789   -3.4913230 
C     2.3907190    5.9398170   -1.8545408 
C     3.3755675    4.9415251   -1.8736139 
C     3.0086502    3.5976763   -2.0047547 
C     1.6485783    3.2221338   -2.1188357 
C     0.6670818    4.2401439   -2.0752552 
C     1.0352499    5.5816648   -1.9517195 
H     2.6745553    6.9933521   -1.7642378 
H     4.4341028    5.2098279   -1.7959952 
H     3.7817973    2.8231836   -2.0287039 
H    -0.3943250    3.9863221   -2.1561338 
H     0.2617844    6.3558495   -1.9305244 
O    -3.1726412   -2.9485983    1.1177252 
O    -1.4859310    1.2020194    2.1269486 
N    -2.8201843   -1.1025525   -0.1943637 
N    -2.2785404    1.8355838    0.0723845 
C    -3.6869779   -0.2372822    0.6177089 
C    -3.6298933    1.2368642    0.1567242 
C    -5.1621655   -0.7078811    0.5623077 
C    -4.5363643    2.1138428    1.0523104 
C    -6.0688501    0.1478875    1.4571078 
C    -5.9930261    1.6277359    1.0586984 
C    -2.7132970   -2.4379908    0.0978232 
C    -1.4151723    1.9270845    1.1319932 
C    -2.0204998   -3.3048785   -0.9391481 
C    -0.4095048    3.0586667    1.0765333 
C    -0.6264890   -3.2810591   -1.1994056 
C     0.9946311    2.8559491    1.1273298 
C    -2.8210990   -4.2817049   -1.5566718 
C    -0.9293873    4.3657963    1.1434369 
C    -0.0775933   -4.2346956   -2.0810521 
C     1.8359945    3.9806064    1.2091214 
C    -2.2695175   -5.2102023   -2.4472109 
C    -0.0796432    5.4716917    1.2706648 
C    -0.8931063   -5.1867167   -2.7080419 
C     1.3055539    5.2754414    1.2944153 
C     2.1755101   -2.6424388   -0.5850701 
C     0.0450788   -2.6318835    1.4593649 
C     3.4768160    1.2435353    0.6564835 
C     1.7201849    0.5015818    2.7121394 
C     3.0210967   -3.1331405    0.4289284 
C     0.1631676   -3.9941938    1.8153403 
C     4.3489469    1.8666236    1.5771464 
C     2.5237641   -0.6325974    2.9548910 
C     2.7088287   -2.4501776   -1.8808207 
C    -0.5010850   -1.7139794    2.3687419 
C     4.0213704    0.5763814   -0.4563393 
C     1.0165266    1.0984018    3.7736232 
C     4.3689005   -3.4134144    0.1546365 
C    -0.2214334   -4.4119434    3.0933407 
C     5.7290837    1.8807197    1.3411737 
C     2.6029243   -1.1783223    4.2398282 
C     4.0484792   -2.7496000   -2.1558420 
C    -0.8990128   -2.1426409    3.6413015 
C     5.4058755    0.5738685   -0.6803059 
C     1.1067336    0.5496460    5.0613263 
C     4.8862156   -3.2243774   -1.1337937 
C    -0.7510808   -3.4857453    4.0079665 
C     6.2599185    1.2412019    0.2084461 
C     1.8888056   -0.5904046    5.2957895 
H    -3.3276559   -0.3050562    1.6572135 
H    -4.0216483    1.2712785   -0.8771583 
H    -5.5072426   -0.6610181   -0.4905282 
H    -5.1932615   -1.7621802    0.8772817 
H    -4.1214124    2.0938680    2.0774026 
H    -4.4773629    3.1589463    0.6953380 
H    -5.7512109    0.0312226    2.5111615 
H    -7.1093636   -0.2169192    1.3982546 
H    -6.4254504    1.7591970    0.0470638 
H    -6.5920728    2.2545366    1.7427061 
H    -2.6018685   -0.8158635   -1.1512677 
H    -2.1700121    2.5630185   -0.6334094 
H    -3.8892279   -4.3109876   -1.3191981 
H    -2.0159603    4.5090482    1.1282054 
H     1.0006027   -4.2577872   -2.2620778 
H     2.9205498    3.8548507    1.1871847 
H    -2.9103526   -5.9594977   -2.9231492 
H    -0.4991002    6.4804968    1.3381170 
H    -0.4443087   -5.9208954   -3.3851549 
H     1.9850303    6.1304046    1.3631788 
H     2.6285793   -3.2955621    1.4367989 
H     0.5375690   -4.7260316    1.0907955 
H     3.9513133    2.3184280    2.4920310 
H     3.0951990   -1.0799000    2.1357465 
H     2.0710323   -2.0619650   -2.6818784 
H    -0.6560297   -0.6731841    2.0807157 
H     3.3591051    0.0261966   -1.1320052 
H     0.3840633    1.9707510    3.5960162 
H     5.0146850   -3.7871323    0.9560220 
H    -0.1282652   -5.4671966    3.3701625 
H     6.3956600    2.3769098    2.0541883 
H     3.2221147   -2.0635971    4.4176659 
H     4.4404762   -2.6053911   -3.1682226 
H    -1.3315764   -1.4177203    4.3370642 
H     5.8128273    0.0375077   -1.5435204 
H     0.5571413    1.0175272    5.8847322 
H     5.9372009   -3.4481025   -1.3433773 
H    -1.0653499   -3.8219351    5.0016997 
H     7.3410030    1.2449302    0.0344611 
H     1.9471278   -1.0179783    6.3020318 
