119
Energy =
C    -1.9261761    0.2558582   -2.3507499 
C    -0.9164619    1.2101606   -2.6229931 
C     0.4528764    0.8550533   -2.7018889 
H    -1.1961790    2.2680880   -2.6917838 
Pd   -0.4183923    0.4517809   -0.6061852 
P     1.3501160    1.2262585    0.7229041 
P    -1.9398738   -0.3451030    1.0442197 
H    -1.6882176   -0.7966611   -2.5503345 
H     0.6699194   -0.2117973   -2.8653359 
C    -6.1534829    1.0515460   -2.3153490 
C    -5.6669353   -0.2536942   -2.4743996 
C    -4.2882891   -0.4938787   -2.4715362 
C    -3.3645789    0.5629214   -2.3120326 
C    -3.8718241    1.8760751   -2.1679516 
C    -5.2479754    2.1156463   -2.1661037 
H    -7.2314729    1.2425807   -2.3127359 
H    -6.3622882   -1.0901085   -2.5994276 
H    -3.9132188   -1.5154236   -2.5964928 
H    -3.1867416    2.7208079   -2.0474049 
H    -5.6194934    3.1381066   -2.0434757 
C     3.6634569    3.4372380   -3.9365787 
C     3.8739443    2.0621746   -3.7599221 
C     2.8253871    1.2396707   -3.3360070 
C     1.5386304    1.7702207   -3.0840678 
C     1.3436042    3.1604911   -3.2681213 
C     2.3936793    3.9826411   -3.6872464 
H     4.4834134    4.0818287   -4.2687481 
H     4.8606239    1.6281409   -3.9473271 
H     3.0025253    0.1675257   -3.1988434 
H     0.3550949    3.6050524   -3.1133685 
H     2.2186848    5.0536943   -3.8320794 
O    -0.0059592   -2.9332869    0.6276816 
O     4.4097539   -1.5609624    0.6017529 
N     0.0431020   -2.7301129   -1.6563093 
N     2.6707676   -1.4737069   -0.8818648 
C     1.3724060   -3.3281128   -1.9323977 
C     2.5109464   -2.9344541   -0.9629812 
C     1.2302670   -4.8668815   -2.0020545 
C     3.8143686   -3.6024752   -1.4698995 
C     2.5319003   -5.5586201   -2.4297874 
C     3.6904529   -5.1310835   -1.5202825 
C    -0.5975466   -2.7870041   -0.4440230 
C     3.6583828   -0.9009682   -0.1127790 
C    -2.1100008   -2.7340298   -0.4671808 
C     3.9047482    0.5867642   -0.2956252 
C    -2.8403967   -1.7805493    0.2914920 
C     2.9804233    1.6347751   -0.0476276 
C    -2.7908747   -3.7767340   -1.1226690 
C     5.2242312    0.9102043   -0.6647246 
C    -4.2380465   -1.9062255    0.3685241 
C     3.3887552    2.9700679   -0.2384096 
C    -4.1834035   -3.9076635   -1.0076694 
C     5.6174870    2.2387645   -0.8552744 
C    -4.9036173   -2.9731431   -0.2558838 
C     4.6911934    3.2704244   -0.6551192 
C    -1.5130884   -0.9003304    2.7458848 
C    -3.1687784    0.9656798    1.4414475 
C     1.9403749    0.3629674    2.2238922 
C     0.6281092    2.8390902    1.2481205 
C    -1.1800275    0.0948084    3.6891550 
C    -4.1857949    0.7575702    2.4005642 
C     2.8246097    1.0214381    3.1079354 
C     0.3733844    3.1634917    2.5940783 
C    -1.5163799   -2.2530374    3.1318065 
C    -3.0115275    2.2415373    0.8727981 
C     1.6342075   -0.9933642    2.4177105 
C     0.2025522    3.7298245    0.2353859 
C    -0.8321911   -0.2607776    4.9962145 
C    -5.0589755    1.7994209    2.7345756 
C     3.3528203    0.3296923    4.2030028 
C    -0.3002219    4.3515812    2.9183295 
C    -1.1754747   -2.6015917    4.4466678 
C    -3.8754928    3.2883242    1.2231226 
C     2.1836743   -1.6843431    3.5057374 
C    -0.4513665    4.9225435    0.5648368 
C    -0.8251426   -1.6119207    5.3764893 
C    -4.9078609    3.0652538    2.1433713 
C     3.0316294   -1.0237546    4.4031249 
C    -0.7122316    5.2326959    1.9095503 
H     1.6514262   -2.9478377   -2.9340784 
H     2.2785663   -3.3177217    0.0449431 
H     0.9190953   -5.2216763   -1.0010693 
H     0.4112752   -5.1121483   -2.7038240 
H     4.0435649   -3.2032362   -2.4781382 
H     4.6336939   -3.3055162   -0.7995064 
H     2.7637431   -5.2824091   -3.4769848 
H     2.3942845   -6.6542278   -2.4134350 
H     3.5215424   -5.5166563   -0.4962854 
H     4.6407992   -5.5707281   -1.8699409 
H    -0.5760469   -2.7121465   -2.4676271 
H     1.9771633   -0.8703990   -1.3253940 
H    -2.2182315   -4.5173531   -1.6928581 
H     5.9404753    0.0930651   -0.7949540 
H    -4.8257822   -1.1524506    0.8977457 
H     2.6967376    3.7897787   -0.0303203 
H    -4.6977048   -4.7361773   -1.5048430 
H     6.6456358    2.4673014   -1.1539281 
H    -5.9918098   -3.0531382   -0.1697264 
H     4.9831454    4.3153711   -0.8002813 
H    -1.2062603    1.1493565    3.3987281 
H    -4.2749878   -0.2085845    2.9087380 
H     3.1124098    2.0634918    2.9297929 
H     0.6973398    2.4890135    3.3917329 
H    -1.7622845   -3.0320464    2.4068862 
H    -2.1866598    2.4174333    0.1742802 
H     0.9919802   -1.5220796    1.7105824 
H     0.3915042    3.4845660   -0.8147711 
H    -0.5660713    0.5172852    5.7190106 
H    -5.8491647    1.6290994    3.4731354 
H     4.0341908    0.8412112    4.8907681 
H    -0.4986955    4.5885180    3.9686872 
H    -1.1808265   -3.6558412    4.7424498 
H    -3.7322692    4.2789980    0.7800925 
H     1.9448618   -2.7431020    3.6425657 
H    -0.7632073    5.6088698   -0.2298110 
H    -0.5514812   -1.8921269    6.3988804 
H    -5.5859279    3.8803078    2.4173470 
H     3.4606242   -1.5647466    5.2531147 
H    -1.2331511    6.1600014    2.1689727 
