119
Energy =
C    -1.2294074   -0.2633303   -2.8067153 
C    -0.7020909    1.0395601   -2.9446019 
C     0.6948648    1.3047292   -2.8416518 
H    -1.3931179    1.8840756   -3.0513360 
Pd   -0.1037994    0.4610181   -0.9161566 
P     1.7560115    1.2863605    0.3310561 
P    -1.7593629   -0.1791896    0.7202977 
H    -0.5320033   -1.1031880   -2.9505306 
H     1.3797994    0.4997676   -3.1368891 
C    -5.3473454   -1.3542424   -3.3497134 
C    -4.3500371   -2.3367340   -3.2670969 
C    -3.0168813   -1.9667825   -3.0614463 
C    -2.6519109   -0.6062023   -2.9374458 
C    -3.6742189    0.3716142   -2.9945522 
C    -5.0042740    0.0005331   -3.2061437 
H    -6.3902372   -1.6421798   -3.5166193 
H    -4.6111799   -3.3951856   -3.3617305 
H    -2.2409254   -2.7378034   -3.0010426 
H    -3.4313891    1.4323991   -2.8810929 
H    -5.7800435    0.7712936   -3.2593926 
C     2.2666523    5.2886743   -3.2727253 
C     0.9570289    5.1011685   -2.8001792 
C     0.4524689    3.8112304   -2.6197049 
C     1.2365634    2.6747790   -2.9328028 
C     2.5591831    2.8791929   -3.3861723 
C     3.0690222    4.1730215   -3.5529209 
H     2.6615633    6.3003776   -3.4114454 
H     0.3334436    5.9660368   -2.5533976 
H    -0.5561403    3.6866292   -2.2125519 
H     3.1864690    2.0153059   -3.6249748 
H     4.0936675    4.3083939   -3.9141931 
O    -1.5074786   -4.6826602    0.7087354 
O     2.0068038   -1.2770769    0.0989712 
N    -0.5534237   -3.0045946   -0.5026473 
N     1.4710968   -2.9202193    1.5825692 
C     0.7283827   -3.6823092   -0.7098093 
C     1.4365566   -4.0374304    0.6258281 
C     0.6068199   -4.9501660   -1.5812005 
C     2.8475853   -4.5872869    0.3305782 
C     2.0009646   -5.5303091   -1.8742703 
C     2.7677031   -5.8284293   -0.5749858 
C    -1.5908519   -3.5685698    0.1769395 
C     1.8381340   -1.6538406    1.2784590 
C    -2.9029842   -2.8160350    0.1825444 
C     2.0623752   -0.6748836    2.3858118 
C    -3.0995733   -1.4095323    0.2834226 
C     2.0293325    0.7115670    2.0754032 
C    -4.0225668   -3.6665635    0.0783829 
C     2.3975948   -1.0879838    3.6880955 
C    -4.4157657   -0.9162669    0.1442052 
C     2.2953932    1.6426066    3.0969400 
C    -5.3195475   -3.1595198   -0.0219798 
C     2.6888097   -0.1514011    4.6866984 
C    -5.5097776   -1.7734239   -0.0205701 
C     2.6296620    1.2159960    4.3904291 
C    -1.3336426   -0.6309612    2.4681189 
C    -2.7323881    1.3764260    0.9795105 
C     1.5287101    3.1110795    0.5329435 
C     3.4652919    1.1054231   -0.3522952 
C    -0.8976764    0.4025261    3.3269046 
C    -3.5638046    1.5509631    2.1078281 
C     2.4457942    4.0822873    0.0873937 
C     4.5445600    1.7033668    0.3307367 
C    -1.4496950   -1.9357293    2.9866260 
C    -2.6680632    2.3983197    0.0135411 
C     0.3129029    3.5406079    1.1094556 
C     3.7282480    0.3255704   -1.4926124 
C    -0.6169437    0.1447316    4.6729247 
C    -4.3032680    2.7304810    2.2612032 
C     2.1650442    5.4472590    0.2505956 
C     5.8540971    1.5631172   -0.1504046 
C    -1.1385653   -2.1954617    4.3308150 
C    -3.4114779    3.5770734    0.1661398 
C     0.0337750    4.9021838    1.2706916 
C     5.0366565    0.1857374   -1.9722190 
C    -0.7307992   -1.1581151    5.1801115 
C    -4.2293545    3.7453467    1.2923234 
C     0.9666303    5.8623140    0.8463700 
C     6.1022862    0.8120718   -1.3082279 
H     1.3580921   -2.9525106   -1.2375090 
H     0.8302259   -4.8177615    1.1122421 
H    -0.0214769   -5.6918671   -1.0575230 
H     0.0895790   -4.6842922   -2.5210887 
H     3.4434160   -3.7910194   -0.1553920 
H     3.3470582   -4.8326273    1.2848140 
H     2.5787426   -4.8048586   -2.4808526 
H     1.9064198   -6.4470387   -2.4824960 
H     2.2538855   -6.6419083   -0.0271110 
H     3.7852682   -6.1924088   -0.8020013 
H    -0.6496727   -2.0525157   -0.8651575 
H     1.2038306   -3.1233998    2.5435039 
H    -3.8346572   -4.7441636    0.0678785 
H     2.4663857   -2.1555335    3.9204133 
H    -4.5993065    0.1590463    0.1755124 
H     2.2576872    2.7139901    2.8783345 
H    -6.1710984   -3.8407153   -0.1170455 
H     2.9631895   -0.4903040    5.6904428 
H    -6.5116049   -1.3468267   -0.1323619 
H     2.8545838    1.9583662    5.1631983 
H    -0.7988451    1.4247569    2.9515118 
H    -3.6359918    0.7622656    2.8633402 
H     3.3701971    3.7841089   -0.4130721 
H     4.3689809    2.2738796    1.2487753 
H    -1.8052311   -2.7644939    2.3725448 
H    -2.0026683    2.2703785   -0.8468830 
H    -0.4286303    2.8014235    1.4268016 
H     2.9082160   -0.2007594   -1.9841635 
H    -0.3007085    0.9657694    5.3231479 
H    -4.9433552    2.8569974    3.1404770 
H     2.8868745    6.1884080   -0.1075036 
H     6.6816645    2.0361277    0.3884364 
H    -1.2471261   -3.2151463    4.7157384 
H    -3.3408677    4.3662578   -0.5895221 
H    -0.9157983    5.2093952    1.7212936 
H     5.2257588   -0.4255128   -2.8610853 
H    -0.5093063   -1.3609326    6.2329821 
H    -4.8086923    4.6659422    1.4184569 
H     0.7536735    6.9293384    0.9698686 
H     7.1253720    0.7005358   -1.6820994 
