119
Energy =
C    -1.4758925   -0.0270669   -2.6850355 
C    -0.5615295    1.0422740   -2.8774599 
C     0.8290398    0.8218315   -2.7472206 
H    -0.9347843    2.0570086   -3.0630143 
Pd   -0.2727625    0.4024641   -0.7773320 
P     1.1534679    1.7028974    0.6293331 
P    -1.7566497   -0.5923922    0.7810178 
H    -1.1112389   -1.0426107   -2.8911082 
H     1.1472361   -0.2299156   -2.8262868 
C    -5.7483886    0.3822652   -2.9235293 
C    -4.9670211    1.4899523   -2.5521492 
C    -3.5765934    1.3716481   -2.4732024 
C    -2.9365141    0.1421908   -2.7566399 
C    -3.7333690   -0.9592916   -3.1425608 
C    -5.1255733   -0.8378980   -3.2240673 
H    -6.8378291    0.4748923   -2.9823984 
H    -5.4466780    2.4472892   -2.3226617 
H    -2.9802650    2.2446765   -2.1835010 
H    -3.2425083   -1.9091433   -3.3770805 
H    -5.7266490   -1.7028928   -3.5220946 
C     3.9668215    3.5742905   -3.7586223 
C     4.2180231    2.1970692   -3.6696349 
C     3.1913345    1.3210979   -3.3031067 
C     1.8887087    1.7990816   -3.0300782 
C     1.6555279    3.1922149   -3.1084353 
C     2.6840323    4.0677314   -3.4685163 
H     4.7678645    4.2620259   -4.0483342 
H     5.2164951    1.8041999   -3.8849053 
H     3.3938792    0.2453649   -3.2451869 
H     0.6643276    3.5981748   -2.8900749 
H     2.4828279    5.1422418   -3.5287910 
O    -1.2915032   -3.3162834   -2.6023772 
O     3.4488863   -1.3850738    1.5734070 
N    -0.2379064   -3.0317823   -0.6038306 
N     2.3844471   -1.5740977   -0.4377905 
C     1.0309777   -3.5652970   -1.1192674 
C     2.2399759   -3.0354050   -0.3287285 
C     0.9879303   -5.1125935   -1.0915648 
C     3.5506978   -3.7141352   -0.7928252 
C     2.2953616   -5.7545920   -1.5726266 
C     3.4795522   -5.2458066   -0.7397393 
C    -1.3578905   -3.0698816   -1.3904660 
C     3.1351121   -0.8931660    0.4869138 
C    -2.7091720   -2.8078243   -0.7642613 
C     3.6601528    0.4730237    0.0849757 
C    -3.0474163   -1.7141655    0.0770716 
C     2.9296723    1.6885862    0.1211455 
C    -3.7283283   -3.6794338   -1.1981189 
C     5.0342773    0.4986951   -0.2276416 
C    -4.4007943   -1.5034627    0.4108602 
C     3.5917817    2.8881170   -0.2105528 
C    -5.0593105   -3.4898681   -0.8145915 
C     5.6803117    1.6989841   -0.5408698 
C    -5.3993345   -2.3832233   -0.0257856 
C     4.9515611    2.8950500   -0.5414589 
C    -1.0405467   -1.6942565    2.0813286 
C    -2.7090055    0.6681327    1.7254330 
C     1.2316612    1.5343391    2.4684596 
C     0.5873215    3.4565549    0.5002756 
C    -1.8411084   -2.6521698    2.7460579 
C    -3.0497683    1.8615921    1.0585059 
C     0.0637347    1.8559087    3.1934580 
C     1.1242710    4.4492762    1.3492296 
C     0.3263183   -1.6052402    2.3980319 
C    -3.0501182    0.5141700    3.0841170 
C     2.3750106    1.0889881    3.1594804 
C    -0.4413013    3.8042348   -0.3935050 
C    -1.2736928   -3.4783465    3.7264059 
C    -3.7149644    2.8903927    1.7364053 
C     0.0315530    1.7016243    4.5837457 
C     0.6565231    5.7672642    1.2739350 
C     0.8935511   -2.4359357    3.3727908 
C    -3.7186472    1.5453702    3.7593676 
C     2.3333815    0.9360497    4.5533937 
C    -0.9145016    5.1221333   -0.4632988 
C     0.0907133   -3.3704618    4.0430383 
C    -4.0476675    2.7348628    3.0911081 
C     1.1639203    1.2316533    5.2672702 
C    -0.3611457    6.1069500    0.3671688 
H     1.0998042   -3.2377200   -2.1729855 
H     2.0947836   -3.2448649    0.7456188 
H     0.7783523   -5.4294482   -0.0507389 
H     0.1359934   -5.4357845   -1.7132147 
H     3.7589479   -3.3886407   -1.8318385 
H     4.3703402   -3.3347684   -0.1583560 
H     2.4576352   -5.5068360   -2.6396864 
H     2.2150158   -6.8540767   -1.5119093 
H     3.3614694   -5.5717060    0.3119865 
H     4.4301445   -5.6762894   -1.1003968 
H    -0.3616303   -3.0308762    0.4117052 
H     2.3213868   -1.1642938   -1.3690563 
H    -3.4544517   -4.5007329   -1.8673637 
H     5.5962114   -0.4411982   -0.2151815 
H    -4.6767137   -0.6407559    1.0239956 
H     3.0372850    3.8296011   -0.2198279 
H    -5.8310986   -4.1881921   -1.1536237 
H     6.7468136    1.6978579   -0.7875071 
H    -6.4419494   -2.1979576    0.2516799 
H     5.4372310    3.8403526   -0.8025101 
H    -2.9010238   -2.7591090    2.4921168 
H    -2.7795094    1.9816410    0.0067548 
H    -0.8162571    2.2444015    2.6729114 
H     1.8998461    4.1867744    2.0766749 
H     0.9581534   -0.8992910    1.8621490 
H    -2.7721512   -0.3950232    3.6246653 
H     3.2928892    0.8341832    2.6257159 
H    -0.8796524    3.0228113   -1.0226594 
H    -1.9001067   -4.2159936    4.2387677 
H    -3.9619348    3.8175083    1.2092008 
H    -0.8825378    1.9530155    5.1311225 
H     1.0816634    6.5312637    1.9329939 
H     1.9640174   -2.3480116    3.5796726 
H    -3.9735215    1.4216143    4.8171104 
H     3.2262368    0.5826301    5.0793677 
H    -1.7187503    5.3768057   -1.1618250 
H     0.5278151   -4.0253448    4.8041381 
H    -4.5596864    3.5409099    3.6267921 
H     1.1373265    1.1070936    6.3548149 
H    -0.7282607    7.1373274    0.3173229 
