53
Energy =
C     0.5790825   -1.0397383   -1.9665672 
C     1.5385337   -0.1222404   -1.4540809 
C     2.2438224   -0.4259327   -0.2534831 
H     1.5872976    0.8941532   -1.8639768 
Pd    0.0539971   -0.4739164    0.1214956 
P    -0.0885548    0.0842523    2.3693583 
P    -2.2581163   -0.7017096    0.1500398 
H     0.7376487   -2.1046095   -1.7333617 
H     2.4216433   -1.4911427   -0.0374215 
C    -2.2705275   -0.3861189   -5.1275921 
C    -2.0346507   -1.6755002   -4.6260760 
C    -1.0876484   -1.8718960   -3.6127857 
C    -0.3605538   -0.7842423   -3.0754095 
C    -0.6072325    0.5084514   -3.5931684 
C    -1.5486202    0.7027161   -4.6095545 
H    -3.0074373   -0.2298295   -5.9217757 
H    -2.5839044   -2.5316560   -5.0311425 
H    -0.9016654   -2.8825115   -3.2303671 
H    -0.0688240    1.3739199   -3.1929492 
H    -1.7236391    1.7103820   -5.0003590 
C     4.7626306    2.2344201    2.0136165 
C     4.8522964    0.8444289    2.1799397 
C     4.0358582   -0.0080454    1.4250182 
C     3.1112268    0.5105161    0.4895656 
C     3.0327211    1.9145586    0.3326076 
C     3.8516564    2.7646454    1.0839671 
H     5.4017305    2.9022968    2.5998862 
H     5.5666645    0.4215247    2.8938502 
H     4.1192545   -1.0938234    1.5513708 
H     2.3156877    2.3487507   -0.3726549 
H     3.7792435    3.8485117    0.9459719 
C    -2.8358594    0.0179329    1.7773449 
C    -1.8373090   -0.3017226    2.9064870 
C    -3.2659421    0.1364318   -1.1368696 
C    -2.8701033   -2.4393423    0.1429944 
C     1.0001687   -0.7351393    3.6010125 
C     0.1379436    1.8820813    2.6894954 
H    -2.9131285    1.1104645    1.6239754 
H    -3.8491864   -0.3499121    2.0200803 
H    -2.0860315    0.2493630    3.8315761 
H    -1.8586249   -1.3798837    3.1521037 
H    -3.0152679    1.2091162   -1.1590195 
H    -4.3429694    0.0081288   -0.9321914 
H    -3.0203997   -0.3002787   -2.1195504 
H    -2.6022082   -2.8989013   -0.8233139 
H    -3.9659714   -2.4709627    0.2717180 
H    -2.3853496   -3.0111890    0.9511008 
H     0.8777552   -1.8285550    3.5344459 
H     0.7636003   -0.3959444    4.6243252 
H     2.0457784   -0.4766647    3.3610187 
H    -0.0211577    2.1126427    3.7571739 
H    -0.5703731    2.4612615    2.0747714 
H     1.1650147    2.1604577    2.3973596 
