53
Energy =
C     0.6011782   -0.9893617   -1.9843785 
C     1.5036127   -0.0016563   -1.4936707 
C     2.2614433   -0.2526406   -0.3155083 
H     1.4621094    1.0153098   -1.9031404 
Pd    0.0884821   -0.4702652    0.1152121 
P    -0.0433510    0.0687941    2.3712936 
P    -2.1944677   -0.8769444    0.1970320 
H     0.8578233   -2.0412486   -1.7826107 
H     2.5040723   -1.3046768   -0.0967541 
C    -2.3221388   -0.4991605   -5.1109553 
C    -1.7785204    0.6353915   -4.4843587 
C    -0.8217335    0.4944522   -3.4731732 
C    -0.3805379   -0.7878560   -3.0692608 
C    -0.9333151   -1.9194203   -3.7119031 
C    -1.8945709   -1.7770981   -4.7213725 
H    -3.0707233   -0.3853407   -5.9014499 
H    -2.1045802    1.6361798   -4.7862233 
H    -0.4243492    1.3907933   -2.9845212 
H    -0.5949852   -2.9205980   -3.4203657 
H    -2.3045916   -2.6665421   -5.2108229 
C     4.6069286    2.5546708    1.9554903 
C     3.7435981    3.0254401    0.9514548 
C     2.9848681    2.1279930    0.1926505 
C     3.0781724    0.7347127    0.4166179 
C     3.9574572    0.2748003    1.4243910 
C     4.7122641    1.1746099    2.1878616 
H     5.1979307    3.2601454    2.5481274 
H     3.6607814    4.1005718    0.7615672 
H     2.3057501    2.5182643   -0.5726263 
H     4.0496734   -0.8027790    1.6048914 
H     5.3905150    0.7976544    2.9603110 
C    -2.6757886   -0.8652577    2.0036496 
C    -1.8655304    0.1937954    2.7758037 
C    -3.1972209    0.4517064   -0.5874872 
C    -2.8882735   -2.4324390   -0.4901890 
C     0.6217445   -1.2129967    3.5151800 
C     0.6968506    1.6384365    2.9733230 
H    -3.7628056   -0.6974864    2.1111466 
H    -2.4614262   -1.8787939    2.3909934 
H    -2.1792108    1.2132308    2.4836311 
H    -2.0222704    0.1042036    3.8660258 
H    -2.9340461    1.4263576   -0.1450000 
H    -4.2758341    0.2604967   -0.4513962 
H    -2.9569285    0.4784485   -1.6641971 
H    -2.6843299   -2.4499470   -1.5745726 
H    -3.9774600   -2.4877114   -0.3203554 
H    -2.3943570   -3.2981253   -0.0194710 
H     0.1621572   -2.1897021    3.2919003 
H     0.4252223   -0.9422300    4.5670830 
H     1.7102974   -1.2911187    3.3550192 
H     0.4666498    1.7924726    4.0417789 
H     0.3039593    2.4806069    2.3813421 
H     1.7898052    1.5918582    2.8319864 
