53
Energy =
C     0.6048700   -1.0318292   -1.9621810 
C     1.5366811   -0.0814726   -1.4584016 
C     2.2550912   -0.3556123   -0.2585313 
H     1.5519984    0.9334293   -1.8745929 
Pd    0.0689047   -0.4710499    0.1241259 
P    -0.0844749    0.0974465    2.3687900 
P    -2.2343735   -0.7748038    0.1627560 
H     0.7980035   -2.0898576   -1.7239531 
H     2.4666999   -1.4134636   -0.0367952 
C    -2.2715245   -0.4858395   -5.1195063 
C    -1.9936881   -1.7643960   -4.6117491 
C    -1.0388878   -1.9251962   -3.5995232 
C    -0.3456586   -0.8121443   -3.0694611 
C    -0.6348409    0.4693190   -3.5930299 
C    -1.5839296    0.6281617   -4.6084292 
H    -3.0144134   -0.3572974   -5.9130980 
H    -2.5161735   -2.6397566   -5.0111458 
H    -0.8200233   -2.9273760   -3.2123421 
H    -0.1234610    1.3535799   -3.1985048 
H    -1.7916410    1.6276737   -5.0041434 
C     4.6967078    2.3951172    1.9848789 
C     4.8304896    1.0095728    2.1585801 
C     4.0387056    0.1277318    1.4111874 
C     3.0950796    0.6118470    0.4761814 
C     2.9719709    2.0117986    0.3118265 
C     3.7664518    2.8913223    1.0555418 
H     5.3162964    3.0860046    2.5654043 
H     5.5598299    0.6132742    2.8726073 
H     4.1564353   -0.9541816    1.5433945 
H     2.2394050    2.4192338   -0.3934284 
H     3.6597291    3.9716036    0.9117954 
C    -2.8299914   -0.0664324    1.7886203 
C    -1.8165665   -0.3457252    2.9152161 
C    -3.2744028    0.0219872   -1.1248101 
C    -2.7877816   -2.5319641    0.1674433 
C     1.0369758   -0.6744956    3.6016804 
C     0.0802186    1.9043697    2.6753336 
H    -2.9457206    1.0219424    1.6302136 
H    -3.8290242   -0.4677420    2.0374900 
H    -2.0804736    0.2011927    3.8385719 
H    -1.7997200   -1.4226861    3.1664372 
H    -3.0626170    1.1029402   -1.1513254 
H    -4.3456241   -0.1442886   -0.9170197 
H    -3.0154151   -0.4092046   -2.1064770 
H    -2.5099510   -2.9868464   -0.7982785 
H    -3.8812327   -2.5997740    0.3025609 
H    -2.2795018   -3.0831134    0.9754545 
H     0.9512803   -1.7719288    3.5442749 
H     0.7937559   -0.3353192    4.6234342 
H     2.0720967   -0.3827911    3.3543908 
H    -0.0865892    2.1374251    3.7413074 
H    -0.6472901    2.4544949    2.0563762 
H     1.0973144    2.2151196    2.3808523 
