103
Energy =
C    -1.6510452    2.3732071    1.6038727 
C    -0.4005041    2.5081914    2.2869720 
C     0.7904443    2.7612464    1.5701504 
H    -0.3505072    2.2738382    3.3581862 
Pd   -0.2250026    0.8423962    0.8765895 
P     1.7382630   -0.4386179    0.4379567 
P    -1.7981166   -0.4183806   -0.3954801 
H    -1.8045967    2.9779355    0.6981062 
H     0.6890851    3.1398374    0.5408121 
C    -5.2414869    1.2417232    3.6936198 
C    -4.0200926    0.6288141    4.0198227 
C    -2.8513631    0.9883831    3.3411958 
C    -2.8792793    1.9650148    2.3178798 
C    -4.1142049    2.5653470    1.9956573 
C    -5.2828016    2.2107100    2.6810317 
H    -6.1565300    0.9608298    4.2251504 
H    -3.9812821   -0.1336616    4.8049968 
H    -1.9033383    0.4970519    3.5916483 
H    -4.1548387    3.3196145    1.2035361 
H    -6.2310355    2.6896986    2.4170828 
C     4.7595712    3.0699138    3.1856311 
C     4.5540702    2.9667712    1.8010657 
C     3.2545992    2.8988415    1.2890649 
C     2.1349691    2.9019152    2.1523219 
C     2.3551631    3.0324688    3.5427895 
C     3.6551638    3.1181627    4.0516184 
H     5.7758493    3.1275266    3.5884898 
H     5.4091719    2.9447198    1.1175397 
H     3.0978136    2.8206811    0.2083209 
H     1.5055166    3.0779443    4.2318452 
H     3.8094714    3.2247807    5.1303464 
C     4.0570812   -1.5310576    1.6560597 
C     4.9098912   -1.7615955    2.7421060 
C     4.6115340   -1.2162949    4.0020176 
C     3.4492225   -0.4535562    4.1789472 
C     2.5940881   -0.2175912    3.0932392 
C     2.9027323   -0.7331391    1.8217431 
C     1.4796226   -2.1539499   -0.2060008 
C     1.2389726   -3.1772288    0.7369378 
C     1.0346313   -4.4944422    0.3124162 
C     1.0501659   -4.8066424   -1.0561746 
C     1.2671216   -3.7924389   -1.9976319 
C     1.4845700   -2.4714207   -1.5776797 
C     2.6910456    0.3170410   -0.9584788 
C     4.0825113    0.3037444   -1.1684452 
C     4.5935309    0.6178710   -2.4374493 
C     3.7385290    0.8920736   -3.5205311 
C     1.8862156    0.7351040   -2.0310983 
C     2.3459986    0.9545408   -3.3361920 
O     0.5329226    0.8369253   -1.7693999 
C    -0.3083362    0.2727369   -2.7024034 
C     0.0352996    0.3852119   -4.0618307 
C     1.2809328    1.2292973   -4.4143820 
C     1.8073126    0.9167939   -5.8260363 
C     0.8754208    2.7326240   -4.3310085 
C    -0.8425084   -0.2141814   -4.9792671 
C    -2.0206164   -0.8464083   -4.5407963 
C    -2.3407356   -0.9110735   -3.1786424 
C    -1.4557099   -0.3757817   -2.2174305 
C    -3.5507302    0.1611296   -0.4051276 
C    -3.8668028    1.3117317   -1.1598054 
C    -5.1878381    1.7708620   -1.2271478 
C    -6.2035813    1.0967528   -0.5310073 
C    -5.8889368   -0.0304253    0.2399742 
C    -4.5690232   -0.5010904    0.3051386 
C    -1.9335927   -2.1718852    0.1297347 
C    -1.9617133   -2.3940810    1.5239391 
C    -2.1784987   -3.6816650    2.0304177 
C    -2.3483151   -4.7608642    1.1495461 
C    -2.2879554   -4.5484283   -0.2352447 
C    -2.0835582   -3.2595944   -0.7486918 
H     4.2714735   -1.9943893    0.6872479 
H     5.8043244   -2.3789621    2.6087356 
H     5.2800912   -1.4011201    4.8492907 
H     3.2046298   -0.0403960    5.1625587 
H     1.6767079    0.3639981    3.2275842 
H     1.2275554   -2.9456386    1.8071619 
H     0.8561985   -5.2790101    1.0542593 
H     0.8906366   -5.8385319   -1.3854647 
H     1.2821573   -4.0256940   -3.0673774 
H     1.6831427   -1.7025636   -2.3296801 
H     4.7614109    0.0327333   -0.3548870 
H     5.6762599    0.6092633   -2.5976964 
H     4.1697439    1.0611874   -4.5112215 
H     2.1022245   -0.1418212   -5.9237697 
H     1.0397866    1.1404071   -6.5851860 
H     2.6796637    1.5480474   -6.0621102 
H     0.0835304    2.9529493   -5.0671690 
H     1.7491652    3.3717041   -4.5450740 
H     0.4978965    2.9848316   -3.3257020 
H    -0.6302159   -0.1690552   -6.0511710 
H    -2.7047161   -1.2802575   -5.2766556 
H    -3.2816321   -1.3697269   -2.8580533 
H    -3.0812490    1.8359104   -1.7165815 
H    -5.4250999    2.6549852   -1.8282115 
H    -7.2372330    1.4533535   -0.5869798 
H    -6.6739450   -0.5541501    0.7948335 
H    -4.3411945   -1.3898033    0.9007194 
H    -1.8213424   -1.5491702    2.2080222 
H    -2.2097657   -3.8424417    3.1130883 
H    -2.5149589   -5.7691459    1.5425964 
H    -2.3954351   -5.3918613   -0.9249810 
H    -2.0238383   -3.1121409   -1.8302607 
