103
Energy =
C     0.7847994    0.9009501    3.2421299 
C    -0.5833918    1.2872511    3.1243283 
C    -1.5953885    0.3143958    2.9634134 
H    -0.8387667    2.3537613    3.0741405 
Pd   -0.0388512    0.2761210    1.2592862 
P    -1.6811356   -0.1956545   -0.4224523 
P     2.0484792   -0.3719817    0.3226628 
H     0.9879900   -0.0930965    3.6682960 
H    -1.3463153   -0.7162806    3.2587607 
C     3.8356898    3.8368906    3.9785841 
C     2.8503914    4.0872464    3.0083406 
C     1.8689248    3.1273837    2.7409402 
C     1.8564953    1.8968660    3.4371404 
C     2.8672041    1.6472380    4.3892663 
C     3.8420394    2.6135505    4.6645484 
H     4.6003956    4.5910650    4.1914293 
H     2.8505362    5.0342737    2.4585632 
H     1.1141625    3.3177481    1.9686418 
H     2.8818480    0.6901688    4.9214000 
H     4.6148860    2.4064840    5.4117055 
C    -5.8211472    1.0713652    2.9087030 
C    -5.3139125   -0.1488167    3.3792433 
C    -3.9361358   -0.3900252    3.3578122 
C    -3.0364362    0.5950348    2.8910978 
C    -3.5610685    1.8218263    2.4221417 
C    -4.9395758    2.0525943    2.4236655 
H    -6.9000243    1.2582035    2.9159656 
H    -5.9942216   -0.9209961    3.7518798 
H    -3.5459749   -1.3520860    3.7064439 
H    -2.8899868    2.5957226    2.0401024 
H    -5.3292569    3.0040600    2.0475028 
C    -4.4122911   -0.9215120    0.1168786 
C    -5.3807783   -1.8424853    0.5442198 
C    -4.9975220   -3.0938620    1.0464556 
C    -3.6353474   -3.4246254    1.1351351 
C    -2.6631590   -2.5106283    0.7101402 
C    -3.0489584   -1.2570880    0.1871915 
C    -2.3819978    1.4237022   -0.9594815 
C    -1.8352871    2.6097104   -0.4327892 
C    -2.3103316    3.8600666   -0.8519033 
C    -3.3342637    3.9341872   -1.8075553 
C    -3.8656251    2.7569804   -2.3587303 
C    -3.3847564    1.5065820   -1.9485289 
C    -1.3868244   -0.9482621   -2.0828662 
C    -2.2301347   -1.8717801   -2.7299279 
C    -1.9669759   -2.2374692   -4.0589755 
C    -0.8913296   -1.6742616   -4.7679881 
C    -0.3035299   -0.4411371   -2.8097621 
C    -0.0340544   -0.7463822   -4.1517926 
O     0.5528384    0.3954070   -2.1166090 
C     1.8838203    0.1862519   -2.4194774 
C     2.2611409    0.0208774   -3.7644162 
C     1.1328476    0.0136522   -4.8095001 
C     0.6728324    1.4793990   -5.0748986 
C     1.5739376   -0.6316464   -6.1334783 
C     3.6258252   -0.1872206   -4.0223977 
C     4.5526825   -0.2560007   -2.9689917 
C     4.1271728   -0.1973677   -1.6358984 
C     2.7614523    0.0025715   -1.3396571 
C     1.7012333   -2.1857898    0.2067296 
C     1.1883905   -2.8404475    1.3514347 
C     0.8069900   -4.1865664    1.2894711 
C     0.9043659   -4.8898835    0.0777730 
C     1.4006978   -4.2441240   -1.0626892 
C     1.8057504   -2.9018944   -1.0012243 
C     3.5353774   -0.1755689    1.3843117 
C     4.0505807   -1.2043985    2.1945411 
C     5.2122845   -0.9852262    2.9522161 
C     5.8714479    0.2503245    2.8963571 
C     5.3574896    1.2803935    2.0929406 
C     4.1891871    1.0762140    1.3509100 
H    -4.7232548    0.0624698   -0.2445442 
H    -6.4401470   -1.5710333    0.4946411 
H    -5.7581757   -3.8088780    1.3768534 
H    -3.3291983   -4.3981484    1.5326471 
H    -1.5998409   -2.7720621    0.7730030 
H    -1.0205264    2.5407146    0.3004174 
H    -1.8759983    4.7759140   -0.4375192 
H    -3.7079423    4.9095116   -2.1363178 
H    -4.6499674    2.8130510   -3.1207306 
H    -3.7782183    0.5952188   -2.4113530 
H    -3.0845537   -2.3012325   -2.1976471 
H    -2.6194175   -2.9618466   -4.5566038 
H    -0.7304382   -1.9602767   -5.8112479 
H     0.3485646    1.9708849   -4.1426781 
H     1.5048823    2.0618525   -5.5062689 
H    -0.1718800    1.4859604   -5.7847601 
H     2.3954874   -0.0561698   -6.5912810 
H     0.7416947   -0.6302697   -6.8567589 
H     1.9110854   -1.6721882   -5.9882375 
H     3.9747676   -0.3115330   -5.0512068 
H     5.6138357   -0.4077400   -3.1896492 
H     4.8477224   -0.3474041   -0.8271167 
H     1.0812127   -2.2925090    2.2951589 
H     0.4235387   -4.6839757    2.1866055 
H     0.5939960   -5.9384432    0.0250219 
H     1.4782631   -4.7859607   -2.0108568 
H     2.1960030   -2.4160392   -1.9002669 
H     3.5701389   -2.1871766    2.2167616 
H     5.6118739   -1.7944574    3.5723667 
H     6.7841184    0.4123125    3.4789991 
H     5.8597340    2.2516222    2.0520576 
H     3.7952095    1.8858765    0.7276609 
