103
Energy =
C    -3.1780728    0.0647676    1.4129461 
C    -2.3578688    1.0644266    1.9937013 
C    -2.0872607    2.2945314    1.3293717 
H    -1.8001494    0.8306254    2.9099361 
Pd   -1.3663003    0.5532012    0.1292124 
P     0.3915252    1.6766317   -1.0253189 
P    -0.8718863   -1.6703421   -0.5633012 
H    -3.9467665    0.3986339    0.7001827 
H    -2.8456570    2.6883487    0.6366439 
C    -3.8839986   -3.8199701    3.1262781 
C    -2.6925173   -3.1360549    3.4180297 
C    -2.4525203   -1.8726941    2.8690197 
C    -3.4018707   -1.2630754    2.0163143 
C    -4.5975024   -1.9620445    1.7359712 
C    -4.8372592   -3.2263957    2.2851741 
H    -4.0683212   -4.8110123    3.5536060 
H    -1.9397890   -3.5947717    4.0673731 
H    -1.5061108   -1.3660575    3.0838043 
H    -5.3473885   -1.5029947    1.0827691 
H    -5.7703122   -3.7508088    2.0552337 
C     0.4829077    5.1975280    3.1924364 
C     0.8080460    3.8320029    3.2561938 
C    -0.0062252    2.8872254    2.6243587 
C    -1.1658858    3.2878854    1.9198220 
C    -1.4609599    4.6639027    1.8326725 
C    -0.6479771    5.6088787    2.4720512 
H     1.1166830    5.9379926    3.6912913 
H     1.7027745    3.5037693    3.7961775 
H     0.2649979    1.8257795    2.6523476 
H    -2.3411549    4.9925328    1.2700324 
H    -0.8967057    6.6726554    2.4019284 
C    -2.0110353   -4.1339513   -1.4043252 
C    -3.0677554   -4.9324406   -1.8579528 
C    -4.3499766   -4.3821671   -2.0198841 
C    -4.5709107   -3.0269833   -1.7394394 
C    -3.5185060   -2.2287842   -1.2689354 
C    -2.2378937   -2.7784564   -1.0769787 
C     0.3369818   -1.9260173   -1.9449199 
C    -0.1691614   -1.9862565   -3.2618205 
C     0.6989912   -2.1515315   -4.3464909 
C     2.0836286   -2.2455768   -4.1374373 
C     2.5938062   -2.1764870   -2.8349282 
C     1.7273358   -2.0226157   -1.7428202 
C     0.0560228   -2.4538279    0.8415862 
C     0.0415634   -3.8033268    1.2395374 
C     1.0620581   -4.2939520    2.0687593 
C     2.1349326   -3.4765801    2.4683622 
C     1.0623636   -1.6409774    1.3926374 
C     2.1559118   -2.1120987    2.1305545 
O     0.9921633   -0.2906116    1.1003912 
C     2.1611912    0.3011085    0.6757839 
C     3.3611674   -0.1055614    1.2852443 
C     3.2557013   -1.0882149    2.4741453 
C     4.5990925   -1.7772304    2.7707247 
C     2.8016889   -0.2769880    3.7259816 
C     4.5404712    0.4773803    0.7940584 
C     4.4928256    1.4409641   -0.2295702 
C     3.2723836    1.8400479   -0.7907527 
C     2.0636238    1.2521515   -0.3565120 
C     0.3791204    3.5240456   -1.0086243 
C     1.2670575    4.2769638   -0.2158958 
C     1.2093225    5.6781286   -0.2292511 
C     0.2591753    6.3420170   -1.0157332 
C    -0.6479586    5.5965154   -1.7844883 
C    -0.5907547    4.1973487   -1.7819458 
C     0.3596552    1.3123531   -2.8316081 
C    -0.9208039    1.1998020   -3.4159547 
C    -1.0596087    1.0678179   -4.8037195 
C     0.0808264    1.0197046   -5.6185784 
C     1.3559959    1.0867041   -5.0383326 
C     1.4995752    1.2359950   -3.6517365 
H    -1.0033814   -4.5563103   -1.3365589 
H    -2.8867556   -5.9842427   -2.1024532 
H    -5.1717245   -5.0083648   -2.3825112 
H    -5.5632606   -2.5884181   -1.8869675 
H    -3.6814773   -1.1665897   -1.0600407 
H    -1.2467152   -1.9144219   -3.4400922 
H     0.2904216   -2.2008093   -5.3605845 
H     2.7603815   -2.3739541   -4.9884253 
H     3.6715468   -2.2554513   -2.6581473 
H     2.1501012   -2.0074958   -0.7350661 
H    -0.7524585   -4.4718756    0.8973952 
H     1.0436867   -5.3440335    2.3769991 
H     2.9509451   -3.9124248    3.0516306 
H     4.9545816   -2.3618089    1.9052683 
H     5.3680301   -1.0321040    3.0332956 
H     4.5040938   -2.4537514    3.6358062 
H     3.5501227    0.4965819    3.9694334 
H     2.6908064   -0.9508880    4.5925168 
H     1.8331288    0.2188383    3.5472468 
H     5.5091477    0.1987860    1.2183731 
H     5.4227151    1.8954309   -0.5850919 
H     3.2572202    2.6179408   -1.5601066 
H     1.9997402    3.7791295    0.4241492 
H     1.9075734    6.2483711    0.3915034 
H     0.2192114    7.4361162   -1.0253520 
H    -1.3983431    6.1054857   -2.3984598 
H    -1.2940777    3.6315317   -2.4013341 
H    -1.8110832    1.2087257   -2.7737368 
H    -2.0583473    0.9920427   -5.2460931 
H    -0.0231007    0.9136380   -6.7033870 
H     2.2492780    1.0209998   -5.6679728 
H     2.5012512    1.2758170   -3.2166265 
