103
Energy =
C    -0.9103960    1.7092520    2.3207438 
C    -2.0776107    0.9132574    2.2808325 
C    -2.0265515   -0.5052225    2.2519659 
H    -3.0507057    1.4079989    2.1837018 
Pd   -0.9783913    0.3786616    0.4250669 
P    -0.7149736   -1.7441022   -0.6018142 
P     0.5582367    1.6839569   -0.8323997 
H     0.0281382    1.2184056    2.6197877 
H    -1.1119338   -0.9855135    2.6301487 
C    -0.7736375    5.9943706    2.6567285 
C     0.4011184    5.2298958    2.7073760 
C     0.3347385    3.8358841    2.6103777 
C    -0.9022988    3.1756281    2.4341092 
C    -2.0802934    3.9598523    2.4043619 
C    -2.0151152    5.3507642    2.5192519 
H    -0.7259146    7.0851266    2.7364028 
H     1.3716640    5.7210808    2.8329933 
H     1.2504548    3.2404468    2.6719696 
H    -3.0590381    3.4835700    2.2878410 
H    -2.9376014    5.9402106    2.4984050 
C    -5.4760271   -3.0779186    2.3415713 
C    -4.1988506   -3.5773422    2.6348049 
C    -3.0891966   -2.7256984    2.6029080 
C    -3.2256621   -1.3612990    2.2607415 
C    -4.5217086   -0.8732312    1.9687621 
C    -5.6324103   -1.7199565    2.0163512 
H    -6.3468172   -3.7407274    2.3691193 
H    -4.0682830   -4.6322645    2.8966492 
H    -2.0973564   -3.1117335    2.8570250 
H    -4.6658746    0.1756372    1.6890824 
H    -6.6274865   -1.3221136    1.7914634 
C     2.2070578    0.5855483   -2.9010180 
C     2.5489632    0.3924835   -4.2467807 
C     1.7274160    0.8927357   -5.2665248 
C     0.5462826    1.5757712   -4.9394470 
C     0.1954747    1.7672601   -3.5982551 
C     1.0322615    1.2851178   -2.5684609 
C     0.1612242    3.4658593   -1.0204057 
C    -1.1274490    3.9207716   -0.6922193 
C    -1.4767912    5.2628983   -0.9012035 
C    -0.5407486    6.1548773   -1.4405710 
C     0.7416823    5.7014735   -1.7927410 
C     1.0905610    4.3604310   -1.5968659 
C     2.1259985    1.5931978    0.1445486 
C     2.8290631    2.6932757    0.6723923 
C     3.8814719    2.4847168    1.5760108 
C     4.2421198    1.1890672    1.9788347 
C     2.5518835    0.3090840    0.5358744 
C     3.5809020    0.0628645    1.4575607 
O     1.8656341   -0.7538935   -0.0232254 
C     1.6583656   -1.8530315    0.7906724 
C     2.6203481   -2.2054276    1.7476231 
C     3.9330827   -1.4036162    1.7624822 
C     4.6876096   -1.5521049    3.0950601 
C     4.8242545   -1.9345379    0.5972185 
C     2.3203935   -3.3143886    2.5597624 
C     1.1249365   -4.0314171    2.3873743 
C     0.1902880   -3.6550368    1.4102844 
C     0.4421819   -2.5354616    0.5958424 
C     0.0772132   -2.0219333   -2.2398685 
C    -0.5899558   -1.5256505   -3.3773418 
C    -0.1192899   -1.8366078   -4.6576046 
C     1.0227191   -2.6379236   -4.8136868 
C     1.6978381   -3.1202646   -3.6843193 
C     1.2289945   -2.8153094   -2.3981495 
C    -2.1766898   -2.8354164   -0.7738723 
C    -3.4541183   -2.2474281   -0.8038268 
C    -4.5880845   -3.0398737   -1.0289053 
C    -4.4507183   -4.4212042   -1.2227982 
C    -3.1756169   -5.0101324   -1.2147794 
C    -2.0383868   -4.2209432   -1.0049988 
H     2.8651108    0.2017258   -2.1175314 
H     3.4660456   -0.1505057   -4.4962539 
H     2.0046578    0.7462727   -6.3155076 
H    -0.1019865    1.9667228   -5.7305995 
H    -0.7181448    2.3191132   -3.3508943 
H    -1.8567897    3.2164372   -0.2779470 
H    -2.4808565    5.6095754   -0.6381442 
H    -0.8122670    7.2035084   -1.6005001 
H     1.4666910    6.3926447   -2.2349845 
H     2.0761125    4.0017361   -1.9131164 
H     2.5308299    3.7115688    0.4101491 
H     4.4192521    3.3462482    1.9839912 
H     5.0546748    1.0601925    2.6989412 
H     4.0872436   -1.1841848    3.9443941 
H     4.9464978   -2.6078853    3.2777760 
H     5.6380465   -0.9944626    3.0676773 
H     5.0690485   -2.9978956    0.7620497 
H     5.7622642   -1.3558849    0.5437165 
H     4.3025359   -1.8436836   -0.3708540 
H     3.0288693   -3.6354009    3.3281861 
H     0.9204471   -4.8988209    3.0226715 
H    -0.7382674   -4.2197566    1.2919730 
H    -1.4863028   -0.9061682   -3.2605954 
H    -0.6426976   -1.4476998   -5.5364634 
H     1.3878268   -2.8809858   -5.8168286 
H     2.5903380   -3.7441167   -3.8009976 
H     1.7529255   -3.2120369   -1.5227864 
H    -3.5545637   -1.1679608   -0.6489343 
H    -5.5792617   -2.5765263   -1.0448287 
H    -5.3372157   -5.0411104   -1.3924412 
H    -3.0662002   -6.0858194   -1.3879057 
H    -1.0434523   -4.6775476   -1.0434119 
