103
Energy =
C     0.2260590   -0.1281410    3.2566431 
C    -0.5767325    1.0245899    3.1432396 
C    -1.9017593    0.9259770    2.6063578 
H    -0.1683782    2.0095423    3.4015901 
Pd   -0.3945891    0.4053211    1.0465870 
P    -2.0188727   -0.2400279   -0.5837318 
P     1.7912299    0.0596142    0.1637796 
H    -0.2802285   -1.0954270    3.1188314 
H    -2.4297791   -0.0231656    2.7733879 
C     4.0364771   -0.5402615    5.1732372 
C     3.4174383   -1.6440052    4.5673564 
C     2.1845056   -1.4870275    3.9269664 
C     1.5505012   -0.2220084    3.8706177 
C     2.1950985    0.8843898    4.4745050 
C     3.4209039    0.7223010    5.1231130 
H     4.9963680   -0.6612050    5.6858445 
H     3.8915621   -2.6300741    4.6021810 
H     1.6987634   -2.3518858    3.4642055 
H     1.7284356    1.8729804    4.4521349 
H     3.9024773    1.5851666    5.5932534 
C    -4.4782394    4.3593749    2.3922923 
C    -3.1300886    4.4768475    2.0134849 
C    -2.2873035    3.3617678    2.0631797 
C    -2.7791837    2.1050844    2.4870608 
C    -4.1407927    1.9966797    2.8433656 
C    -4.9797712    3.1159592    2.8055591 
H    -5.1359741    5.2340737    2.3582948 
H    -2.7372710    5.4422761    1.6776927 
H    -1.2404358    3.4535463    1.7495153 
H    -4.5401265    1.0254597    3.1542268 
H    -6.0318114    3.0152948    3.0909223 
C    -2.3071501   -2.5478681    1.0129949 
C    -2.2398612   -3.9193198    1.2878593 
C    -1.8861644   -4.8230410    0.2725700 
C    -1.6120073   -4.3473050   -1.0170816 
C    -1.6906541   -2.9756950   -1.3000384 
C    -2.0388743   -2.0615400   -0.2871383 
C    -3.7218267    0.3712778   -0.2727717 
C    -3.9392836    1.7511228   -0.4827338 
C    -5.2270275    2.2853898   -0.3727389 
C    -6.3045753    1.4560696   -0.0219262 
C    -6.0890509    0.0914236    0.2141414 
C    -4.8027047   -0.4568722    0.0805795 
C    -1.9499838   -0.0805474   -2.4223140 
C    -3.0899021    0.1613930   -3.2183113 
C    -2.9515760    0.3705522   -4.5956208 
C    -1.6849442    0.3533524   -5.2013464 
C    -0.7089015   -0.1551989   -3.0734315 
C    -0.5318806    0.0812008   -4.4479731 
O     0.3840351   -0.4602078   -2.2853556 
C     1.5294391    0.2514208   -2.5930161 
C     1.8260107    0.5590620   -3.9297819 
C     0.8959777   -0.0222630   -5.0050946 
C     1.0468974    0.6946642   -6.3574539 
C     1.2438629   -1.5332488   -5.1772163 
C     2.9827857    1.3224723   -4.1621561 
C     3.7999529    1.7331318   -3.0964652 
C     3.4830980    1.3919407   -1.7739550 
C     2.3223249    0.6400490   -1.5043885 
C     2.2794695   -1.7126473    0.1130510 
C     3.4751057   -2.1230571   -0.5148023 
C     3.8224381   -3.4800193   -0.5451504 
C     2.9759386   -4.4383549    0.0356240 
C     1.7750025   -4.0382520    0.6389931 
C     1.4261273   -2.6809898    0.6746062 
C     3.0237336    0.9442920    1.2052843 
C     2.7674849    2.3107025    1.4538879 
C     3.7094429    3.0947872    2.1319639 
C     4.9081240    2.5177943    2.5802954 
C     5.1523084    1.1545397    2.3611235 
C     4.2163531    0.3662733    1.6748100 
H    -2.5798697   -1.8518829    1.8126974 
H    -2.4641840   -4.2826116    2.2962609 
H    -1.8280364   -5.8951089    0.4874037 
H    -1.3368922   -5.0464953   -1.8133431 
H    -1.4799753   -2.6204220   -2.3128225 
H    -3.0998011    2.4030675   -0.7484413 
H    -5.3861310    3.3543200   -0.5439524 
H    -7.3112882    1.8761655    0.0720494 
H    -6.9272184   -0.5587882    0.4859145 
H    -4.6527174   -1.5309384    0.2277608 
H    -4.0802796    0.2053246   -2.7577435 
H    -3.8409717    0.5624624   -5.2037076 
H    -1.6024703    0.5432380   -6.2749694 
H     0.8050143    1.7680168   -6.2776884 
H     2.0775801    0.5929012   -6.7354366 
H     0.3861733    0.2397895   -7.1137379 
H     2.2817445   -1.6437277   -5.5356424 
H     0.5618882   -1.9963420   -5.9110266 
H     1.1475178   -2.0729492   -4.2198824 
H     3.2597346    1.5957226   -5.1840693 
H     4.6986106    2.3235601   -3.3004153 
H     4.1310685    1.7145690   -0.9539181 
H     4.1283145   -1.3821114   -0.9885625 
H     4.7533678   -3.7913369   -1.0304504 
H     3.2480687   -5.4986317    0.0048040 
H     1.0973952   -4.7810547    1.0713743 
H     0.4738213   -2.3739044    1.1197079 
H     1.8334889    2.7621642    1.0958554 
H     3.5093313    4.1568247    2.3084754 
H     5.6464538    3.1291456    3.1094359 
H     6.0764165    0.6961742    2.7278786 
H     4.4158188   -0.6966422    1.5109749 
