103
Energy =
C     0.1280349    0.8604532    3.3724359 
C    -0.4328418    1.9310493    2.6475511 
C    -1.7491149    1.7856221    2.0852404 
H     0.1583215    2.8278225    2.4225166 
Pd   -0.3903352    0.3520073    1.1423975 
P    -2.0496382   -0.5811905   -0.2920010 
P     1.6688612   -0.5912285    0.3854064 
H    -0.5673632    0.0639868    3.6782634 
H    -2.4737493    1.1782514    2.6474886 
C     3.8594374    0.6394602    5.4710838 
C     2.9452422   -0.4240261    5.5171398 
C     1.7378663   -0.3332612    4.8178811 
C     1.4240923    0.8139383    4.0479807 
C     2.3572323    1.8767393    4.0131900 
C     3.5574294    1.7892403    4.7223019 
H     4.8027555    0.5774891    6.0232421 
H     3.1685646   -1.3171530    6.1095809 
H     1.0096642   -1.1505813    4.8780412 
H     2.1387389    2.7806096    3.4384530 
H     4.2661385    2.6221354    4.6901310 
C    -3.4822371    4.7852066   -0.4755048 
C    -2.1851844    4.3089122   -0.7316059 
C    -1.6123485    3.3476403    0.1078440 
C    -2.3319495    2.8295511    1.2098817 
C    -3.6346188    3.3149440    1.4547641 
C    -4.2005650    4.2908308    0.6237037 
H    -3.9306076    5.5383959   -1.1316393 
H    -1.6221999    4.6832670   -1.5933198 
H    -0.6130762    2.9528147   -0.1139824 
H    -4.2063645    2.9179406    2.2999590 
H    -5.2102919    4.6608213    0.8305907 
C    -1.3697227   -3.1002722    0.6938719 
C    -1.1697961   -4.4843521    0.6402790 
C    -1.2763585   -5.1611260   -0.5842467 
C    -1.5845871   -4.4494637   -1.7523875 
C    -1.8155969   -3.0666175   -1.7001432 
C    -1.7215889   -2.3844072   -0.4718501 
C    -3.7828988   -0.4748943    0.3184563 
C    -4.3354134   -1.4738747    1.1471197 
C    -5.6349497   -1.3314680    1.6519696 
C    -6.3979472   -0.1966169    1.3355715 
C    -5.8541301    0.7984956    0.5111526 
C    -4.5521878    0.6674071    0.0081013 
C    -2.1733728    0.0372579   -2.0181959 
C    -3.2893573   -0.1583059   -2.8592634 
C    -3.1987969    0.1575136   -4.2213149 
C    -1.9983662    0.6408450   -4.7720085 
C    -1.0169028    0.5846548   -2.5917406 
C    -0.8739525    0.8635204   -3.9606634 
O     0.0614722    0.7845888   -1.7531629 
C     1.2695605    0.3524123   -2.2611860 
C     1.5537960    0.5970839   -3.6182461 
C     0.4989338    1.3821213   -4.4221705 
C     0.6099615    2.8891625   -4.0351623 
C     0.6949674    1.2291469   -5.9396844 
C     2.7899858    0.1402655   -4.0985346 
C     3.7001354   -0.5066000   -3.2417275 
C     3.3844779   -0.7285756   -1.8969514 
C     2.1310493   -0.3234779   -1.3879314 
C     1.9185124   -2.3842840    0.6761104 
C     2.0376840   -3.3214202   -0.3677584 
C     2.1802813   -4.6850442   -0.0723409 
C     2.2059850   -5.1244407    1.2586057 
C     2.0639698   -4.1963498    2.3028878 
C     1.9078374   -2.8352454    2.0143841 
C     3.1362756    0.2553723    1.1267680 
C     3.2343363    1.6405025    0.8675827 
C     4.3735123    2.3544275    1.2555462 
C     5.4175539    1.6972648    1.9259797 
C     5.3107254    0.3293244    2.2115134 
C     4.1776912   -0.3959126    1.8098951 
H    -1.2433861   -2.5670480    1.6440930 
H    -0.9051032   -5.0298395    1.5509634 
H    -1.1057390   -6.2416910   -0.6290674 
H    -1.6556825   -4.9725368   -2.7117846 
H    -2.0700957   -2.5231319   -2.6153196 
H    -3.7617516   -2.3748218    1.3851835 
H    -6.0564518   -2.1178816    2.2866996 
H    -7.4153906   -0.0923098    1.7262983 
H    -6.4402268    1.6878135    0.2569771 
H    -4.1410911    1.4520375   -0.6341614 
H    -4.2133931   -0.5799973   -2.4516803 
H    -4.0659494    0.0012394   -4.8704915 
H    -1.9471512    0.8422442   -5.8457013 
H     0.4672799    3.0316374   -2.9508482 
H     1.6048526    3.2782755   -4.3111338 
H    -0.1612730    3.4719562   -4.5674542 
H     1.6791933    1.6215235   -6.2442543 
H    -0.0634339    1.8116840   -6.4884282 
H     0.6240431    0.1740882   -6.2542930 
H     3.0637672    0.2991992   -5.1453142 
H     4.6680629   -0.8362785   -3.6317588 
H     4.1039443   -1.2243364   -1.2368006 
H     2.0114188   -2.9932037   -1.4109136 
H     2.2689167   -5.4066213   -0.8908181 
H     2.3260174   -6.1893047    1.4832690 
H     2.0733739   -4.5335419    3.3448452 
H     1.7909012   -2.1141494    2.8305808 
H     2.4234527    2.1520053    0.3336656 
H     4.4474922    3.4244331    1.0345828 
H     6.3109496    2.2530706    2.2288408 
H     6.1182571   -0.1856165    2.7421731 
H     4.1215246   -1.4692043    2.0139107 
