103
Energy =
C    -3.1943278    0.0772173    1.3729906 
C    -2.3850817    1.0879001    1.9500222 
C    -2.1098737    2.3095045    1.2720080 
H    -1.8382828    0.8689862    2.8764240 
Pd   -1.3673473    0.5538858    0.1059133 
P     0.4029901    1.6632146   -1.0422823 
P    -0.8622248   -1.6778745   -0.5497313 
H    -3.9548001    0.3980897    0.6456411 
H    -2.8602923    2.6908492    0.5638100 
C    -3.9054763   -3.7897328    3.1241015 
C    -2.7246836   -3.0933739    3.4295051 
C    -2.4830652   -1.8355764    2.8685837 
C    -3.4203668   -1.2437390    1.9903387 
C    -4.6056592   -1.9549185    1.6968776 
C    -4.8467175   -3.2139971    2.2574383 
H    -4.0909322   -4.7764588    3.5608268 
H    -1.9812328   -3.5381870    4.0988859 
H    -1.5442810   -1.3196740    3.0946173 
H    -5.3463148   -1.5097262    1.0239600 
H    -5.7713669   -3.7482080    2.0164070 
C     0.4253744    5.2483546    3.1266898 
C     0.7531456    3.8849303    3.2163937 
C    -0.0491861    2.9281429    2.5873610 
C    -1.1996545    3.3144476    1.8600872 
C    -1.4970497    4.6881262    1.7473316 
C    -0.6959542    5.6452401    2.3836239 
H     1.0499714    5.9982758    3.6229802 
H     1.6406838    3.5676930    3.7745093 
H     0.2246381    1.8680834    2.6356632 
H    -2.3699367    5.0054610    1.1671123 
H    -0.9463968    6.7070849    2.2932759 
C    -1.9985914   -4.1522371   -1.3658659 
C    -3.0512600   -4.9529891   -1.8249802 
C    -4.3267739   -4.3985940   -2.0218232 
C    -4.5449154   -3.0372445   -1.7705153 
C    -3.4971062   -2.2367167   -1.2938147 
C    -2.2236204   -2.7899314   -1.0671644 
C     0.3640330   -1.9537334   -1.9121019 
C    -0.1252098   -2.0344937   -3.2342647 
C     0.7567992   -2.2161143   -4.3050780 
C     2.1386587   -2.3063330   -4.0769415 
C     2.6321484   -2.2167663   -2.7692460 
C     1.7517635   -2.0463335   -1.6908238 
C     0.0474252   -2.4415532    0.8777692 
C     0.0289398   -3.7852560    1.2947802 
C     1.0395143   -4.2632753    2.1432419 
C     2.1070134   -3.4395454    2.5441840 
C     1.0464410   -1.6202201    1.4296240 
C     2.1311920   -2.0799779    2.1874519 
O     0.9788965   -0.2741520    1.1176922 
C     2.1525507    0.3129059    0.6995573 
C     3.3452687   -0.0840194    1.3293595 
C     3.2259399   -1.0503987    2.5302040 
C     4.5660690   -1.7340557    2.8527358 
C     2.7559503   -0.2223665    3.7650243 
C     4.5299689    0.4936611    0.8450078 
C     4.4940248    1.4436229   -0.1917761 
C     3.2802581    1.8335799   -0.7734447 
C     2.0668862    1.2498257   -0.3465746 
C     0.3900289    3.5105095   -1.0525791 
C    -0.5654295    4.1730483   -1.8526445 
C    -0.6227168    5.5720510   -1.8748453 
C     0.2698959    6.3280388   -1.0993972 
C     1.2057406    5.6750637   -0.2870207 
C     1.2633932    4.2742616   -0.2539614 
C     0.3939295    1.2717322   -2.8430946 
C    -0.8789557    1.1496518   -3.4418664 
C    -1.0000228    0.9960353   -4.8290784 
C     0.1507488    0.9353728   -5.6284113 
C     1.4184107    1.0116932   -5.0330338 
C     1.5442756    1.1828934   -3.6472499 
H    -0.9949492   -4.5789903   -1.2719697 
H    -2.8718954   -6.0101133   -2.0466617 
H    -5.1450961   -5.0266946   -2.3888728 
H    -5.5315092   -2.5957813   -1.9454712 
H    -3.6578679   -1.1700542   -1.1065939 
H    -1.2003608   -1.9656507   -3.4274478 
H     0.3612193   -2.2813296   -5.3234133 
H     2.8262343   -2.4476515   -4.9171315 
H     3.7075435   -2.2925707   -2.5774991 
H     2.1616808   -2.0154187   -0.6781162 
H    -0.7605604   -4.4592774    0.9530453 
H     1.0178590   -5.3088544    2.4662034 
H     2.9161634   -3.8664610    3.1433913 
H     4.9324844   -2.3303938    1.9999501 
H     5.3312637   -0.9847008    3.1141781 
H     4.4609831   -2.3984851    3.7259807 
H     3.5008715    0.5550259    4.0070476 
H     2.6347414   -0.8843718    4.6393053 
H     1.7894028    0.2702571    3.5674419 
H     5.4936113    0.2218127    1.2848796 
H     5.4277351    1.8947929   -0.5414260 
H     3.2737411    2.6011840   -1.5532145 
H    -1.2570072    3.5988070   -2.4774616 
H    -1.3614910    6.0725306   -2.5095266 
H     0.2298125    7.4218921   -1.1241369 
H     1.8926155    6.2537912    0.3385423 
H     1.9846418    3.7852048    0.4055532 
H    -1.7773503    1.1685006   -2.8112766 
H    -1.9930206    0.9133435   -5.2829703 
H     0.0607136    0.8121799   -6.7126459 
H     2.3196447    0.9358968   -5.6500711 
H     2.5402836    1.2299196   -3.2000122 
