103
Energy =
C    -1.2249687    2.6536974    1.7327255 
C    -0.6442857    1.8672413    2.7483392 
C     0.7638160    1.6284810    2.7839160 
H    -1.2961152    1.3554241    3.4658427 
Pd   -0.1021346    0.7983630    0.9061747 
P     1.9526137   -0.2444152    0.1933495 
P    -1.7728607   -0.2002408   -0.4831520 
H    -0.5464768    3.2820135    1.1351745 
H     1.4282570    2.4139240    2.4010842 
C    -5.2812009    4.0288889    1.5999257 
C    -4.9349168    2.9866581    2.4774624 
C    -3.6313794    2.4879290    2.5003911 
C    -2.6377333    3.0332824    1.6518933 
C    -3.0095828    4.0603142    0.7514295 
C    -4.3173214    4.5568563    0.7281072 
H    -6.3031541    4.4216465    1.5924131 
H    -5.6899459    2.5593901    3.1443461 
H    -3.3834777    1.6742376    3.1881942 
H    -2.2518626    4.4852555    0.0831525 
H    -4.5826614    5.3634477    0.0370744 
C     2.5778464   -1.0781825    5.6019305 
C     1.2205086   -1.2247636    5.2669511 
C     0.6247279   -0.3537340    4.3495692 
C     1.3680681    0.6969604    3.7552371 
C     2.7293801    0.8357431    4.1095486 
C     3.3278146   -0.0456141    5.0184301 
H     3.0457311   -1.7642707    6.3154099 
H     0.6283662   -2.0293317    5.7153117 
H    -0.4253610   -0.5040146    4.0762736 
H     3.3207031    1.6415255    3.6628029 
H     4.3855584    0.0774256    5.2724968 
C     4.5190157   -0.1151614    1.5013118 
C     5.6367792    0.5932980    1.9703943 
C     5.6936017    1.9887096    1.8514651 
C     4.6310935    2.6817176    1.2468893 
C     3.5137400    1.9791399    0.7800952 
C     3.4437460    0.5759004    0.9135123 
C     2.1068133   -2.0234733    0.6126048 
C     2.0196852   -3.0239629   -0.3759725 
C     2.0989294   -4.3753518   -0.0129408 
C     2.2622806   -4.7402543    1.3315510 
C     2.3263210   -3.7472582    2.3210240 
C     2.2399455   -2.3947897    1.9679013 
C     2.4571524   -0.1764840   -1.5862472 
C     3.7144738   -0.6635247   -2.0048109 
C     4.0512293   -0.6588428   -3.3622426 
C     3.1511366   -0.1655454   -4.3246008 
C     1.6062480    0.3469101   -2.5667688 
C     1.9068588    0.3570071   -3.9425167 
O     0.3890026    0.8415556   -2.1475431 
C    -0.6762575    0.4928336   -2.9526556 
C    -0.5169053    0.5257474   -4.3489667 
C     0.8548611    0.9709574   -4.8843425 
C     1.0694075    0.5467795   -6.3470930 
C     0.9473235    2.5238400   -4.7781552 
C    -1.6283143    0.1541992   -5.1222012 
C    -2.8354321   -0.2281523   -4.5107610 
C    -2.9462416   -0.2868136   -3.1156943 
C    -1.8428576    0.0600996   -2.3058790 
C    -3.5330305    0.0621886   -0.0008952 
C    -4.2507386    1.1385379   -0.5670669 
C    -5.6039573    1.3220830   -0.2602190 
C    -6.2499185    0.4577414    0.6366691 
C    -5.5323613   -0.5884237    1.2332094 
C    -4.1809975   -0.7899252    0.9162264 
C    -1.5414754   -2.0209420   -0.2898762 
C    -1.7332834   -2.9407155   -1.3385048 
C    -1.6032605   -4.3164092   -1.0972703 
C    -1.2938389   -4.7845599    0.1877493 
C    -1.0863774   -3.8725618    1.2334368 
C    -1.1923919   -2.4979333    0.9931204 
H     4.4893193   -1.2040785    1.6006181 
H     6.4655209    0.0469543    2.4327241 
H     6.5656336    2.5372486    2.2219781 
H     4.6749402    3.7704060    1.1384423 
H     2.6893556    2.5209852    0.2994648 
H     1.8916598   -2.7513776   -1.4278231 
H     2.0308053   -5.1459448   -0.7874750 
H     2.3319754   -5.7974173    1.6082160 
H     2.4456267   -4.0200717    3.3748352 
H     2.2908711   -1.6293292    2.7466262 
H     4.4177657   -1.0599792   -1.2653256 
H     5.0237419   -1.0473359   -3.6799964 
H     3.4361716   -0.1836696   -5.3801745 
H     1.0126435   -0.5486530   -6.4658681 
H     0.3119750    1.0115103   -6.9996994 
H     2.0529160    0.8893723   -6.7086755 
H     0.1749866    2.9917871   -5.4123662 
H     1.9406937    2.8660373   -5.1151863 
H     0.7966015    2.8604225   -3.7388951 
H    -1.5622027    0.1617114   -6.2137363 
H    -3.6927861   -0.5034054   -5.1328829 
H    -3.8794829   -0.6215386   -2.6523726 
H    -3.7600401    1.8185808   -1.2704846 
H    -6.1528262    2.1498451   -0.7196908 
H    -7.3093681    0.6023120    0.8720881 
H    -6.0289681   -1.2669352    1.9347540 
H    -3.6432097   -1.6332502    1.3608058 
H    -1.9853276   -2.5880015   -2.3432470 
H    -1.7513632   -5.0248623   -1.9190708 
H    -1.1982431   -5.8596109    0.3716546 
H    -0.8165934   -4.2291185    2.2319880 
H    -0.9927493   -1.7848924    1.8030333 
