103
Energy =
C    -1.6909434    1.8014214    2.5856876 
C    -0.6771648    1.0075045    3.1500768 
C     0.7054693    1.3232780    3.0092873 
H    -0.9466700    0.0879632    3.6849099 
Pd   -0.1538835    0.8350117    1.0022007 
P     1.9920066    0.2521958    0.1243611 
P    -1.8198540    0.1947729   -0.6313085 
H    -1.4060092    2.7966008    2.2135767 
H     0.9668147    2.3766876    2.8296715 
C    -5.8915139    1.4316622    3.4031809 
C    -5.0311111    0.3675556    3.7218823 
C    -3.6654049    0.4600499    3.4433051 
C    -3.1259636    1.6155849    2.8255231 
C    -4.0071926    2.6769371    2.5145426 
C    -5.3724588    2.5881820    2.8037555 
H    -6.9604493    1.3601651    3.6286134 
H    -5.4270951   -0.5330742    4.2021421 
H    -3.0108011   -0.3679888    3.7331565 
H    -3.6078492    3.5836528    2.0495196 
H    -6.0342273    3.4240062    2.5569541 
C     3.6630573   -0.9428382    5.1622289 
C     2.6304046   -1.6122989    4.4851427 
C     1.6708253   -0.8845858    3.7743671 
C     1.7336204    0.5255004    3.7120573 
C     2.7797764    1.1854413    4.3910228 
C     3.7305696    0.4575591    5.1161621 
H     4.4136978   -1.5119586    5.7203120 
H     2.5754217   -2.7056525    4.5079606 
H     0.8757503   -1.4144191    3.2406222 
H     2.8443937    2.2774720    4.3496706 
H     4.5337801    0.9867357    5.6388050 
C     4.4125160    0.0753176    1.6450837 
C     5.5093247    0.6515180    2.3038957 
C     5.6128308    2.0439083    2.4263312 
C     4.6023898    2.8685201    1.9053831 
C     3.5002135    2.2987848    1.2558986 
C     3.4071538    0.8977990    1.1076812 
C     2.1850287   -1.5776236    0.0599226 
C     3.2903127   -2.1598585   -0.5971167 
C     3.4174524   -3.5538416   -0.6533472 
C     2.4415827   -4.3763975   -0.0669296 
C     1.3335444   -3.8020683    0.5719571 
C     1.2049575   -2.4076570    0.6324110 
C     2.5692485    0.7208047   -1.5693848 
C     3.7875620    1.3567746   -1.8809177 
C     4.1344061    1.5793885   -3.2212928 
C     3.2956062    1.1559223   -4.2645435 
C     1.7584309    0.3147242   -2.6376938 
C     2.0853633    0.4968964   -3.9898119 
O     0.5673646   -0.2942337   -2.2901379 
C    -0.4958238    0.0232230   -3.1112241 
C    -0.2944252    0.1411942   -4.4979401 
C     1.1259536   -0.1034586   -5.0280154 
C     1.3717643   -1.6434340   -5.0748976 
C     1.3354462    0.4916553   -6.4305066 
C    -1.4201879    0.4388501   -5.2816238 
C    -2.6843079    0.5968217   -4.6909070 
C    -2.8432508    0.5057488   -3.3030509 
C    -1.7280392    0.2404405   -2.4792255 
C    -3.4431911    1.0376627   -0.4243302 
C    -3.4767425    2.4174921   -0.7205433 
C    -4.6988970    3.0982878   -0.7731798 
C    -5.8944239    2.4149549   -0.4996538 
C    -5.8601458    1.0548038   -0.1618306 
C    -4.6404940    0.3607426   -0.1319433 
C    -2.1178618   -1.5859568   -0.2681068 
C    -2.3861692   -1.9592320    1.0664527 
C    -2.5570899   -3.3064263    1.4065286 
C    -2.4433106   -4.2986742    0.4185535 
C    -2.1667052   -3.9343358   -0.9068124 
C    -2.0075937   -2.5842393   -1.2538598 
H     4.3379916   -1.0126931    1.5633119 
H     6.2826995    0.0033433    2.7283282 
H     6.4740855    2.4880168    2.9359721 
H     4.6733786    3.9567786    2.0046230 
H     2.7153081    2.9453647    0.8442701 
H     4.0462798   -1.5235823   -1.0702070 
H     4.2787008   -3.9996432   -1.1618363 
H     2.5423120   -5.4656595   -0.1179651 
H     0.5571854   -4.4343755    1.0135641 
H     0.3244442   -1.9601404    1.1044877 
H     4.4628826    1.6767519   -1.0831857 
H     5.0778011    2.0821231   -3.4558259 
H     3.5989373    1.3316147   -5.3002988 
H     1.2327325   -2.0972656   -4.0791167 
H     0.6652139   -2.1169287   -5.7782114 
H     2.4022035   -1.8510150   -5.4109683 
H     0.6504839    0.0240003   -7.1569052 
H     2.3594955    0.2906746   -6.7862031 
H     1.1672323    1.5818943   -6.4386843 
H    -1.3190674    0.5401184   -6.3656349 
H    -3.5544200    0.8079186   -5.3201728 
H    -3.8302855    0.6586865   -2.8591928 
H    -2.5443396    2.9507082   -0.9428272 
H    -4.7183777    4.1635915   -1.0258501 
H    -6.8510755    2.9459932   -0.5394256 
H    -6.7883948    0.5226893    0.0700370 
H    -4.6277432   -0.7087901    0.0983065 
H    -2.4707597   -1.1858871    1.8352757 
H    -2.7779174   -3.5829095    2.4430121 
H    -2.5711973   -5.3535461    0.6828304 
H    -2.0757145   -4.7042896   -1.6798838 
H    -1.7968645   -2.3114656   -2.2922858 
