103
Energy =
C    -1.6243081    2.2338847    1.6780407 
C    -0.3110910    2.3417480    2.2516844 
C     0.7854952    2.6375217    1.4141926 
H    -0.1498248    2.0662565    3.3017649 
Pd   -0.2933802    0.7275471    0.7830304 
P     1.6595602   -0.6158170    0.5201778 
P    -1.9218850   -0.3049912   -0.5661592 
H    -1.8647479    2.9077908    0.8428501 
H     0.5471381    3.0342678    0.4148148 
C    -5.0086075    0.8858263    3.9734432 
C    -3.7654086    0.2475272    4.1191771 
C    -2.6630762    0.6805866    3.3757302 
C    -2.7807793    1.7590787    2.4672354 
C    -4.0372015    2.3840349    2.3251782 
C    -5.1391288    1.9544043    3.0750493 
H    -5.8716787    0.5469898    4.5557812 
H    -3.6587074   -0.5931863    4.8129265 
H    -1.7000257    0.1652085    3.4761277 
H    -4.1473080    3.2156917    1.6219740 
H    -6.1055745    2.4534098    2.9511013 
C     4.9085506    3.2311559    2.4362758 
C     4.4976718    3.2080583    1.0945505 
C     3.1506848    2.9993361    0.7812004 
C     2.1908620    2.7987677    1.8021642 
C     2.6223163    2.8070433    3.1484004 
C     3.9670337    3.0280870    3.4590858 
H     5.9597900    3.4077194    2.6863762 
H     5.2266137    3.3625671    0.2923786 
H     2.8279483    2.9891545   -0.2660404 
H     1.9011735    2.6603431    3.9576546 
H     4.2846594    3.0428917    4.5063519 
C     4.0731003   -0.2000642    2.0658202 
C     4.7493497   -0.1611748    3.2940405 
C     4.0579625   -0.3708157    4.4951279 
C     2.6727153   -0.5941544    4.4714774 
C     1.9911572   -0.6235490    3.2483411 
C     2.6897674   -0.4498305    2.0310969 
C     1.5338592   -2.4417167    0.2770885 
C     1.0379385   -2.9045603   -0.9606902 
C     0.9020905   -4.2759847   -1.1978496 
C     1.2523795   -5.2015380   -0.2016545 
C     1.7417855   -4.7473591    1.0301020 
C     1.8842939   -3.3724352    1.2733303 
C     2.6190862   -0.1689541   -0.9918130 
C     3.9125878   -0.6444009   -1.2952820 
C     4.4592802   -0.4422201   -2.5679795 
C     3.7137016    0.1867563   -3.5797403 
C     1.9125745    0.4720124   -2.0266273 
C     2.4109743    0.6455416   -3.3294907 
O     0.6097274    0.8729419   -1.7680639 
C    -0.3107413    0.5497386   -2.7504322 
C     0.0664313    0.7399286   -4.0927278 
C     1.4731094    1.3132268   -4.3503538 
C     1.9356358    1.0802105   -5.7984719 
C     1.4391729    2.8455870   -4.0618151 
C    -0.8881560    0.4346952   -5.0752832 
C    -2.1718401   -0.0093397   -4.7145302 
C    -2.5123913   -0.1946799   -3.3696113 
C    -1.5638811    0.0479132   -2.3503194 
C    -3.6625560    0.2718465   -0.4158456 
C    -4.0391299    1.5020843   -0.9960453 
C    -5.3599191    1.9562086   -0.8881874 
C    -6.3100189    1.1994117   -0.1848808 
C    -5.9314474   -0.0078317    0.4190460 
C    -4.6142308   -0.4745524    0.3053565 
C    -2.0581347   -2.1280305   -0.3820576 
C    -1.7328420   -2.6626794    0.8814588 
C    -1.8676935   -4.0353888    1.1244505 
C    -2.3190950   -4.8852384    0.1043037 
C    -2.6372303   -4.3597886   -1.1575130 
C    -2.5102922   -2.9862535   -1.4030170 
H     4.6278596   -0.0080770    1.1451921 
H     5.8246877    0.0433554    3.3077279 
H     4.5940544   -0.3451412    5.4493733 
H     2.1210913   -0.7416691    5.4058228 
H     0.9062059   -0.7883498    3.2297034 
H     0.7591236   -2.1914414   -1.7448100 
H     0.5143965   -4.6228203   -2.1607127 
H     1.1435771   -6.2749192   -0.3878844 
H     2.0242522   -5.4643100    1.8082096 
H     2.2805815   -3.0322470    2.2346990 
H     4.4739999   -1.2178789   -0.5525881 
H     5.4659326   -0.8107779   -2.7883810 
H     4.1522873    0.2984175   -4.5750792 
H     1.9696230    0.0059688   -6.0473597 
H     1.2582276    1.5845326   -6.5070322 
H     2.9382429    1.5103290   -5.9575030 
H     0.7390487    3.3448718   -4.7531304 
H     2.4451503    3.2769558   -4.2016392 
H     1.1124928    3.0490369   -3.0283015 
H    -0.6448439    0.5625610   -6.1335688 
H    -2.9135511   -0.2122329   -5.4932531 
H    -3.5215718   -0.5242189   -3.1023820 
H    -3.3047462    2.0941753   -1.5540427 
H    -5.6477891    2.9031688   -1.3568890 
H    -7.3425906    1.5542263   -0.1034963 
H    -6.6642279   -0.5952616    0.9813641 
H    -4.3320710   -1.4239670    0.7708293 
H    -1.3624041   -1.9949815    1.6683243 
H    -1.6035699   -4.4428625    2.1051694 
H    -2.4138178   -5.9602303    0.2891530 
H    -2.9834435   -5.0230887   -1.9569995 
H    -2.7520538   -2.5915906   -2.3937918 
