103
Energy =
C     0.7151823    1.8776684    2.8356792 
C    -0.3443134    2.4729554    2.1057991 
C    -1.6757929    1.9728975    2.1718521 
H    -0.1111853    3.2453600    1.3614652 
Pd   -0.2677382    0.4209783    1.3936172 
P    -1.8355362   -0.7982244    0.0745405 
P     1.7180678   -0.6792435    0.6764339 
H     0.4498432    1.3526403    3.7653621 
H    -1.9956596    1.4713272    3.0972568 
C     4.8454769    3.0565818    2.5559469 
C     3.9851431    3.2689980    1.4664013 
C     2.6409396    2.8921586    1.5456373 
C     2.1256254    2.2955569    2.7197831 
C     3.0027763    2.0932095    3.8089965 
C     4.3479529    2.4697119    3.7292308 
H     5.8987277    3.3484070    2.4905565 
H     4.3663075    3.7195680    0.5442720 
H     1.9913756    3.0391010    0.6768029 
H     2.6201197    1.6392029    4.7293576 
H     5.0104135    2.3037862    4.5848652 
C    -4.7793475    3.8503344   -0.1402318 
C    -3.5045737    3.6648650   -0.7012993 
C    -2.5015984    3.0247997    0.0329819 
C    -2.7508440    2.5618619    1.3465191 
C    -4.0447882    2.7211292    1.8837770 
C    -5.0468419    3.3683361    1.1493581 
H    -5.5640506    4.3561020   -0.7122847 
H    -3.2939829    4.0158706   -1.7172602 
H    -1.5168868    2.8577114   -0.4179820 
H    -4.2610500    2.3464734    2.8898285 
H    -6.0434039    3.4913794    1.5853590 
C    -1.9409824   -3.5978514   -0.6124765 
C    -1.9428380   -4.9532952   -0.2542586 
C    -1.7158834   -5.3383113    1.0752209 
C    -1.4510666   -4.3635138    2.0481321 
C    -1.4309438   -3.0088589    1.6915819 
C    -1.7025426   -2.6135438    0.3634317 
C    -3.6322604   -0.4947107    0.3792989 
C    -4.4257834    0.2696313   -0.4981574 
C    -5.7835916    0.4807010   -0.2183715 
C    -6.3600023   -0.0502950    0.9426085 
C    -5.5673425   -0.7873323    1.8358532 
C    -4.2125890   -1.0084651    1.5587732 
C    -1.6465311   -0.4633959   -1.7354873 
C    -2.4987115   -0.9791377   -2.7371207 
C    -2.2652066   -0.6790991   -4.0858333 
C    -1.2050533    0.1621433   -4.4692361 
C    -0.6071729    0.3811878   -2.1667052 
C    -0.3560676    0.7298519   -3.5055129 
O     0.2402734    0.8818370   -1.2029409 
C     1.5803570    0.9422287   -1.5418236 
C     1.9305135    1.4218107   -2.8105895 
C     0.7720775    1.7528021   -3.7719445 
C     0.2260383    3.1697589   -3.4177810 
C     1.2303444    1.7334942   -5.2405722 
C     3.3068278    1.5372237   -3.0725509 
C     4.2516482    1.1796338   -2.0936517 
C     3.8570856    0.6031419   -0.8765133 
C     2.4887242    0.4276484   -0.6001154 
C     1.5682623   -2.2509586   -0.2942393 
C     1.5545495   -3.4692175    0.4197281 
C     1.4197023   -4.6854147   -0.2587504 
C     1.2831350   -4.7058490   -1.6554675 
C     1.2851452   -3.5008371   -2.3694111 
C     1.4315105   -2.2794093   -1.6956320 
C     2.9855962   -1.1462445    1.9147422 
C     2.6644010   -1.0498461    3.2809847 
C     3.5775232   -1.4736531    4.2569795 
C     4.8200635   -1.9957868    3.8729170 
C     5.1376465   -2.1218412    2.5104352 
C     4.2213460   -1.7149219    1.5333027 
H    -2.1097070   -3.3177137   -1.6552234 
H    -2.1215753   -5.7126934   -1.0224361 
H    -1.7289667   -6.3983773    1.3488465 
H    -1.2490768   -4.6567444    3.0835655 
H    -1.1953030   -2.2465424    2.4455284 
H    -3.9908910    0.7132777   -1.3972005 
H    -6.3867142    1.0752870   -0.9117571 
H    -7.4210735    0.1147674    1.1560708 
H    -6.0067992   -1.2027698    2.7487178 
H    -3.6132874   -1.6013410    2.2571714 
H    -3.3512597   -1.6067350   -2.4603521 
H    -2.9259023   -1.0962284   -4.8520790 
H    -1.0594379    0.3854191   -5.5299017 
H    -0.0990012    3.2176654   -2.3651089 
H     1.0136398    3.9269696   -3.5715676 
H    -0.6361416    3.4163648   -4.0609334 
H     2.0172304    2.4866546   -5.4101708 
H     0.3944378    1.9913538   -5.9116242 
H     1.6229766    0.7439138   -5.5298212 
H     3.6540891    1.9128995   -4.0391575 
H     5.3176043    1.3158365   -2.3014545 
H     4.6122392    0.2830603   -0.1541176 
H     1.6602215   -3.4688721    1.5091764 
H     1.4154662   -5.6211002    0.3088963 
H     1.1773973   -5.6591499   -2.1833740 
H     1.1861357   -3.5038414   -3.4598907 
H     1.4651011   -1.3573012   -2.2813936 
H     1.6870099   -0.6531456    3.5740611 
H     3.3164496   -1.3962605    5.3175026 
H     5.5365879   -2.3225222    4.6336949 
H     6.0966377   -2.5550717    2.2080269 
H     4.4533525   -1.8698680    0.4748367 
