103
Energy =
C     0.7110158    1.8622121    2.8466707 
C    -0.3498646    2.4594311    2.1203746 
C    -1.6802428    1.9561154    2.1836009 
H    -0.1185106    3.2366917    1.3805554 
Pd   -0.2685693    0.4121005    1.3958404 
P    -1.8336945   -0.8028914    0.0695676 
P     1.7197434   -0.6792931    0.6721512 
H     0.4470219    1.3311663    3.7733073 
H    -1.9991222    1.4484335    3.1060032 
C     4.8390362    3.0504849    2.5731771 
C     3.9779598    3.2683610    1.4853049 
C     2.6344266    2.8887114    1.5625986 
C     2.1205465    2.2837847    2.7330987 
C     2.9983572    2.0763029    3.8208300 
C     4.3428496    2.4556318    3.7430098 
H     5.8918753    3.3440841    2.5090993 
H     4.3580232    3.7254759    0.5659463 
H     1.9842872    3.0401327    0.6949599 
H     2.6167652    1.6159405    4.7384692 
H     5.0058010    2.2857292    4.5974820 
C    -4.7878813    3.8404475   -0.1173649 
C    -3.5128042    3.6608106   -0.6796321 
C    -2.5084335    3.0185433    0.0508194 
C    -2.7565635    2.5475582    1.3616943 
C    -4.0508359    2.7008734    1.8999137 
C    -5.0542902    3.3503041    1.1693818 
H    -5.5735110    4.3484129   -0.6861905 
H    -3.3030504    4.0181295   -1.6935643 
H    -1.5235318    2.8558236   -0.4013195 
H    -4.2663397    2.3196364    2.9036565 
H    -6.0509970    3.4689279    1.6062778 
C    -1.4229583   -3.0219959    1.6734751 
C    -1.4404644   -4.3787218    2.0222487 
C    -1.7039951   -5.3483865    1.0438791 
C    -1.9319740   -4.9561749   -0.2833285 
C    -1.9326186   -3.5987046   -0.6337785 
C    -1.6960043   -2.6195796    0.3477771 
C    -3.6310977   -0.5055778    0.3761771 
C    -4.4262186    0.2627998   -0.4963075 
C    -5.7844503    0.4692521   -0.2151368 
C    -6.3597951   -0.0707522    0.9422142 
C    -5.5655943   -0.8119169    1.8306586 
C    -4.2103143   -1.0282090    1.5522885 
C    -1.6455325   -0.4567805   -1.7384157 
C    -2.4965723   -0.9683863   -2.7431469 
C    -2.2636652   -0.6598226   -4.0900264 
C    -1.2055724    0.1863287   -4.4683390 
C    -0.6082163    0.3928713   -2.1645065 
C    -0.3581739    0.7504893   -3.5011677 
O     0.2382089    0.8894570   -1.1977810 
C     1.5781163    0.9550629   -1.5363658 
C     1.9270193    1.4431363   -2.8022623 
C     0.7676775    1.7775532   -3.7613313 
C     0.2185777    3.1910552   -3.3982496 
C     1.2257384    1.7684848   -5.2301241 
C     3.3030197    1.5634543   -3.0636080 
C     4.2487506    1.2021963   -2.0869321 
C     3.8556836    0.6172430   -0.8733625 
C     2.4877471    0.4369671   -0.5978357 
C     1.5737341   -2.2457445   -0.3076101 
C     1.5630038   -3.4681902    0.3991919 
C     1.4308273   -4.6806992   -0.2863873 
C     1.2938495   -4.6932542   -1.6831532 
C     1.2930173   -3.4840844   -2.3900281 
C     1.4367619   -2.2662964   -1.7091279 
C     2.9879817   -1.1504941    1.9081128 
C     2.6655599   -1.0639428    3.2747308 
C     3.5793231   -1.4912465    4.2486024 
C     4.8237923   -2.0068941    3.8620361 
C     5.1426362   -2.1232544    2.4989878 
C     4.2256919   -1.7129685    1.5238693 
H    -1.1882358   -2.2636174    2.4316723 
H    -1.2374069   -4.6775443    3.0558740 
H    -1.7152541   -6.4100127    1.3114697 
H    -2.1094775   -5.7114956   -1.0557991 
H    -2.1015552   -3.3129333   -1.6749666 
H    -3.9922382    0.7131740   -1.3924406 
H    -6.3887249    1.0674214   -0.9044256 
H    -7.4213288    0.0902452    1.1564863 
H    -6.0042640   -1.2344554    2.7406384 
H    -3.6096924   -1.6241072    2.2469696 
H    -3.3479209   -1.5992615   -2.4701712 
H    -2.9231093   -1.0742645   -4.8588038 
H    -1.0602177    0.4160100   -5.5276712 
H    -0.1065603    3.2316663   -2.3453022 
H     1.0045474    3.9509045   -3.5472701 
H    -0.6441387    3.4398383   -4.0398452 
H     2.0108318    2.5245353   -5.3951663 
H     0.3891169    2.0285681   -5.8994251 
H     1.6206497    0.7816685   -5.5256405 
H     3.6493045    1.9458745   -4.0279174 
H     5.3143623    1.3424652   -2.2937981 
H     4.6117329    0.2941438   -0.1532639 
H     1.6689179   -3.4740071    1.4886022 
H     1.4290906   -5.6197193    0.2757378 
H     1.1899295   -5.6436724   -2.2165909 
H     1.1937656   -3.4809029   -3.4804840 
H     1.4680781   -1.3407117   -2.2894906 
H     1.6867670   -0.6720853    3.5696888 
H     3.3172249   -1.4217422    5.3094203 
H     5.5408935   -2.3361323    4.6211899 
H     6.1031348   -2.5516376    2.1944648 
H     4.4588106   -1.8605581    0.4646023 
