103
Energy =
C    -2.4644566    2.3534036    1.0879142 
C    -3.0813475    1.3337722    0.3420472 
C    -3.2513009    0.0133011    0.8507110 
H    -3.4110691    1.5402150   -0.6840320 
Pd   -1.0682329    0.4452219    0.6185928 
P    -0.5315338   -1.8800775    0.4729251 
P     0.9274649    1.6999326    0.0742081 
H    -2.3069501    2.1709676    2.1612420 
H    -3.2830377   -0.1059142    1.9439928 
C    -2.4175330    6.5201912    0.0457737 
C    -2.7242801    5.5666529   -0.9395726 
C    -2.7230569    4.2055849   -0.6253147 
C    -2.4009213    3.7612251    0.6811411 
C    -2.0969907    4.7358020    1.6596924 
C    -2.1096746    6.0988140    1.3473071 
H    -2.4261025    7.5868663   -0.2004900 
H    -2.9781014    5.8888340   -1.9546429 
H    -2.9997593    3.4847935   -1.4012330 
H    -1.8586645    4.4138209    2.6781651 
H    -1.8750520    6.8347091    2.1224854 
C    -5.5627317   -2.8668117   -1.3587813 
C    -4.6155571   -2.0740678   -2.0277283 
C    -3.8520974   -1.1430688   -1.3163208 
C    -4.0081837   -0.9972044    0.0803584 
C    -4.9583762   -1.8043573    0.7413083 
C    -5.7339223   -2.7246021    0.0262288 
H    -6.1617598   -3.5947741   -1.9155808 
H    -4.4689453   -2.1847667   -3.1071863 
H    -3.1091927   -0.5369406   -1.8439028 
H    -5.0887336   -1.7061667    1.8237523 
H    -6.4677145   -3.3407068    0.5556763 
C     1.9866633    1.3368524   -2.5509054 
C     1.8847658    1.3373701   -3.9502562 
C     0.7093205    1.7759492   -4.5762220 
C    -0.3754998    2.2126281   -3.7977208 
C    -0.2824605    2.2009817   -2.4009317 
C     0.9024615    1.7708758   -1.7657776 
C     0.9016051    3.4465727    0.6546587 
C     0.9828447    3.6455810    2.0499256 
C     1.1578128    4.9335710    2.5698493 
C     1.2206558    6.0367144    1.7036944 
C     1.0954286    5.8469135    0.3203916 
C     0.9457911    4.5555220   -0.2087993 
C     2.6959662    1.3148158    0.4605403 
C     3.6638377    2.3069656    0.7280932 
C     4.9663385    1.9381035    1.0846778 
C     5.3264075    0.5850951    1.1925407 
C     3.1109028   -0.0230212    0.5149881 
C     4.4003736   -0.4289523    0.9022185 
O     2.1630726   -0.9727062    0.1908893 
C     2.1836556   -2.0972833    0.9938920 
C     3.4063698   -2.6101489    1.4526028 
C     4.6857109   -1.9376331    0.9332277 
C     5.9156879   -2.2810664    1.7901926 
C     4.9213885   -2.4208643   -0.5313738 
C     3.3451479   -3.7343674    2.2933584 
C     2.1109368   -4.3164255    2.6237701 
C     0.9096103   -3.7920344    2.1256226 
C     0.9329399   -2.6500580    1.3001868 
C    -0.2302517   -2.3588511   -1.2791505 
C     0.2923822   -3.6312628   -1.5955209 
C     0.5307179   -3.9783704   -2.9316059 
C     0.2612928   -3.0593862   -3.9590491 
C    -0.2423662   -1.7885100   -3.6476724 
C    -0.4844774   -1.4391605   -2.3120637 
C    -1.8484335   -2.9990174    1.1051749 
C    -2.2207141   -2.8532100    2.4592031 
C    -3.1409042   -3.7364477    3.0374655 
C    -3.7096412   -4.7619676    2.2647602 
C    -3.3624810   -4.8914057    0.9130328 
C    -2.4328251   -4.0162886    0.3309259 
H     2.9109611    0.9976182   -2.0736868 
H     2.7321413    0.9946221   -4.5528931 
H     0.6372973    1.7790539   -5.6688405 
H    -1.2949437    2.5616908   -4.2797036 
H    -1.1271536    2.5375762   -1.7931824 
H     0.9417149    2.7838580    2.7273110 
H     1.2430865    5.0770093    3.6521189 
H     1.3561326    7.0449155    2.1085698 
H     1.1249426    6.7063990   -0.3570663 
H     0.8847543    4.4145056   -1.2921057 
H     3.3952119    3.3651033    0.6753012 
H     5.7077191    2.7150686    1.2952681 
H     6.3436431    0.3240907    1.4968423 
H     5.7880043   -1.9515051    2.8352982 
H     6.0992538   -3.3681574    1.7837204 
H     6.8206582   -1.8044845    1.3786987 
H     5.0861151   -3.5119777   -0.5469160 
H     5.8087287   -1.9201095   -0.9554150 
H     4.0509494   -2.1916208   -1.1691531 
H     4.2662904   -4.1731000    2.6865613 
H     2.0847452   -5.1980963    3.2716387 
H    -0.0398961   -4.2705829    2.3788321 
H     0.5186222   -4.3465221   -0.7972123 
H     0.9334122   -4.9680902   -3.1710609 
H     0.4539885   -3.3332168   -5.0016889 
H    -0.4359538   -1.0581640   -4.4393081 
H    -0.8491876   -0.4364069   -2.0669813 
H    -1.7730099   -2.0567685    3.0665193 
H    -3.4140696   -3.6250108    4.0920264 
H    -4.4303784   -5.4521548    2.7152443 
H    -3.8204862   -5.6745825    0.3004207 
H    -2.1755134   -4.1216825   -0.7267278 
