103
Energy =
C     0.7531230    1.6650941    2.7376229 
C    -0.3754304    2.2815779    2.1307658 
C    -1.6842105    1.7550558    2.2500402 
H    -0.2069365    3.1143151    1.4351004 
Pd   -0.2493978    0.2781401    1.2872951 
P    -1.9140692   -0.6786038   -0.1403946 
P     1.7147630   -0.9143783    0.7113744 
H     0.5954043    1.0794379    3.6551079 
H    -1.9237835    1.1535031    3.1392276 
C     4.6341785    3.4589606    2.2769892 
C     3.7617066    3.3907569    1.1773303 
C     2.5109352    2.7797613    1.3106795 
C     2.1073888    2.2250497    2.5480941 
C     3.0049950    2.2709373    3.6346563 
C     4.2533360    2.8925400    3.5022293 
H     5.6108969    3.9430786    2.1745815 
H     4.0604881    3.8120571    0.2115891 
H     1.8435280    2.7096520    0.4440427 
H     2.7161313    1.8244977    4.5920982 
H     4.9345189    2.9275782    4.3584809 
C    -5.0279318    3.6314573    0.3011220 
C    -3.7981596    3.5260392   -0.3704436 
C    -2.7095400    2.9074129    0.2520707 
C    -2.8320495    2.3732389    1.5558343 
C    -4.0775000    2.4668692    2.2110871 
C    -5.1624666    3.1007755    1.5926463 
H    -5.8791518    4.1199540   -0.1843681 
H    -3.6895077    3.9230632   -1.3851696 
H    -1.7590821    2.8122331   -0.2846111 
H    -4.1923152    2.0414369    3.2135294 
H    -6.1202516    3.1713141    2.1181878 
C    -2.7820681   -3.4028237   -0.3641870 
C    -2.6769793   -4.7091452   -0.8664535 
C    -1.6506046   -5.0440079   -1.7591550 
C    -0.7242410   -4.0661293   -2.1558511 
C    -0.8237230   -2.7627859   -1.6594164 
C    -1.8540151   -2.4204160   -0.7576546 
C    -3.5841215   -0.5603369    0.6152481 
C    -4.7221629    0.0075845    0.0163268 
C    -5.9523111   -0.0086459    0.6903113 
C    -6.0601527   -0.5875156    1.9618072 
C    -4.9226042   -1.1336067    2.5770722 
C    -3.6904460   -1.1120781    1.9120138 
C    -1.8802926    0.1892895   -1.7762630 
C    -2.8734639    0.0265235   -2.7662172 
C    -2.6742038    0.5233403   -4.0595070 
C    -1.4631040    1.1408641   -4.4147441 
C    -0.6885539    0.8254886   -2.1684553 
C    -0.4347323    1.2879930   -3.4713702 
O     0.3392876    0.9183780   -1.2387965 
C     1.5829945    0.5309875   -1.7117512 
C     1.9578775    0.9750812   -2.9930491 
C     0.9591447    1.8856717   -3.7325656 
C     1.0224171    3.3088820   -3.0977467 
C     1.2722642    1.9883105   -5.2344767 
C     3.2126395    0.5690055   -3.4722603 
C     4.0525310   -0.2349890   -2.6838274 
C     3.6465451   -0.6658073   -1.4152740 
C     2.3803921   -0.3023493   -0.9014894 
C     1.4825086   -2.7368887    0.5485078 
C     0.4474128   -3.3214976    1.3056419 
C     0.2563922   -4.7091535    1.2955968 
C     1.0927324   -5.5242672    0.5203648 
C     2.1207493   -4.9483709   -0.2417374 
C     2.3192924   -3.5618849   -0.2276510 
C     3.1361269   -0.8401437    1.8845440 
C     3.0108207   -1.5671501    3.0885533 
C     4.0416172   -1.5506578    4.0355575 
C     5.2118842   -0.8141161    3.7915720 
C     5.3336149   -0.0786805    2.6058647 
C     4.2985283   -0.0794505    1.6590003 
H    -3.5960110   -3.1538308    0.3229079 
H    -3.4086295   -5.4642241   -0.5603758 
H    -1.5712711   -6.0642962   -2.1481571 
H     0.0826605   -4.3204327   -2.8501324 
H    -0.0954110   -2.0085442   -1.9779299 
H    -4.6542155    0.5010662   -0.9551291 
H    -6.8273093    0.4498497    0.2188514 
H    -7.0239561   -0.5988983    2.4809552 
H    -4.9931762   -1.5723370    3.5777918 
H    -2.7993751   -1.5256654    2.4010397 
H    -3.7836310   -0.5355960   -2.5409905 
H    -3.4575296    0.3954467   -4.8130107 
H    -1.3198315    1.4863184   -5.4421198 
H     0.7974410    3.2769226   -2.0187203 
H     2.0305083    3.7370685   -3.2313870 
H     0.2878897    3.9714351   -3.5863897 
H     2.2697620    2.4307226   -5.3922075 
H     0.5473796    2.6512456   -5.7350804 
H     1.2434839    1.0009205   -5.7258698 
H     3.5496316    0.8843129   -4.4634435 
H     5.0339298   -0.5320547   -3.0661581 
H     4.3186793   -1.2886225   -0.8177344 
H    -0.2223119   -2.6785053    1.8899161 
H    -0.5580408   -5.1500386    1.8786172 
H     0.9383440   -6.6079764    0.5022763 
H     2.7720407   -5.5817409   -0.8529993 
H     3.1201379   -3.1305897   -0.8336443 
H     2.1118324   -2.1635365    3.2800408 
H     3.9350630   -2.1249651    4.9617547 
H     6.0221255   -0.8101072    4.5279214 
H     6.2319592    0.5168180    2.4152234 
H     4.3982280    0.5325275    0.7593056 
