103
Energy =
C    -3.5080242    0.4751882    0.3896801 
C    -2.8171065    1.0543705    1.4685781 
C    -2.0225370    2.2331734    1.2231090 
H    -2.8168867    0.5732554    2.4545429 
Pd   -1.1400120    0.5620188    0.1252657 
P     0.6326177    1.8762542   -0.7091987 
P    -0.5724572   -1.7114995   -0.3664285 
H    -3.5443103    1.0717272   -0.5354046 
H    -2.4095090    2.9273397    0.4673433 
C    -6.2863766   -2.7818249    0.2803324 
C    -5.9389959   -2.0944570   -0.8929832 
C    -5.0180539   -1.0452517   -0.8351963 
C    -4.4173061   -0.6666982    0.3916400 
C    -4.7753973   -1.3734697    1.5635867 
C    -5.7038021   -2.4152355    1.5050858 
H    -7.0148659   -3.5982551    0.2434145 
H    -6.3957588   -2.3701552   -1.8488160 
H    -4.7654446   -0.4908012   -1.7464362 
H    -4.3384083   -1.0957332    2.5266495 
H    -5.9766038   -2.9485784    2.4207713 
C     0.5362524    4.1055168    4.1325841 
C     0.3100522    2.7203070    4.1941703 
C    -0.5177184    2.0996955    3.2537929 
C    -1.1399364    2.8534860    2.2292299 
C    -0.8818661    4.2425516    2.1633943 
C    -0.0584075    4.8626178    3.1114607 
H     1.1796319    4.5903046    4.8740972 
H     0.7870537    2.1215853    4.9767917 
H    -0.6700289    1.0151841    3.3003595 
H    -1.3401797    4.8357313    1.3647364 
H     0.1177722    5.9418620    3.0536331 
C    -2.5528005   -3.7965666   -0.2169290 
C    -3.3331154   -4.7093669    0.5110626 
C    -3.3269460   -4.6895781    1.9123737 
C    -2.5673846   -3.7254434    2.5943435 
C    -1.8075444   -2.7974458    1.8739863 
C    -1.7713720   -2.8458541    0.4620670 
C    -0.5903711   -2.1814293   -2.1359966 
C    -1.7116945   -1.8058884   -2.9065848 
C    -1.7692167   -2.1249848   -4.2684367 
C    -0.6964809   -2.7981168   -4.8767838 
C     0.4279359   -3.1542178   -4.1183320 
C     0.4821494   -2.8538868   -2.7492164 
C     0.9880617   -2.4226245    0.3439798 
C     1.0543267   -3.7472024    0.8302660 
C     2.1672337   -4.1737121    1.5637059 
C     3.2146154   -3.2850083    1.8586480 
C     2.1072189   -1.6018639    0.5648706 
C     3.2076458   -1.9729653    1.3595271 
O     2.0788501   -0.3579968   -0.0184443 
C     2.6143297    0.6807578    0.7141711 
C     3.6678218    0.4511341    1.6074161 
C     4.3265840   -0.9376189    1.5697348 
C     5.2631078   -0.9797288    0.3226215 
C     5.1472840   -1.2232116    2.8394806 
C     4.0700410    1.5489453    2.3896189 
C     3.4440849    2.7991732    2.2511965 
C     2.4266013    3.0021503    1.3072455 
C     2.0062393    1.9297072    0.5002584 
C     0.2304229    3.6131406   -1.1696575 
C    -1.0834318    3.9172770   -1.5779541 
C    -1.4122223    5.2047208   -2.0241058 
C    -0.4274385    6.2023768   -2.0706362 
C     0.8921071    5.8978834   -1.7024250 
C     1.2257949    4.6079702   -1.2678940 
C     1.3701697    1.2737962   -2.2864580 
C     0.4806622    0.8474969   -3.2903189 
C     0.9712883    0.4158248   -4.5292264 
C     2.3531660    0.4007434   -4.7693479 
C     3.2425373    0.8290258   -3.7715577 
C     2.7558598    1.2697115   -2.5330580 
H    -2.5356842   -3.8454400   -1.3099993 
H    -3.9366804   -5.4489407   -0.0250667 
H    -3.9214590   -5.4176448    2.4738084 
H    -2.5682709   -3.6964363    3.6890949 
H    -1.2024743   -2.0541905    2.4079982 
H    -2.5393718   -1.2659928   -2.4321670 
H    -2.6470471   -1.8421314   -4.8589575 
H    -0.7366267   -3.0397143   -5.9439962 
H     1.2685757   -3.6710403   -4.5925088 
H     1.3596544   -3.1374420   -2.1591757 
H     0.2189869   -4.4328787    0.6623033 
H     2.2072342   -5.2020684    1.9358164 
H     4.0497469   -3.6291385    2.4749833 
H     4.6956169   -0.7823270   -0.6029717 
H     6.0550342   -0.2167731    0.4169477 
H     5.7336583   -1.9743125    0.2364269 
H     5.9468416   -0.4734806    2.9584668 
H     5.6430831   -2.2053137    2.7714785 
H     4.5138187   -1.2100801    3.7426206 
H     4.8805281    1.4348733    3.1149499 
H     3.7567522    3.6328978    2.8871115 
H     1.9426947    3.9782952    1.2278735 
H    -1.8490267    3.1335484   -1.5623050 
H    -2.4374257    5.4272271   -2.3376278 
H    -0.6834036    7.2113082   -2.4100229 
H     1.6703893    6.6656405   -1.7640886 
H     2.2664169    4.3757812   -1.0216907 
H    -0.5986244    0.8453696   -3.0995447 
H     0.2721244    0.0788337   -5.3003748 
H     2.7381905    0.0563357   -5.7347676 
H     4.3217478    0.8228853   -3.9579128 
H     3.4554916    1.6050164   -1.7596992 
