103
Energy =
C     0.1597178    0.7902554    3.3882590 
C    -0.4321598    1.8650731    2.6948164 
C    -1.7535071    1.7065219    2.1487158 
H     0.1384388    2.7776974    2.4806720 
Pd   -0.3820204    0.3187658    1.1557418 
P    -2.0431771   -0.6070737   -0.2810451 
P     1.6821282   -0.5749829    0.3529883 
H    -0.5160590   -0.0256024    3.6870045 
H    -2.4572241    1.0720691    2.7075844 
C     3.9228620    0.6006548    5.4326405 
C     3.0293358   -0.4805153    5.4708726 
C     1.8113121   -0.3998548    4.7890537 
C     1.4658359    0.7551555    4.0448611 
C     2.3786765    1.8356531    4.0173237 
C     3.5896877    1.7578354    4.7089027 
H     4.8743201    0.5465829    5.9715026 
H     3.2770847   -1.3798888    6.0438213 
H     1.0993300   -1.2317416    4.8436689 
H     2.1359215    2.7454928    3.4620247 
H     4.2825416    2.6041719    4.6824835 
C    -3.5861314    4.7279151   -0.3153558 
C    -2.2849857    4.2822483   -0.6038844 
C    -1.6796594    3.3139968    0.2042357 
C    -2.3702509    2.7582873    1.3065231 
C    -3.6772633    3.2133225    1.5842514 
C    -4.2757923    4.1961662    0.7847861 
H    -4.0599889    5.4863572   -0.9470728 
H    -1.7442216    4.6859061   -1.4665815 
H    -0.6771432    2.9433316   -0.0430831 
H    -4.2267347    2.7869932    2.4299549 
H    -5.2885036    4.5422031    1.0169772 
C    -1.3102440   -3.1388558    0.6322919 
C    -1.0873016   -4.5174104    0.5406129 
C    -1.1951410   -5.1639471   -0.7000239 
C    -1.5277012   -4.4276557   -1.8460242 
C    -1.7816560   -3.0508177   -1.7554136 
C    -1.6864445   -2.3991714   -0.5107395 
C    -3.7704886   -0.5465634    0.3520537 
C    -4.2954335   -1.5758180    1.1613776 
C    -5.5913165   -1.4696650    1.6842244 
C    -6.3780358   -0.3411974    1.4052702 
C    -5.8615976    0.6840613    0.6004256 
C    -4.5635179    0.5891575    0.0795594 
C    -2.1983477    0.0512535   -1.9899519 
C    -3.3215903   -0.1410300   -2.8220060 
C    -3.2522577    0.2077863   -4.1772708 
C    -2.0657441    0.7212714   -4.7307931 
C    -1.0570543    0.6287902   -2.5642676 
C    -0.9348071    0.9414965   -3.9278415 
O     0.0286707    0.8243259   -1.7341710 
C     1.2361945    0.4209710   -2.2666082 
C     1.5003079    0.7011268   -3.6208505 
C     0.4250139    1.4900109   -4.3933587 
C     0.5201897    2.9889458   -3.9721150 
C     0.6045211    1.3755083   -5.9162849 
C     2.7366387    0.2730109   -4.1265729 
C     3.6661749   -0.3805237   -3.2960692 
C     3.3703418   -0.6377656   -1.9530712 
C     2.1177314   -0.2625685   -1.4197086 
C     1.9634278   -2.3694105    0.6037267 
C     2.0902161   -3.2828491   -0.4600276 
C     2.2589906   -4.6494869   -0.1938002 
C     2.3033638   -5.1154301    1.1275723 
C     2.1537551   -4.2114754    2.1917696 
C     1.9716285   -2.8477344    1.9324741 
C     3.1461540    0.2786361    1.0931405 
C     3.2225419    1.6693998    0.8579162 
C     4.3564466    2.3917543    1.2456664 
C     5.4169583    1.7370477    1.8922213 
C     5.3317380    0.3629483    2.1544840 
C     4.2039593   -0.3704120    1.7528002 
H    -1.1833127   -2.6284496    1.5948669 
H    -0.8036466   -5.0815622    1.4340391 
H    -1.0065366   -6.2398623   -0.7747901 
H    -1.6001098   -4.9268500   -2.8179635 
H    -2.0548973   -2.4883233   -2.6535158 
H    -3.7030999   -2.4718951    1.3702717 
H    -5.9912703   -2.2792505    2.3035759 
H    -7.3926609   -0.2652978    1.8096446 
H    -6.4661716    1.5688959    0.3756134 
H    -4.1740806    1.3970150   -0.5472401 
H    -4.2343029   -0.5859319   -2.4136151 
H    -4.1248540    0.0536686   -4.8196317 
H    -2.0304034    0.9478370   -5.8001063 
H     0.3886196    3.1039522   -2.8831234 
H     1.5063252    3.3982412   -4.2503636 
H    -0.2652044    3.5733724   -4.4814250 
H     1.5795009    1.7885930   -6.2231826 
H    -0.1684197    1.9601764   -6.4419667 
H     0.5441172    0.3272585   -6.2548993 
H     2.9951917    0.4600816   -5.1725567 
H     4.6337494   -0.6872608   -3.7052411 
H     4.1049754   -1.1379522   -1.3132773 
H     2.0493691   -2.9340554   -1.4960081 
H     2.3532834   -5.3525699   -1.0275965 
H     2.4438098   -6.1823763    1.3293886 
H     2.1773825   -4.5696428    3.2264756 
H     1.8487239   -2.1455964    2.7641824 
H     2.3987848    2.1793035    0.3424957 
H     4.4134565    3.4664235    1.0430622 
H     6.3063217    2.2994527    2.1947685 
H     6.1521731   -0.1502933    2.6666732 
H     4.1645311   -1.4478134    1.9381852 
