103
Energy =
C    -3.0499284   -0.0279185    1.2388487 
C    -2.3448046    1.0697545    1.8045403 
C    -2.1375032    2.2819553    1.1031120 
H    -1.8276012    0.9229016    2.7619935 
Pd   -1.2443631    0.4974594    0.0146599 
P     0.5988580    1.7376376   -0.8728634 
P    -0.8736272   -1.6944987   -0.8046256 
H    -3.8232991    0.1831034    0.4856021 
H    -2.8643913    2.5644666    0.3274384 
C    -3.5916948   -3.6059824    3.5622714 
C    -2.3518286   -2.9444393    3.5780125 
C    -2.1577271   -1.7988424    2.7999125 
C    -3.2012850   -1.2913230    1.9903859 
C    -4.4297790   -1.9828540    1.9584168 
C    -4.6259468   -3.1242041    2.7466052 
H    -3.7459397   -4.4992950    4.1763124 
H    -1.5327196   -3.3265803    4.1964609 
H    -1.1818353   -1.2996815    2.7991205 
H    -5.2389419   -1.6154552    1.3183448 
H    -5.5891013   -3.6437245    2.7171603 
C     0.0852901    5.5224078    2.8521824 
C     0.5241219    4.1994791    3.0300411 
C    -0.1864308    3.1412309    2.4551666 
C    -1.3457813    3.3857918    1.6829661 
C    -1.7641184    4.7195845    1.4947806 
C    -1.0604175    5.7773541    2.0841055 
H     0.6394001    6.3508827    3.3054725 
H     1.4265132    3.9929990    3.6149811 
H     0.1724006    2.1138339    2.5827547 
H    -2.6491992    4.9254424    0.8838111 
H    -1.4028549    6.8062751    1.9338674 
C    -2.3979778   -3.9289277    0.1712864 
C    -3.5095043   -4.7840210    0.1376565 
C    -4.5289918   -4.5866447   -0.8021137 
C    -4.4393097   -3.5204783   -1.7113403 
C    -3.3259315   -2.6721758   -1.6927950 
C    -2.2881788   -2.8772911   -0.7574379 
C    -0.4024614   -1.7742085   -2.5861470 
C    -0.8513156   -0.7271244   -3.4158425 
C    -0.5988138   -0.7541032   -4.7934445 
C     0.1135620   -1.8240242   -5.3526239 
C     0.5692228   -2.8668876   -4.5315048 
C     0.3113058   -2.8467327   -3.1549280 
C     0.4772619   -2.5134079    0.1565634 
C     0.7945691   -3.8869125    0.0474191 
C     1.8849218   -4.4249598    0.7410179 
C     2.6855456   -3.6132621    1.5616845 
C     1.2866316   -1.7421281    1.0151225 
C     2.3932601   -2.2500149    1.7200844 
O     1.0008012   -0.3937215    1.1582898 
C     2.1088581    0.4421851    1.1061104 
C     3.2561726    0.0516408    1.8182358 
C     3.1597444   -1.2598548    2.6175661 
C     4.5440118   -1.7954116    3.0193720 
C     2.3167885   -1.0028558    3.9043918 
C     4.3857721    0.8778449    1.7155679 
C     4.3602306    2.0235476    0.9025694 
C     3.2175241    2.3539205    0.1648462 
C     2.0471113    1.5717670    0.2699350 
C     0.1607593    3.5061716   -1.1046746 
C     0.8683986    4.6060972   -0.5890900 
C     0.4486457    5.9117099   -0.8838633 
C    -0.6751356    6.1333357   -1.6908681 
C    -1.4023584    5.0400547   -2.1874860 
C    -0.9925726    3.7347364   -1.8889054 
C     1.4534533    1.3053361   -2.4545865 
C     2.1821891    0.0974313   -2.4982313 
C     2.8432933   -0.2864186   -3.6689655 
C     2.7860618    0.5295432   -4.8103040 
C     2.0669072    1.7311406   -4.7717775 
C     1.4005078    2.1217565   -3.5999563 
H    -1.6337212   -4.0772012    0.9380431 
H    -3.5795669   -5.5985102    0.8655044 
H    -5.3948404   -5.2564043   -0.8242722 
H    -5.2335818   -3.3553496   -2.4468111 
H    -3.2561328   -1.8571900   -2.4218386 
H    -1.3848783    0.1218095   -2.9709603 
H    -0.9423843    0.0705480   -5.4255383 
H     0.3217715   -1.8416668   -6.4273037 
H     1.1306137   -3.7013650   -4.9644406 
H     0.6800697   -3.6641232   -2.5300885 
H     0.1829843   -4.5390303   -0.5829687 
H     2.1174694   -5.4894379    0.6388714 
H     3.5368026   -4.0564369    2.0855516 
H     5.1754830   -1.9968732    2.1374348 
H     5.0649092   -1.0706291    3.6665720 
H     4.4444242   -2.7268907    3.6008457 
H     2.8277033   -0.2662302    4.5475705 
H     2.1946920   -1.9427558    4.4693321 
H     1.3157666   -0.6122942    3.6566457 
H     5.3040506    0.6221713    2.2511566 
H     5.2567555    2.6450983    0.8153136 
H     3.2537581    3.1934182   -0.5344125 
H     1.7219755    4.4588730    0.0753657 
H     1.0001322    6.7590387   -0.4643249 
H    -0.9951062    7.1550639   -1.9194559 
H    -2.2924894    5.2033480   -2.8039144 
H    -1.5712274    2.8817370   -2.2652285 
H     2.2360049   -0.5475366   -1.6138024 
H     3.3998106   -1.2284925   -3.6918994 
H     3.3036968    0.2276139   -5.7265462 
H     2.0258969    2.3768725   -5.6552251 
H     0.8527336    3.0684124   -3.5818470 
