77
Energy =
C     1.2159094   -1.0089681   -2.9990930 
C     1.7228066    0.1867460   -2.4368093 
C     2.9301066    0.2455314   -1.6859594 
H     1.1976323    1.1309201   -2.6292750 
Pd    1.4874026   -0.5846504   -0.3050165 
P     0.9900866   -1.3741437    3.0102203 
P    -1.9850102   -2.1734979   -0.2955331 
H     1.7954173   -1.9296938   -2.8498178 
H     3.6134970   -0.6193008   -1.7441660 
C    -1.8465604   -1.3992979   -6.0376278 
C    -1.7681058   -0.0580141   -5.3928021 
C    -0.6380710    0.1693593   -4.3318151 
C     0.1170967   -1.0809286   -3.9091382 
C    -0.1708594   -2.2986840   -4.5054804 
C    -1.1201174   -2.4569469   -5.5777718 
H    -2.5461328   -1.5327109   -6.8713225 
H    -1.7741633    0.7338403   -6.1608935 
H    -1.6542273    1.8162838   -3.2408927 
H     0.3896922   -3.1837637   -4.1815798 
H    -1.2277320   -3.4449503   -6.0362956 
C     5.8478735    1.2628852    2.0090967 
C     5.5215944    0.3572861    1.0544474 
C     4.1390069    2.3642457   -2.2553165 
C     3.5686397    1.5615304   -1.3393929 
C     3.4936695    1.8323987    0.1333182 
C     4.1895933    2.9322503    0.9719047 
H     6.7938427    1.5849272    2.4597389 
H     6.1114228   -0.3427839    0.4517362 
H     4.1727527    2.0971420   -3.3174230 
H     2.4163845    1.8697721    0.3980004 
H     3.5369699    3.7734580    1.2535472 
C    -0.3119755   -0.4000473    3.8862439 
C     2.2777937   -0.1036723    2.5860248 
C    -3.0934139   -1.5777490    1.0691884 
C    -2.3606377   -1.0685019   -1.7079285 
C    -1.0825713    0.5982206    3.2546299 
C     2.5479603    1.0109207    3.4838881 
C    -3.0887679   -2.3063381    2.2776088 
C    -1.6757745    0.0744702   -1.9653707 
C    -0.5285806   -0.7000315    5.2462133 
C     3.0323487   -0.3368917    1.4320938 
C    -3.9247830   -0.4483645    0.9407770 
C    -3.3864888   -1.5611193   -2.6482937 
C     0.3297356   -1.3958582    1.3530099 
C    -0.4498836   -1.5067849    0.3604164 
C    -2.0511780    1.2951506    3.9846668 
C     3.5969170    1.8746396    3.3152704 
C    -3.8907337   -1.8966721    3.3496783 
C    -1.7243646    0.7181902   -3.3155961 
C    -1.4982436    0.0076501    5.9734476 
C     4.0452955    0.7008026    1.0625498 
C    -4.7444767   -0.0578088    2.0101113 
C    -3.6579330   -0.9290741   -3.8104146 
C    -2.2581282    1.0028662    5.3432861 
C     4.4349064    1.8250100    2.0898618 
C    -4.7239699   -0.7750454    3.2152793 
C    -2.8696327    0.2582548   -4.2873631 
H    -0.9369057    0.8110532    2.1904841 
H     1.9118406    1.1044085    4.3712821 
H    -2.4497117   -3.1910756    2.3822344 
H    -0.9621280    0.4734287   -1.2330002 
H     0.0562751   -1.4882339    5.7337777 
H     3.1695670   -1.3816781    1.0904943 
H    -3.9292637    0.1248683    0.0075176 
H    -3.9691814   -2.4430636   -2.3564496 
H    -2.6559757    2.0612599    3.4894423 
H     3.8078186    2.6262346    4.0873424 
H    -3.8698690   -2.4571530    4.2898874 
H     0.0931832    0.9415997   -4.6297198 
H    -1.6635738   -0.2265673    7.0301702 
H     4.5979708    3.3153877   -1.9624726 
H    -5.3969213    0.8154045    1.9017469 
H    -4.4722339   -1.2858048   -4.4520483 
H    -3.0208857    1.5480724    5.9090029 
H     5.1391784    3.3183090    0.5700903 
H    -5.3574456   -0.4609579    4.0512064 
H    -3.5555755    1.0620494   -4.6088554 
