77
Energy =
C     0.4530727    0.7959098   -2.8122951 
C     1.8010804    1.0118017   -2.3660681 
C     2.4700378   -0.0515230   -1.7206134 
H     2.2600483    2.0042703   -2.4391643 
Pd    0.5667271    0.6500746   -0.6420808 
P    -0.8684036    2.3173924    1.6332280 
P    -2.4370739   -1.0475306   -1.4364194 
H     0.1890724   -0.2353899   -3.0856116 
H     2.0486387   -1.0599211   -1.8532081 
C    -2.2009740    3.7714730   -4.3890278 
C    -1.0996347    4.1711539   -3.6111054 
C    -0.2237253    3.2153761   -3.0920148 
C    -0.4318025    1.8371408   -3.3460728 
C    -1.5501313    1.4495318   -4.1212817 
C    -2.4241710    2.4091448   -4.6419286 
H    -2.8862271    4.5235881   -4.7931867 
H    -0.9307448    5.2331166   -3.4064628 
H     0.6159112    3.5379857   -2.4669653 
H    -1.7288423    0.3861109   -4.3116755 
H    -3.2819448    2.0952149   -5.2449808 
C     6.4548567   -0.0828798   -0.1423839 
C     5.6956252   -1.2636673   -0.2038648 
C     4.3921046   -1.2295453   -0.7075649 
C     3.8205831   -0.0154369   -1.1601754 
C     4.5920221    1.1687769   -1.0762039 
C     5.8984211    1.1312114   -0.5789848 
H     7.4794247   -0.1087069    0.2425807 
H     6.1271910   -2.2113503    0.1337362 
H     3.7990292   -2.1489701   -0.7641011 
H     4.1722800    2.1239559   -1.4059212 
H     6.4884857    2.0520644   -0.5315632 
C    -3.5684941   -1.7077641   -0.1204997 
C    -1.0233749   -2.2544835   -1.4605999 
C    -1.6339814    1.5456511    3.1319543 
C     0.8903983    1.6368356    1.6988716 
C    -4.5217050   -0.8295434    0.4381339 
C    -0.2792549   -2.5793656   -0.3041097 
C    -1.5610752    2.2937599    4.3260418 
C     1.1362425    0.2460171    1.8845493 
C    -3.5481920   -3.0576131    0.2804467 
C    -0.6284367   -2.7833215   -2.7043451 
C    -2.2842962    0.2951374    3.1324734 
C     1.9867345    2.5316556    1.6735804 
C    -1.6428590    0.2154166   -0.4256151 
C    -1.3414600    1.1393311    0.3742150 
C    -5.4196164   -1.2910550    1.4088141 
C     0.8501739   -3.4020132   -0.3973862 
C    -2.1080760    1.7817793    5.5103567 
C     2.4520443   -0.2232856    2.0596481 
C    -4.4596271   -3.5154237    1.2449026 
C     0.5081215   -3.6052312   -2.7973531 
C    -2.8469033   -0.2021430    4.3165512 
C     3.2904238    2.0491574    1.8479092 
C    -5.3900166   -2.6348275    1.8150680 
C     1.2501976   -3.9091647   -1.6467269 
C    -2.7539709    0.5354244    5.5063443 
C     3.5232911    0.6762982    2.0459240 
H    -4.5536087    0.2214090    0.1283682 
H    -0.5966915   -2.1905422    0.6692870 
H    -1.0781136    3.2782904    4.3307635 
H     0.2911841   -0.4406556    2.0070645 
H    -2.8243446   -3.7551919   -0.1534351 
H    -1.2059792   -2.5455320   -3.6052787 
H    -2.3708052   -0.2866563    2.2089715 
H     1.8062575    3.6032305    1.5353006 
H    -6.1458240   -0.5986492    1.8469184 
H     1.4190705   -3.6508132    0.5049202 
H    -2.0420397    2.3643783    6.4350758 
H     2.6296242   -1.2917658    2.2170941 
H    -4.4382207   -4.5668260    1.5503911 
H     0.8099141   -4.0095466   -3.7690040 
H    -3.3624558   -1.1682867    4.3020907 
H     4.1337857    2.7468885    1.8355611 
H    -6.0966134   -2.9956391    2.5695852 
H     2.1342581   -4.5513451   -1.7203150 
H    -3.1926399    0.1441081    6.4300829 
H     4.5460179    0.3115435    2.1787904 
