65
Energy =
C     0.6551172   -1.6320707   -1.8542111 
C     1.7849535   -0.8954131   -1.3914084 
C     2.2850721   -1.0860893   -0.0770257 
H     2.1461207   -0.0469657   -1.9857750 
Pd    0.1337205   -0.4881189   -0.0002298 
P     0.0501685    0.7830055    1.9435637 
P    -2.1771979   -0.2600801   -0.1149911 
H     0.5183327   -2.6460581   -1.4489386 
H     2.0857081   -2.0617109    0.3947427 
C    -1.4450520   -0.8842540   -5.5437803 
C    -1.4861192   -2.1505265   -4.9408584 
C    -0.7876440   -2.3864670   -3.7496596 
C    -0.0366849   -1.3613785   -3.1318926 
C     0.0019310   -0.0926163   -3.7570677 
C    -0.6919264    0.1419623   -4.9487718 
H    -1.9908316   -0.6984387   -6.4742770 
H    -2.0590085   -2.9607061   -5.4037591 
H    -0.8173678   -3.3811671   -3.2918900 
H     0.5635341    0.7270895   -3.2960586 
H    -0.6502360    1.1320998   -5.4145870 
C     5.2983176    1.2123789    1.9648619 
C     4.7755529    0.0409914    2.5350172 
C     3.8132500   -0.7059133    1.8440996 
C     3.3463163   -0.2948378    0.5734810 
C     3.8893135    0.8819452    0.0082505 
C     4.8554169    1.6241347    0.6964733 
H     6.0534794    1.7965218    2.5003300 
H     5.1247171   -0.2956097    3.5166193 
H     3.4120556   -1.6233264    2.2908691 
H     3.5522117    1.2281065   -0.9740807 
H     5.2672662    2.5306911    0.2412144 
C    -1.5987230    1.6654592    1.9087501 
C    -2.7286125    0.7857499    1.3434648 
C     0.1402799   -0.1759350    3.5282190 
C     1.3026509    2.1335440    2.1327869 
C    -2.8003260    0.5952521   -1.6327361 
C    -3.2345307   -1.7750943    0.0623915 
C    -0.7356891   -1.4369086    3.5573250 
C     1.1052074    3.0882767    3.3203798 
C    -2.2089009    1.9998750   -1.8160565 
C    -3.0051507   -2.8450395   -1.0112724 
H    -1.8550072    2.0413138    2.9154168 
H    -1.4370162    2.5468664    1.2611765 
H    -3.0841958    0.0758234    2.1104161 
H    -3.5988626    1.3992898    1.0486151 
H     1.2089369   -0.4447103    3.6276433 
H    -0.1038337    0.5010660    4.3670402 
H     2.2812568    1.6248579    2.1911761 
H     1.2979208    2.6814421    1.1728815 
H    -2.5168608   -0.0538564   -2.4814582 
H    -3.9051777    0.6220429   -1.5850514 
H    -3.0123842   -2.1790712    1.0672350 
H    -4.2876310   -1.4346821    0.0734233 
H    -1.8110041   -1.1896229    3.5403071 
H    -0.5196079   -2.0924469    2.6941988 
H    -0.5460360   -2.0122227    4.4791522 
H     0.1428780    3.6255831    3.2657736 
H     1.1502462    2.5566076    4.2859505 
H     1.9088150    3.8445281    3.3221920 
H    -2.5560500    2.6962226   -1.0324792 
H    -1.1052094    1.9710622   -1.7890900 
H    -2.5128494    2.4155332   -2.7913612 
H    -3.2085981   -2.4628550   -2.0255270 
H    -1.9644091   -3.2094585   -0.9874044 
H    -3.6720130   -3.7056711   -0.8337391 
