65
Energy =
C     0.7359853   -1.5148394   -2.0594002 
C     1.8088222   -0.7304265   -1.5558114 
C     2.3421341   -0.9913928   -0.2589741 
H     2.0838522    0.1980891   -2.0712185 
Pd    0.1630819   -0.5870860   -0.1119048 
P    -0.0411172    0.1727443    2.0676603 
P    -2.1183347   -0.2572764   -0.3471565 
H     0.6474769   -2.5423267   -1.6720369 
H     2.3071841   -2.0330821    0.0959038 
C    -1.6747100   -0.7916637   -5.5534094 
C    -0.7062560    0.1528733   -5.1738362 
C     0.1039888   -0.0733342   -4.0554833 
C    -0.0366943   -1.2527088   -3.2887798 
C    -1.0011331   -2.2046229   -3.6961018 
C    -1.8143200   -1.9760080   -4.8128216 
H    -2.3073483   -0.6103233   -6.4280526 
H    -0.5808690    1.0718974   -5.7556489 
H     0.8487066    0.6795374   -3.7776935 
H    -1.1092841   -3.1344697   -3.1252067 
H    -2.5536633   -2.7265758   -5.1108819 
C     5.0317237    1.5241520    1.9794156 
C     4.8307555    0.1840585    2.3432506 
C     3.9726393   -0.6279864    1.5901303 
C     3.2905540   -0.1174454    0.4615806 
C     3.5096002    1.2334354    0.1033671 
C     4.3717503    2.0419206    0.8518136 
H     5.7036602    2.1600103    2.5645405 
H     5.3511703   -0.2334558    3.2114261 
H     3.8310856   -1.6779591    1.8719880 
H     2.9889241    1.6651469   -0.7578834 
H     4.5280595    3.0848501    0.5570791 
C    -1.8712712    0.3755869    2.4185435 
C    -2.6813183    0.7151460    1.1513329 
C     0.5906738   -0.9409457    3.4059486 
C     0.7652468    1.8098989    2.3773914 
C    -2.6504390    0.7390876   -1.8131839 
C    -3.1751612   -1.7752639   -0.4303333 
C     0.3513051   -0.4807093    4.8521713 
C     0.4102217    2.8812706    1.3374412 
C    -1.8623794    2.0452491   -1.9803019 
C    -2.9154264   -2.7835001    0.6978528 
H    -2.2010614   -0.5915273    2.8390834 
H    -2.0256221    1.1386959    3.2021581 
H    -3.7624033    0.5558353    1.3159026 
H    -2.5477357    1.7786069    0.8859515 
H     0.1268698   -1.9267280    3.2170842 
H     1.6706390   -1.0536407    3.1969690 
H     0.5069821    2.1407562    3.3997848 
H     1.8512349    1.6009509    2.3598364 
H    -2.4912767    0.0796691   -2.6862388 
H    -3.7382918    0.9231162   -1.7327215 
H    -4.2342429   -1.4567804   -0.4541867 
H    -2.9486979   -2.2227877   -1.4159055 
H     0.8628717    0.4723425    5.0675721 
H    -0.7230816   -0.3540681    5.0709047 
H     0.7467096   -1.2352953    5.5536692 
H     0.6206506    2.5240023    0.3140905 
H    -0.6544953    3.1677551    1.3896149 
H     1.0086415    3.7912449    1.5116617 
H    -2.0513855    2.7544502   -1.1557062 
H    -0.7776075    1.8450670   -2.0188140 
H    -2.1501109    2.5418761   -2.9219403 
H    -1.8473698   -3.0633549    0.7433752 
H    -3.2073618   -2.3793696    1.6826282 
H    -3.5027318   -3.7023693    0.5325097 
