65
Energy =
C     0.6751059   -1.4905960   -1.8361495 
C     1.7778242   -0.7401870   -1.3298383 
C     2.3081993   -1.0101967   -0.0419869 
H     2.0874938    0.1702952   -1.8580303 
Pd    0.1318336   -0.5232876    0.1094354 
P     0.0444404    0.6489209    2.1101067 
P    -2.1884887   -0.4069255    0.0622406 
H     0.5967360   -2.5418103   -1.5207099 
H     2.1506087   -2.0247774    0.3583246 
C    -1.5196258   -0.5182056   -5.4170515 
C    -0.8200101    0.4889434   -4.7311484 
C    -0.0969503    0.1817908   -3.5737646 
C    -0.0518666   -1.1416998   -3.0749852 
C    -0.7508392   -2.1450157   -3.7826256 
C    -1.4784439   -1.8368810   -4.9394370 
H    -2.0883265   -0.2763631   -6.3205594 
H    -0.8434474    1.5203537   -5.0982608 
H     0.4208294    0.9852303   -3.0383087 
H    -0.7163869   -3.1793441   -3.4234570 
H    -2.0097222   -2.6311125   -5.4740376 
C     5.2374430    1.2572097    2.1511663 
C     4.7259312    0.0537575    2.6624104 
C     3.7940001   -0.6823596    1.9210887 
C     3.3449617   -0.2288790    0.6580081 
C     3.8857996    0.9731965    0.1473170 
C     4.8199425    1.7069254    0.8872858 
H     5.9678009    1.8344540    2.7269381 
H     5.0601502   -0.3150013    3.6376190 
H     3.4019768   -1.6249910    2.3209917 
H     3.5777016    1.3431050   -0.8357191 
H     5.2289730    2.6346504    0.4741125 
C    -1.6716302    1.3856012    2.2178204 
C    -2.7504154    0.4577370    1.6302908 
C     0.3291291   -0.3021892    3.6729137 
C     1.1910701    2.0954047    2.2465658 
C    -2.8790630    0.5672413   -1.3510144 
C    -3.1737906   -1.9787840    0.1015767 
C    -0.4915872   -1.5952226    3.7815085 
C     1.1554501    3.0134805    1.0169584 
C    -2.3544163    2.0091613   -1.4039088 
C    -2.9223506   -2.9206853   -1.0816712 
H    -1.8998942    1.6537525    3.2653429 
H    -1.6242111    2.3274348    1.6430752 
H    -2.9980251   -0.3468144    2.3450864 
H    -3.6865847    1.0103060    1.4323422 
H     1.4120785   -0.5257983    3.6720157 
H     0.1386750    0.3738215    4.5274933 
H     0.9462205    2.6443946    3.1751881 
H     2.1998975    1.6632793    2.3762410 
H    -2.5827310    0.0186254   -2.2638817 
H    -3.9829004    0.5379096   -1.2855320 
H    -2.9110695   -2.4733891    1.0548257 
H    -4.2403130   -1.6902392    0.1674795 
H    -1.5727900   -1.3887847    3.8611769 
H    -0.3289874   -2.2442063    2.9019701 
H    -0.1977164   -2.1604193    4.6819168 
H     1.3428265    2.4384466    0.0931648 
H     0.1843653    3.5274655    0.9091113 
H     1.9367378    3.7872280    1.1000667 
H    -2.7293681    2.6124922   -0.5586197 
H    -1.2504675    2.0305960   -1.3805932 
H    -2.6834127    2.4988984   -2.3356850 
H    -3.1637251   -2.4454996   -2.0470759 
H    -1.8668031   -3.2384383   -1.1139898 
H    -3.5478419   -3.8240059   -0.9831337 
