65
Energy =
C     0.8759295   -1.6011966   -1.9157034 
C     1.9535746   -0.7701926   -1.4919256 
C     2.5004101   -0.9127368   -0.1871189 
H     2.2195778    0.1087846   -2.0918077 
Pd    0.3086961   -0.5125405   -0.0630083 
P     0.0961950    0.6050988    1.9586959 
P    -2.0007646   -0.4341957   -0.2447670 
H     0.8240013   -2.6125802   -1.4833251 
H     2.4279881   -1.9088121    0.2774510 
C    -1.5565000   -1.0901281   -5.4359496 
C    -0.7213255   -0.0430005   -5.0102911 
C     0.0883953   -0.1984381   -3.8801019 
C     0.0869212   -1.4099259   -3.1498291 
C    -0.7469039   -2.4597765   -3.5995953 
C    -1.5628336   -2.3010673   -4.7273936 
H    -2.1909365   -0.9642266   -6.3190302 
H    -0.7043759    0.9023875   -5.5625124 
H     0.7154258    0.6385449   -3.5554872 
H    -0.7458654   -3.4137528   -3.0592518 
H    -2.1984494   -3.1285497   -5.0592640 
C     5.2653082    1.7155494    1.8109067 
C     4.7000188    2.1067944    0.5853652 
C     3.8135350    1.2595225   -0.0882304 
C     3.4758189   -0.0050263    0.4472181 
C     4.0618759   -0.3903837    1.6755138 
C     4.9441808    0.4612043    2.3523893 
H     5.9573543    2.3819238    2.3355253 
H     4.9515095    3.0809142    0.1532990 
H     3.3727779    1.5930404   -1.0333244 
H     3.8198468   -1.3719535    2.0998457 
H     5.3888504    0.1418602    3.3006107 
C    -1.6677952    1.2301972    2.0418293 
C    -2.6690712    0.2809719    1.3539110 
C     0.3755962   -0.4468092    3.4593946 
C     1.1519825    2.1036206    2.2157240 
C    -2.6064182    0.6446228   -1.6218998 
C    -2.8865273   -2.0461811   -0.4611894 
C    -0.3449634   -1.8024802    3.4198125 
C     0.8917839    2.9147617    3.4943111 
C    -1.9395086    2.0267012   -1.6605084 
C    -4.4216908   -1.9874186   -0.4837818 
H    -1.9577165    1.4150339    3.0915700 
H    -1.6542369    2.2102383    1.5311980 
H    -2.8846608   -0.5867970    2.0027758 
H    -3.6308622    0.7911276    1.1675344 
H     1.4719277   -0.5892516    3.5000278 
H     0.0886666    0.1322375    4.3560480 
H     2.1946036    1.7394027    2.1787005 
H     1.0111429    2.7234851    1.3113584 
H    -2.3812611    0.0820124   -2.5470903 
H    -3.7055566    0.7305435   -1.5440933 
H    -2.4902485   -2.4660624   -1.4040749 
H    -2.5217609   -2.6977328    0.3542625 
H    -1.4417553   -1.6839841    3.4515800 
H    -0.0866115   -2.3648279    2.5042352 
H    -0.0549881   -2.4146343    4.2903884 
H    -0.1430698    3.2956384    3.5401284 
H     1.0811846    2.3187722    4.4030398 
H     1.5689175    3.7856256    3.5235720 
H    -2.2089481    2.6377825   -0.7814628 
H    -0.8392469    1.9333585   -1.6915350 
H    -2.2611046    2.5781143   -2.5600277 
H    -4.8308552   -1.5585641    0.4472284 
H    -4.7948844   -1.3903254   -1.3327381 
H    -4.8322999   -3.0063210   -0.5891326 
