65
Energy =
C     0.6706857   -1.3157017   -1.8475951 
C     1.7892601   -0.6106100   -1.3291646 
C     2.2710225   -0.8833749   -0.0164490 
H     2.1647017    0.2650183   -1.8736497 
Pd    0.1402885   -0.2733662    0.0797027 
P     0.0837116    0.5571266    2.2488893 
P    -2.1429986    0.1827468   -0.0175085 
H     0.4957188   -2.3301859   -1.4567243 
H     2.1169124   -1.9038834    0.3675430 
C    -1.1895552   -0.5652895   -5.6556166 
C    -0.5760325    0.4914334   -4.9610953 
C     0.0286341    0.2631548   -3.7206214 
C     0.0353322   -1.0304205   -3.1488036 
C    -0.5922788   -2.0821491   -3.8539572 
C    -1.1958015   -1.8523174   -5.0974301 
H    -1.6630358   -0.3836278   -6.6256687 
H    -0.5747737    1.4994115   -5.3888569 
H     0.4814257    1.1011032   -3.1783467 
H    -0.5970669   -3.0901671   -3.4239732 
H    -1.6706647   -2.6809141   -5.6326961 
C     5.2260491    1.3601441    2.1734030 
C     4.6644361    1.9055214    1.0062379 
C     3.7160295    1.1839096    0.2732446 
C     3.3101514   -0.1058818    0.6882622 
C     3.8972928   -0.6488111    1.8546393 
C     4.8415433    0.0771394    2.5922449 
H     5.9650695    1.9289521    2.7464897 
H     4.9660767    2.9022217    0.6679653 
H     3.2773855    1.6372332   -0.6216346 
H     3.6111314   -1.6562531    2.1790767 
H     5.2847557   -0.3631101    3.4914063 
C    -1.6803486    1.0613592    2.6274247 
C    -2.4570314    1.4196841    1.3492471 
C     0.5427154   -0.6352148    3.5885478 
C     1.1341794    2.0425695    2.5803003 
C    -2.9372938    1.0015894   -1.4876065 
C    -3.2132540   -1.2712019    0.4303891 
C    -0.1014943   -2.0181294    3.4180844 
C     0.9053401    3.1894869    1.5871187 
C    -3.4445871    0.0631707   -2.5908659 
C    -2.7832205   -2.5819069   -0.2467584 
H    -2.1515104    0.2010952    3.1367801 
H    -1.6806507    1.8995080    3.3471027 
H    -3.5428808    1.4902887    1.5445753 
H    -2.1299026    2.3981717    0.9527515 
H     1.6447961   -0.7072041    3.5506703 
H     0.2799157   -0.1780545    4.5610189 
H     0.9493750    2.3612945    3.6232963 
H     2.1779261    1.6838378    2.5246464 
H    -3.7665225    1.6176711   -1.0907624 
H    -2.1771954    1.6964698   -1.8883907 
H    -3.1474774   -1.3734270    1.5291755 
H    -4.2619086   -1.0111481    0.1949708 
H    -1.2042665   -1.9677065    3.4547044 
H     0.1835562   -2.4704004    2.4514507 
H     0.2245024   -2.6959667    4.2248036 
H     1.0429644    2.8428483    0.5475509 
H    -0.1086240    3.6170418    1.6778210 
H     1.6273617    4.0020786    1.7737512 
H    -2.6393130   -0.5686089   -2.9953994 
H    -4.2567746   -0.5894964   -2.2285617 
H    -3.8476818    0.6632982   -3.4236103 
H    -2.7857574   -2.4980980   -1.3462891 
H    -1.7627262   -2.8638273    0.0679113 
H    -3.4676175   -3.4001247    0.0348376 
