65
Energy =
C     0.6951925   -1.4568539   -2.0112859 
C     1.7895065   -0.7292459   -1.4708870 
C     2.2635139   -0.9935656   -0.1549912 
H     2.1503841    0.1577779   -2.0068055 
Pd    0.1084428   -0.4464360   -0.0858600 
P     0.0088690    0.4268063    2.0662311 
P    -2.1862399   -0.0617587   -0.2318074 
H     0.5422202   -2.4821352   -1.6394827 
H     2.1242369   -2.0159513    0.2300912 
C    -1.0927846   -0.6806807   -5.8499032 
C    -0.5341132    0.3789518   -5.1148568 
C     0.0446493    0.1410259   -3.8639430 
C     0.0801816   -1.1649244   -3.3217182 
C    -0.4928328   -2.2195140   -4.0674989 
C    -1.0704781   -1.9799695   -5.3214739 
H    -1.5458290   -0.4919746   -6.8283506 
H    -0.5557855    1.3964638   -5.5189027 
H     0.4540760    0.9803192   -3.2900005 
H    -0.4736584   -3.2376420   -3.6623957 
H    -1.5022943   -2.8109577   -5.8885640 
C     5.1614938    1.3115675    2.0483059 
C     4.7981730    0.0231479    2.4687595 
C     3.8725119   -0.7226554    1.7273531 
C     3.2814582   -0.1942778    0.5561673 
C     3.6679034    1.1009531    0.1387860 
C     4.5981540    1.8422223    0.8751252 
H     5.8864897    1.8957146    2.6239084 
H     5.2445791   -0.4066968    3.3713760 
H     3.6076531   -1.7361511    2.0508666 
H     3.2287183    1.5429922   -0.7613559 
H     4.8845596    2.8426321    0.5345464 
C    -1.7716390    0.8820811    2.4311667 
C    -2.5758649    1.1452973    1.1459687 
C     0.5090197   -0.7023664    3.4468188 
C     0.9997484    1.9713483    2.3072166 
C    -2.9416788    0.7837655   -1.7090044 
C    -3.2467826   -1.5555039    0.0649956 
C     0.3670248   -0.1443770    4.8712488 
C     0.7516045    3.0280876    1.2221990 
C    -3.4134288   -0.1429338   -2.8382920 
C    -2.8463432   -2.3905325    1.2902368 
H    -2.2006413    0.0321634    2.9900286 
H    -1.8023886    1.7579605    3.1031635 
H    -3.6632877    1.1388265    1.3450368 
H    -2.3270949    2.1406198    0.7337606 
H    -0.0943966   -1.6190888    3.3127353 
H     1.5574375   -0.9770580    3.2314534 
H     0.7798205    2.3702739    3.3141276 
H     2.0569142    1.6490501    2.3015133 
H    -3.7820096    1.3962839   -1.3309982 
H    -2.1687646    1.4825820   -2.0767837 
H    -4.3005733   -1.2248344    0.1281713 
H    -3.1512410   -2.1625308   -0.8533831 
H     1.0232810    0.7267594    5.0347157 
H    -0.6710569    0.1576103    5.0943054 
H     0.6529837   -0.9177348    5.6047357 
H     0.9212897    2.6076184    0.2150594 
H    -0.2790695    3.4225233    1.2609471 
H     1.4394921    3.8795987    1.3574788 
H    -2.6110922   -0.8143463   -3.1822654 
H    -4.2760353   -0.7554068   -2.5267897 
H    -3.7304770    0.4647524   -3.7020451 
H    -1.7764087   -2.6655944    1.2529949 
H    -3.0314991   -1.8518022    2.2348883 
H    -3.4357933   -3.3222763    1.3231613 
