65
Energy =
C     0.8605504   -1.4852387   -1.8937949 
C     1.9355631   -0.6754383   -1.4224486 
C     2.4963884   -0.9069166   -0.1369640 
H     2.1857417    0.2478067   -1.9594555 
Pd    0.3020953   -0.5374520    0.0359438 
P     0.1124659    0.4834189    2.1072365 
P    -2.0110102   -0.4964364   -0.0979148 
H     0.8273782   -2.5275371   -1.5406816 
H     2.4248961   -1.9323958    0.2591712 
C    -1.6248370   -0.7298114   -5.3324209 
C    -0.8034701    0.2938897   -4.8298617 
C     0.0229097    0.0600210   -3.7254893 
C     0.0524051   -1.2079741   -3.0989445 
C    -0.7689773   -2.2318729   -3.6247873 
C    -1.6012466   -1.9951789   -4.7267436 
H    -2.2720677   -0.5430081   -6.1951894 
H    -0.8105970    1.2823000   -5.3010487 
H     0.6377907    0.8791626   -3.3378359 
H    -0.7450294   -3.2270226   -3.1653610 
H    -2.2262578   -2.8039167   -5.1194126 
C     5.2519296    1.5810054    2.0450345 
C     4.7373441    2.0302983    0.8172218 
C     3.8588837    1.2275837    0.0809234 
C     3.4735870   -0.0464420    0.5572962 
C     4.0166834   -0.4942118    1.7847368 
C     4.8925638    0.3110146    2.5230967 
H     5.9379403    2.2124227    2.6184931 
H     5.0247545    3.0134876    0.4304965 
H     3.4676973    1.6017264   -0.8705757 
H     3.7451222   -1.4883974    2.1590130 
H     5.3019915   -0.0557766    3.4699763 
C    -1.6694320    1.0344093    2.2785813 
C    -2.6555056    0.0906026    1.5614599 
C     0.4953276   -0.5634490    3.5856082 
C     1.1293781    2.0083443    2.3626717 
C    -2.6744333    0.6543066   -1.3873198 
C    -2.8620369   -2.1124002   -0.4058268 
C    -0.2421391   -1.9097076    3.6098885 
C     1.0053708    3.0220849    1.2172659 
C    -2.0530675    2.0571210   -1.3448472 
C    -4.3982500   -2.0946359   -0.3839655 
H    -1.9265653    1.1400512    3.3480884 
H    -1.7147690    2.0440028    1.8336439 
H    -2.8143094   -0.8257327    2.1579646 
H    -3.6422867    0.5710843    1.4369973 
H     1.5898850   -0.7163493    3.5468753 
H     0.2828508    0.0319995    4.4933085 
H     0.8512994    2.4532604    3.3365374 
H     2.1722478    1.6514523    2.4488991 
H    -2.4486322    0.1621123   -2.3518125 
H    -3.7741395    0.6984978   -1.2863063 
H    -2.4813021   -2.4527207   -1.3865098 
H    -2.4584611   -2.8107546    0.3504519 
H    -1.3317692   -1.7768125    3.7254387 
H    -0.0613228   -2.4794974    2.6805078 
H     0.1063040   -2.5216260    4.4588512 
H     1.2464149    2.5498007    0.2491833 
H    -0.0100014    3.4496543    1.1472137 
H     1.7098656    3.8560106    1.3734997 
H    -2.3292974    2.6013894   -0.4250845 
H    -0.9512906    2.0031421   -1.3950114 
H    -2.4055539    2.6538069   -2.2029187 
H    -4.7917207   -1.7463451    0.5865713 
H    -4.8107178   -1.4479736   -1.1765290 
H    -4.7851298   -3.1142388   -0.5530859 
