65
Energy =
C     0.6643164   -1.2786927   -2.1400737 
C     1.7663066   -0.5961296   -1.5588841 
C     2.2630601   -0.9687062   -0.2777208 
H     2.1173516    0.3336724   -2.0241151 
Pd    0.1097405   -0.4351236   -0.1247817 
P     0.0457423    0.2386743    2.0987839 
P    -2.1856150   -0.0347585   -0.1998502 
H     0.5164578   -2.3305604   -1.8492194 
H     2.1350678   -2.0209548    0.0209605 
C    -1.1973204   -0.2045617   -5.8701703 
C    -1.1812248   -1.5387275   -5.4370066 
C    -0.5786958   -1.8748879   -4.2174758 
C     0.0254419   -0.8839186   -3.4112558 
C    -0.0040658    0.4580382   -3.8575388 
C    -0.6073921    0.7923455   -5.0743051 
H    -1.6694474    0.0597372   -6.8217377 
H    -1.6373975   -2.3213370   -6.0518287 
H    -0.5647182   -2.9197190   -3.8869208 
H     0.4306489    1.2490768   -3.2357794 
H    -0.6233316    1.8364114   -5.4040099 
C     5.1870833    1.1598994    2.0644037 
C     4.5964598    1.7865237    0.9536438 
C     3.6578282    1.1040660    0.1724938 
C     3.2899218   -0.2265512    0.4810641 
C     3.9082512   -0.8505322    1.5894306 
C     4.8425930   -0.1641246    2.3760008 
H     5.9183101    1.6981214    2.6757698 
H     4.8677382    2.8159658    0.6976592 
H     3.1967905    1.6197161   -0.6761313 
H     3.6575932   -1.8910256    1.8273516 
H     5.3101242   -0.6675619    3.2284932 
C    -1.7287901    0.6540590    2.5331474 
C    -2.5520328    1.0376144    1.2911312 
C     0.5695656   -1.0131408    3.3598429 
C     1.0388680    1.7563610    2.4669537 
C    -2.9559478    0.9496046   -1.5806380 
C    -3.2487471   -1.5463763   -0.0308344 
C     0.4507107   -0.5906091    4.8322047 
C     0.7706217    2.9103305    1.4911774 
C    -3.4519604    0.1346982   -2.7833008 
C    -2.8333978   -2.4962450    1.1022029 
H    -2.1490186   -0.2460858    3.0146707 
H    -1.7492333    1.4617303    3.2860593 
H    -3.6363279    1.0126269    1.5050382 
H    -2.3076261    2.0672605    0.9711002 
H    -0.0352375   -1.9147753    3.1507042 
H     1.6145537   -1.2640122    3.1025402 
H     0.8356765    2.0576354    3.5106691 
H     2.0961258    1.4391284    2.4129836 
H    -3.7854970    1.5304226   -1.1348360 
H    -2.1825530    1.6740005   -1.8939596 
H    -4.2998780   -1.2197992    0.0800219 
H    -3.1701378   -2.0629894   -1.0044361 
H     1.1079801    0.2638278    5.0651860 
H    -0.5839756   -0.3143609    5.0995872 
H     0.7506248   -1.4278579    5.4856003 
H     0.9222015    2.5872889    0.4459086 
H    -0.2593282    3.2971694    1.5857263 
H     1.4605180    3.7467232    1.6937418 
H    -2.6605876   -0.5079132   -3.1999889 
H    -4.3153603   -0.4976154   -2.5166435 
H    -3.7761354    0.8217144   -3.5825206 
H    -1.7656511   -2.7702885    1.0212765 
H    -3.0005671   -2.0497865    2.0969766 
H    -3.4270745   -3.4247158    1.0554568 
