65
Energy =
C     0.6398821   -1.3599163   -1.9814305 
C     1.7561780   -0.6713093   -1.4368983 
C     2.2491445   -0.9962774   -0.1405618 
H     2.1227818    0.2299246   -1.9443470 
Pd    0.1104285   -0.4122533   -0.0062390 
P     0.0550270    0.3311726    2.1954503 
P    -2.1721048    0.0521932   -0.0937648 
H     0.4720137   -2.3915774   -1.6350545 
H     2.1071658   -2.0332885    0.2016507 
C    -1.2333048   -0.4550646   -5.7496178 
C    -0.6061504    0.5701488   -5.0209432 
C     0.0016301    0.2920155   -3.7922770 
C    -0.0014219   -1.0212170   -3.2668185 
C    -0.6430430   -2.0407887   -4.0058316 
C    -1.2502088   -1.7609245   -5.2371989 
H    -1.7089125   -0.2344987   -6.7105224 
H    -0.5965157    1.5926287   -5.4126526 
H     0.4657710    1.1059379   -3.2237733 
H    -0.6554160   -3.0634836   -3.6122473 
H    -1.7356919   -2.5652731   -5.7992473 
C     5.2054840    1.1874700    2.1087805 
C     4.6175071    1.7777145    0.9768977 
C     3.6685292    1.0763123    0.2255504 
C     3.2875529   -0.2375249    0.5857410 
C     3.9027632   -0.8253383    1.7153935 
C     4.8474267   -0.1196919    2.4720814 
H     5.9449603    1.7404512    2.6966039 
H     4.8991292    2.7935349    0.6807907 
H     3.2096183    1.5641790   -0.6405225 
H     3.6413163   -1.8530127    1.9938743 
H     5.3123669   -0.5952170    3.3418437 
C    -1.7194573    0.7698157    2.6040836 
C    -2.5001461    1.1962849    1.3491211 
C     0.5675780   -0.8825869    3.4976555 
C     1.0652432    1.8483981    2.5176277 
C    -2.9363334    0.9801795   -1.5156347 
C    -3.2650162   -1.4157113    0.2375055 
C     0.4411308   -0.4147579    4.9557361 
C     0.8259116    2.9755973    1.5038409 
C    -3.4642515    0.1272144   -2.6769235 
C    -2.8566587   -2.6773327   -0.5387799 
H    -2.1683545   -0.1382312    3.0479079 
H    -1.7489522    1.5556366    3.3795354 
H    -3.5868303    1.2396785    1.5480599 
H    -2.1876034    2.2025281    1.0160850 
H    -0.0361374   -1.7903754    3.3136120 
H     1.6136790   -1.1424266    3.2538401 
H     0.8626255    2.1868178    3.5499724 
H     2.1170589    1.5104980    2.4799233 
H    -3.7508942    1.5927632   -1.0845268 
H    -2.1560672    1.6779380   -1.8698057 
H    -3.2036201   -1.6022991    1.3254507 
H    -4.3085712   -1.1202007    0.0215472 
H     1.0960527    0.4474854    5.1654251 
H    -0.5952594   -0.1323541    5.2095569 
H     0.7394283   -1.2309208    5.6359813 
H     0.9642718    2.6131985    0.4697138 
H    -0.1913100    3.3959568    1.5890384 
H     1.5410825    3.7974673    1.6759230 
H    -2.6753816   -0.5003504   -3.1185381 
H    -4.2961275   -0.5236857   -2.3587273 
H    -3.8466816    0.7896096   -3.4713413 
H    -2.8668423   -2.5119758   -1.6287950 
H    -1.8376367   -2.9954445   -0.2557130 
H    -3.5498364   -3.5054410   -0.3130673 
