65
Energy =
C     0.6697864   -1.5460971   -1.9887253 
C     1.7950294   -0.7902938   -1.5478706 
C     2.3229289   -0.9878561   -0.2420428 
H     2.1186123    0.0793878   -2.1329835 
Pd    0.1608847   -0.4506891   -0.1260004 
P     0.0051880    0.6165875    1.9282831 
P    -2.1316209   -0.1966166   -0.3320626 
H     0.5558055   -2.5589010   -1.5720019 
H     2.1873645   -1.9857746    0.2041179 
C    -1.6895872   -0.8565142   -5.5276515 
C    -0.8242165    0.1486646   -5.0629608 
C    -0.0402755   -0.0637190   -3.9236562 
C    -0.0985466   -1.2921446   -3.2245812 
C    -0.9670178   -2.2969790   -3.7091411 
C    -1.7559901   -2.0814224   -4.8466949 
H    -2.3028335   -0.6865807   -6.4182764 
H    -0.7631930    1.1056209   -5.5916651 
H     0.6105541    0.7414787   -3.5663420 
H    -1.0170146   -3.2594755   -3.1865225 
H    -2.4184527   -2.8751574   -5.2072696 
C     5.2218796    1.4371479    1.8224906 
C     4.6894686    1.8831759    0.6008852 
C     3.7602516    1.1014756   -0.0942583 
C     3.3460188   -0.1512545    0.4147871 
C     3.9003606   -0.5929999    1.6387929 
C     4.8249828    0.1934687    2.3376746 
H     5.9471884    2.0524899    2.3642379 
H     5.0002073    2.8488922    0.1889981 
H     3.3461196    1.4776889   -1.0353614 
H     3.6005580   -1.5676511    2.0417400 
H     5.2435776   -0.1689673    3.2822535 
C    -1.7391642    1.2895626    2.0641580 
C    -2.7713043    0.4237150    1.3145443 
C     0.2794381   -0.4824668    3.3949426 
C     1.1107625    2.0757057    2.2024329 
C    -2.6527852    1.0259616   -1.6200460 
C    -3.1445997   -1.6966719   -0.7179951 
C    -0.5109795   -1.7978655    3.3477677 
C     0.9075952    2.8542101    3.5112201 
C    -1.9327504    2.3783766   -1.5305241 
C    -2.7637925   -2.9298343    0.1122739 
H    -2.0187221    1.4057208    3.1263959 
H    -1.6978123    2.3036459    1.6273907 
H    -3.0128125   -0.4800489    1.9017625 
H    -3.7177585    0.9740672    1.1642512 
H     1.3680368   -0.6791625    3.3974829 
H     0.0492264    0.0890755    4.3124691 
H     2.1409285    1.6830430    2.1260259 
H     0.9636523    2.7268151    1.3211907 
H    -2.4258179    0.5345356   -2.5845768 
H    -3.7510923    1.1424633   -1.5584081 
H    -4.2117396   -1.4329831   -0.5936034 
H    -2.9783389   -1.8856556   -1.7945295 
H    -1.5985493   -1.6229457    3.4169141 
H    -0.3122644   -2.3504958    2.4120163 
H    -0.2272737   -2.4447318    4.1949778 
H    -0.1162729    3.2570008    3.5992370 
H     1.1094295    2.2271597    4.3960141 
H     1.6056617    3.7081832    3.5457193 
H    -2.1961146    2.9258560   -0.6089937 
H    -0.8363072    2.2429807   -1.5505682 
H    -2.2139692    3.0155803   -2.3858005 
H    -1.7007618   -3.1907148   -0.0346805 
H    -2.9269258   -2.7700675    1.1923709 
H    -3.3748405   -3.7969990   -0.1900247 
