65
Energy =
C     0.7311790   -1.5917785   -1.9327222 
C     1.8388640   -0.8137102   -1.4857248 
C     2.3385197   -0.9733744   -0.1638811 
H     2.1671198    0.0446089   -2.0848163 
Pd    0.1686809   -0.4550306   -0.1109143 
P    -0.0434571    0.6730538    1.9056446 
P    -2.1216142   -0.2348300   -0.3736526 
H     0.6178796   -2.5954928   -1.4943422 
H     2.2000322   -1.9605229    0.3048184 
C    -1.5614626   -1.0089816   -5.5341580 
C    -0.7103445    0.0128330   -5.0795956 
C     0.0527366   -0.1652939   -3.9204233 
C    -0.0125336   -1.3753242   -3.1906222 
C    -0.8655809   -2.3977504   -3.6657109 
C    -1.6339762   -2.2163482   -4.8231043 
H    -2.1587280   -0.8657041   -6.4401975 
H    -0.6444077    0.9561457   -5.6317014 
H     0.6921999    0.6527622   -3.5719755 
H    -0.9201138   -3.3467528   -3.1194004 
H    -2.2850432   -3.0230980   -5.1754626 
C     5.1641801    1.5298256    1.9086079 
C     4.7587765    0.2998477    2.4494717 
C     3.8593620   -0.5129492    1.7479353 
C     3.3386435   -0.1115459    0.4955602 
C     3.7618513    1.1272794   -0.0393770 
C     4.6661674    1.9352092    0.6586876 
H     5.8698700    2.1657308    2.4525139 
H     5.1511782   -0.0313319    3.4165083 
H     3.5527935   -1.4767878    2.1713167 
H     3.3746288    1.4719425   -1.0037107 
H     4.9843324    2.8896432    0.2266678 
C    -1.7968877    1.3320106    1.9809173 
C    -2.8035307    0.4312965    1.2377952 
C     0.2090700   -0.3749874    3.4129844 
C     1.0414063    2.1518242    2.1560040 
C    -2.6311906    0.9369511   -1.7124124 
C    -3.1079335   -1.7599019   -0.7297737 
C    -0.5640265   -1.7012531    3.3898877 
C     0.8040286    2.9685075    3.4354111 
C    -1.9354346    2.3034897   -1.6500344 
C    -2.7274962   -2.9607305    0.1467239 
H    -2.1012674    1.4803040    3.0322921 
H    -1.7554911    2.3314566    1.5116165 
H    -3.0487383   -0.4555354    1.8487746 
H    -3.7519745    0.9662371    1.0492612 
H     1.2995932   -0.5574920    3.4470734 
H    -0.0496307    0.2226267    4.3059690 
H     2.0768954    1.7682339    2.1124611 
H     0.9053980    2.7734894    1.2520030 
H    -2.3737052    0.4186482   -2.6549505 
H    -3.7323721    1.0369268   -1.6799951 
H    -4.1804775   -1.5064385   -0.6337780 
H    -2.9190616   -1.9808112   -1.7964172 
H    -1.6549458   -1.5381757    3.4282919 
H    -0.3367016   -2.2807761    2.4772262 
H    -0.2925068   -2.3171397    4.2637571 
H    -0.2256999    3.3620417    3.4909008 
H     0.9952288    2.3717346    4.3431806 
H     1.4919838    3.8310809    3.4564919 
H    -2.2312433    2.8764613   -0.7541892 
H    -0.8368252    2.1861770   -1.6380135 
H    -2.2047402    2.9072360   -2.5329563 
H    -1.6587816   -3.2124820    0.0276517 
H    -2.9126045   -2.7682518    1.2178842 
H    -3.3220707   -3.8450333   -0.1382778 
