65
Energy =
C     0.7105502   -1.5206562   -1.9263881 
C     1.8078607   -0.7454173   -1.4487928 
C     2.3365021   -0.9617577   -0.1495938 
H     2.1163924    0.1432831   -2.0132469 
Pd    0.1586839   -0.4791389   -0.0215743 
P     0.0383267    0.7064055    1.9738028 
P    -2.1622368   -0.3650000   -0.0986038 
H     0.6315371   -2.5553232   -1.5599191 
H     2.1949732   -1.9644349    0.2847653 
C    -1.4770884   -0.7404195   -5.5579688 
C    -0.7697377    0.2997850   -4.9318914 
C    -0.0479378    0.0555566   -3.7588682 
C    -0.0123297   -1.2367844   -3.1838182 
C    -0.7179058   -2.2748489   -3.8326147 
C    -1.4441845   -2.0295929   -5.0051603 
H    -2.0447801   -0.5473014   -6.4737564 
H    -0.7858143    1.3081282   -5.3586134 
H     0.4772720    0.8849368   -3.2727721 
H    -0.6896929   -3.2868344   -3.4142911 
H    -1.9808303   -2.8499733   -5.4928671 
C     5.2568905    1.4087043    1.9441962 
C     4.7715772    1.8483735    0.7009279 
C     3.8351128    1.0843776   -0.0041281 
C     3.3650983   -0.1424936    0.5184820 
C     3.8742388   -0.5801585    1.7637384 
C     4.8067932    0.1881886    2.4716964 
H     5.9886186    2.0100138    2.4930437 
H     5.1266242    2.7941632    0.2788444 
H     3.4631190    1.4526474   -0.9655851 
H     3.5297870   -1.5354928    2.1771052 
H     5.1896348   -0.1695247    3.4330617 
C    -1.6526111    1.5058597    1.9937219 
C    -2.7451293    0.5934744    1.4071228 
C     0.1959039   -0.3113310    3.5160720 
C     1.2241604    2.1091888    2.2061387 
C    -2.8506829    0.5159952   -1.5728596 
C    -3.1380516   -1.9383871    0.0314071 
C    -0.6117126   -1.6174628    3.4999513 
C     0.9963951    3.0009185    3.4365425 
C    -2.3353866    1.9556920   -1.7069299 
C    -2.8694869   -2.9520510   -1.0868434 
H    -1.9132751    1.8285100    3.0175587 
H    -1.5438459    2.4190552    1.3799213 
H    -3.0546855   -0.1627296    2.1494902 
H    -3.6487390    1.1737170    1.1471780 
H     1.2782342   -0.5266893    3.5954234 
H    -0.0750059    0.3163871    4.3844583 
H     2.2277412    1.6487560    2.2303094 
H     1.1779765    2.6966922    1.2711063 
H    -2.5465031   -0.0833188   -2.4505443 
H    -3.9546324    0.4830647   -1.5101987 
H    -2.8811160   -2.3694376    1.0165479 
H    -4.2069390   -1.6536454    0.0689271 
H    -1.6987834   -1.4276375    3.5016050 
H    -0.3698301   -2.2246632    2.6088128 
H    -0.3824007   -2.2189712    4.3956819 
H     0.0074472    3.4901762    3.4175596 
H     1.0825567    2.4313317    4.3773963 
H     1.7607344    3.7964853    3.4611850 
H    -2.7066621    2.6014817   -0.8917348 
H    -1.2314090    1.9835132   -1.6949739 
H    -2.6746279    2.3930731   -2.6608496 
H    -3.1055471   -2.5410318   -2.0825751 
H    -1.8114777   -3.2635696   -1.0895079 
H    -3.4896632   -3.8518570   -0.9363108 
