65
Energy =
C     0.7207859   -1.5516072   -1.7663788 
C     1.8113557   -0.7880786   -1.2532939 
C     2.3038178   -1.0172402    0.0573357 
H     2.1391821    0.1037952   -1.8019283 
Pd    0.1259531   -0.5199446    0.1305238 
P    -0.0139082    0.7159590    2.0896099 
P    -2.1915803   -0.3986379    0.0132573 
H     0.6298295   -2.5918954   -1.4194847 
H     2.1315615   -2.0177972    0.4859703 
C    -1.3596956   -0.6918355   -5.4429491 
C    -1.3331827   -1.9953203   -4.9243710 
C    -0.6432989   -2.2670040   -3.7357197 
C     0.0319546   -1.2415365   -3.0369438 
C     0.0015983    0.0662656   -3.5764951 
C    -0.6838266    0.3369808   -4.7654204 
H    -1.8987985   -0.4785478   -6.3714475 
H    -1.8463241   -2.8062800   -5.4515289 
H    -0.6198302   -3.2898818   -3.3443073 
H     0.5008014    0.8863910   -3.0487180 
H    -0.6964653    1.3568097   -5.1640824 
C     5.1790196    1.3122479    2.2569621 
C     4.6481492    0.1281125    2.7929663 
C     3.7345892   -0.6291929    2.0501311 
C     3.3233581   -0.2163280    0.7605452 
C     3.8834151    0.9664021    0.2260094 
C     4.7993616    1.7211764    0.9675799 
H     5.8953163    1.9057968    2.8338217 
H     4.9530664   -0.2092081    3.7889429 
H     3.3276043   -1.5568771    2.4695479 
H     3.6049966    1.3044149   -0.7771592 
H     5.2239939    2.6332264    0.5356666 
C    -1.7306403    1.4581873    2.1266694 
C    -2.7947067    0.5140615    1.5380961 
C     0.2255968   -0.1845797    3.6894774 
C     1.1323195    2.1640911    2.2104648 
C    -2.8384401    0.5345097   -1.4475510 
C    -3.1829152   -1.9660706    0.0708360 
C    -0.6051423   -1.4691464    3.8198622 
C     1.1337229    3.0409076    0.9506128 
C    -2.3092335    1.9734302   -1.5283405 
C    -2.9010599   -2.9428025   -1.0768740 
H    -1.9873990    1.7588096    3.1586793 
H    -1.6652699    2.3818689    1.5247914 
H    -3.0629907   -0.2683119    2.2697765 
H    -3.7241332    1.0613322    1.2980383 
H     1.3069070   -0.4134408    3.7235555 
H     0.0175594    0.5202339    4.5162530 
H     0.8629825    2.7440503    3.1131166 
H     2.1359364    1.7346973    2.3826796 
H    -2.5173427   -0.0414792   -2.3348307 
H    -3.9437830    0.5088997   -1.4131546 
H    -2.9489823   -2.4331057    1.0452488 
H    -4.2499038   -1.6730143    0.0977338 
H    -1.6866656   -1.2546732    3.8668317 
H    -0.4253612   -2.1472516    2.9660093 
H    -0.3361077   -2.0062164    4.7449176 
H     1.3463830    2.4353126    0.0521708 
H     0.1671313    3.5520180    0.7980744 
H     1.9138934    3.8161436    1.0303293 
H    -2.7068805    2.6023377   -0.7125873 
H    -1.2063354    1.9941228   -1.4741366 
H    -2.6104158    2.4355044   -2.4833698 
H    -3.1127148   -2.4953297   -2.0623209 
H    -1.8462443   -3.2644669   -1.0695125 
H    -3.5325637   -3.8409950   -0.9701883 
