65
Energy =
C     0.8117844   -1.5026127   -2.0494613 
C     1.9222967   -0.7859432   -1.5253158 
C     2.4099301   -1.0713416   -0.2166648 
H     2.2686726    0.1185501   -2.0403172 
Pd    0.2569388   -0.5291495   -0.1200561 
P     0.0664298    0.2819356    2.0425634 
P    -2.0115202   -0.1189224   -0.3769814 
H     0.6557633   -2.5252714   -1.6712522 
H     2.2928425   -2.1042645    0.1465493 
C    -1.4496278   -0.6246054   -5.6075794 
C    -0.4862277    0.2929312   -5.1551147 
C     0.2716540    0.0178896   -4.0115744 
C     0.0868964   -1.1876431   -3.2956164 
C    -0.8774026   -2.1072812   -3.7701603 
C    -1.6402793   -1.8282084   -4.9112462 
H    -2.0417217   -0.4050517   -6.5016739 
H    -0.3265668    1.2304019   -5.6977638 
H     1.0049974    0.7552200   -3.6690032 
H    -1.0257159   -3.0521347   -3.2340335 
H    -2.3794865   -2.5553663   -5.2629460 
C     5.2288817    1.2627122    2.0587012 
C     4.9208764   -0.0546694    2.4303031 
C     4.0213092   -0.8088423    1.6654039 
C     3.4035209   -0.2612038    0.5172828 
C     3.7306888    1.0655208    0.1513365 
C     4.6343246    1.8156762    0.9115239 
H     5.9334726    1.8532777    2.6528213 
H     5.3898522   -0.5003335    3.3136468 
H     3.7966965   -1.8426651    1.9530400 
H     3.2637550    1.5249720   -0.7261915 
H     4.8750081    2.8405528    0.6103583 
C    -1.7521014    0.6008645    2.3672988 
C    -2.5332308    0.9352511    1.0809249 
C     0.6138376   -0.8387206    3.4117138 
C     0.9616401    1.8766474    2.3290092 
C    -2.5351998    0.8349152   -1.8745157 
C    -3.0811774   -1.6330566   -0.3696153 
C     0.3885743   -0.3323110    4.8446677 
C     0.6827782    2.9409031    1.2586747 
C    -4.0175681    1.2314314   -1.9511227 
C    -2.7523555   -2.6289334    0.7521473 
H    -2.1417507   -0.3266325    2.8239667 
H    -1.8677587    1.4030256    3.1178573 
H    -3.6216629    0.8454222    1.2466112 
H    -2.3368260    1.9780104    0.7718034 
H     0.0907015   -1.7972649    3.2381934 
H     1.6866827   -1.0234152    3.2185166 
H     0.7071847    2.2460455    3.3390857 
H     2.0341477    1.6065310    2.3337748 
H    -1.8796591    1.7245223   -1.9028888 
H    -2.2431790    0.2106795   -2.7383218 
H    -4.1400682   -1.3188495   -0.3278051 
H    -2.9170522   -2.0952568   -1.3612345 
H     0.9590055    0.5898763    5.0461286 
H    -0.6775918   -0.1309784    5.0472946 
H     0.7258713   -1.0953905    5.5670195 
H     0.8928629    2.5488621    0.2475940 
H    -0.3660829    3.2846129    1.2842836 
H     1.3253378    3.8220963    1.4236616 
H    -4.6773747    0.3476835   -1.9768013 
H    -4.3216210    1.8652816   -1.1002689 
H    -4.1989316    1.8058231   -2.8757063 
H    -1.6851059   -2.9148903    0.7310688 
H    -2.9756873   -2.2110276    1.7488746 
H    -3.3546827   -3.5458879    0.6375311 
