65
Energy =
C     0.7119005   -1.2953572   -1.9365710 
C     1.8163461   -0.6221548   -1.3476018 
C     2.2508587   -0.9480346   -0.0315200 
H     2.2192676    0.2709220   -1.8420140 
Pd    0.1161610   -0.3351919    0.0109077 
P     0.0057422    0.5018450    2.1722885 
P    -2.1756204    0.0691269   -0.1600159 
H     0.5187074   -2.3271658   -1.6036154 
H     2.0758557   -1.9807828    0.3084096 
C    -0.9800400   -0.3349723   -5.7770012 
C    -1.0463539   -1.6425310   -5.2732209 
C    -0.4980282   -1.9415553   -4.0188794 
C     0.1319938   -0.9395837   -3.2469575 
C     0.1837452    0.3762723   -3.7637432 
C    -0.3638697    0.6732046   -5.0159279 
H    -1.4088167   -0.0998149   -6.7563179 
H    -1.5239550   -2.4336552   -5.8602567 
H    -0.5471474   -2.9663531   -3.6334143 
H     0.6378809    1.1779643   -3.1703702 
H    -0.3163418    1.6972935   -5.4006104 
C     5.2231025    1.1474244    2.2789288 
C     4.6265638    1.7815639    1.1756297 
C     3.6653382    1.1125249    0.4100667 
C     3.2822141   -0.2117935    0.7272985 
C     3.8968994   -0.8392917    1.8349611 
C     4.8556512   -0.1668781    2.6042297 
H     5.9739577    1.6740060    2.8764934 
H     4.9116019    2.8056198    0.9129417 
H     3.1973002    1.6327570   -0.4325648 
H     3.6218026   -1.8700650    2.0876396 
H     5.3231384   -0.6735925    3.4547895 
C    -1.7982536    0.7585644    2.5895983 
C    -2.6384395    1.0897804    1.3440019 
C     0.6860696   -0.5163859    3.5599787 
C     0.8444797    2.1378824    2.3895843 
C    -2.8746787    1.0922737   -1.5521765 
C    -3.2389147   -1.4498525   -0.0977141 
C     0.2735997   -1.9933191    3.5104349 
C     0.4651650    3.1872153    1.3360008 
C    -3.3189609    0.3098779   -2.7961544 
C    -2.9148313   -2.4006577    1.0630805 
H    -2.1414913   -0.1842750    3.0503516 
H    -1.8932911    1.5479260    3.3571274 
H    -3.7188303    0.9718138    1.5455696 
H    -2.4794626    2.1407835    1.0420832 
H     1.7839572   -0.4157066    3.4810687 
H     0.3826592   -0.0390698    4.5107422 
H     0.6332526    2.4941149    3.4153188 
H     1.9255270    1.9129291    2.3348609 
H    -3.7222466    1.6656442   -1.1314313 
H    -2.0849585    1.8210096   -1.8099979 
H    -4.2974933   -1.1293751   -0.0732912 
H    -3.0745692   -1.9581479   -1.0650853 
H    -0.8185250   -2.1229782    3.6037233 
H     0.5905529   -2.4601384    2.5611062 
H     0.7450576   -2.5484190    4.3389087 
H     0.6352032    2.8006777    0.3148666 
H    -0.5930175    3.4901068    1.4170619 
H     1.0795349    4.0941550    1.4651593 
H    -2.5131950   -0.3268390   -3.1931824 
H    -4.1955871   -0.3247371   -2.5839457 
H    -3.6054158    1.0183286   -3.5911508 
H    -1.8447319   -2.6751134    1.0679330 
H    -3.1591310   -1.9518316    2.0409931 
H    -3.5048896   -3.3279884    0.9705937 
