65
Energy =
C     0.7200508   -1.5918768   -1.9348655 
C     1.8343226   -0.8270130   -1.4817216 
C     2.3273003   -0.9954387   -0.1583643 
H     2.1742489    0.0290445   -2.0775653 
Pd    0.1633152   -0.4538926   -0.1116495 
P    -0.0445350    0.6641374    1.9106649 
P    -2.1230077   -0.2062089   -0.3825459 
H     0.5940613   -2.5951515   -1.4989445 
H     2.1772201   -1.9825230    0.3069045 
C    -1.5469990   -0.9791418   -5.5475044 
C    -1.6330749   -2.1882822   -4.8410206 
C    -0.8735259   -2.3792861   -3.6793149 
C    -0.0156982   -1.3649710   -3.1955604 
C     0.0627501   -0.1527414   -3.9204458 
C    -0.6915886    0.0349837   -5.0838132 
H    -2.1372338   -0.8284540   -6.4569409 
H    -2.2878765   -2.9889562   -5.2002512 
H    -0.9386818   -3.3296502   -3.1365621 
H     0.7058902    0.6593863   -3.5648996 
H    -0.6152438    0.9796678   -5.6322232 
C     5.1750474    1.4708108    1.9283050 
C     4.6814185    1.8871193    0.6802234 
C     3.7696100    1.0913685   -0.0220520 
C     3.3344066   -0.1460317    0.5065594 
C     3.8502944   -0.5582947    1.7573900 
C     4.7573002    0.2423479    2.4631667 
H     5.8868730    2.0970568    2.4754164 
H     5.0090757    2.8404609    0.2529133 
H     3.3859422    1.4444890   -0.9847623 
H     3.5342023   -1.5211352    2.1760216 
H     5.1460378   -0.0972605    3.4287573 
C    -1.7917657    1.3395382    1.9851950 
C    -2.8045613    0.4548758    1.2311353 
C     0.1925535   -0.3968854    3.4113930 
C     1.0541066    2.1303737    2.1744766 
C    -2.6125862    0.9823557   -1.7139795 
C    -3.1248346   -1.7169712   -0.7557420 
C    -0.5956304   -1.7140258    3.3772439 
C     0.8207757    2.9404761    3.4588057 
C    -1.9003677    2.3397044   -1.6378111 
C    -2.7632966   -2.9286537    0.1138442 
H    -2.0983781    1.4819439    3.0367344 
H    -1.7390992    2.3424637    1.5245484 
H    -3.0612761   -0.4340390    1.8343317 
H    -3.7467100    1.0009346    1.0429530 
H     1.2808187   -0.5921650    3.4469324 
H    -0.0615834    0.1975209    4.3078163 
H     2.0858755    1.7368286    2.1313252 
H     0.9269757    2.7595467    1.2743918 
H    -2.3573382    0.4684754   -2.6595432 
H    -3.7125949    1.0955561   -1.6853915 
H    -4.1949401   -1.4519053   -0.6640401 
H    -2.9321567   -1.9321876   -1.8228932 
H    -1.6847329   -1.5387583    3.4140810 
H    -0.3725805   -2.2898908    2.4611981 
H    -0.3334126   -2.3389586    4.2475311 
H    -0.2051957    3.3437836    3.5138446 
H     1.0032089    2.3355645    4.3629969 
H     1.5171236    3.7960479    3.4880461 
H    -2.1924912    2.9089607   -0.7384080 
H    -0.8033149    2.2087983   -1.6226618 
H    -2.1589331    2.9539690   -2.5166890 
H    -1.6966381   -3.1912089   -0.0002750 
H    -2.9532965   -2.7425183    1.1852683 
H    -3.3656260   -3.8041130   -0.1819737 
