65
Energy =
C     0.7921810   -1.5556539   -2.0181008 
C     1.9118456   -0.8428284   -1.5082956 
C     2.3949799   -1.1071534   -0.1936283 
H     2.2704561    0.0458766   -2.0420264 
Pd    0.2494822   -0.5344262   -0.1099817 
P     0.0699936    0.3269365    2.0342621 
P    -2.0138949   -0.1013217   -0.3753986 
H     0.6228613   -2.5682481   -1.6191273 
H     2.2630789   -2.1303493    0.1914184 
C    -1.4538127   -0.7231190   -5.5968427 
C    -1.6580787   -1.9111238   -4.8779373 
C    -0.9003810   -2.1759137   -3.7300016 
C     0.0724134   -1.2572038   -3.2712641 
C     0.2705977   -0.0674350   -4.0096527 
C    -0.4822048    0.1932795   -5.1598737 
H    -2.0418096   -0.5148644   -6.4963297 
H    -2.4039153   -2.6373980   -5.2172450 
H    -1.0595270   -3.1086250   -3.1760398 
H     1.0103697    0.6690825   -3.6793463 
H    -0.3122027    1.1186269   -5.7199109 
C     5.2434043    1.2352025    2.0359535 
C     4.9132076   -0.0679778    2.4374488 
C     4.0044834   -0.8257476    1.6871030 
C     3.3992209   -0.2957024    0.5241219 
C     3.7489252    1.0165058    0.1279648 
C     4.6618529    1.7700276    0.8736118 
H     5.9552174    1.8284872    2.6186385 
H     5.3719014   -0.4998999    3.3329311 
H     3.7624981   -1.8487948    1.9982158 
H     3.2928287    1.4621630   -0.7622611 
H     4.9201979    2.7833605    0.5489616 
C    -1.7432793    0.6834643    2.3498407 
C    -2.5188310    0.9975636    1.0549965 
C     0.5964906   -0.7735562    3.4277374 
C     0.9912602    1.9122679    2.2880840 
C    -2.5290561    0.8191062   -1.8966330 
C    -3.1027317   -1.6010446   -0.3262717 
C     0.3777102   -0.2331875    4.8492336 
C     0.7296976    2.9582282    1.1955710 
C    -4.0062535    1.2332327   -1.9800111 
C    -2.7832796   -2.5727213    0.8191737 
H    -2.1482771   -0.2253551    2.8300925 
H    -1.8456685    1.5064536    3.0794447 
H    -3.6085817    0.9294046    1.2223308 
H    -2.3056240    2.0288732    0.7195737 
H     0.0572744   -1.7264583    3.2735105 
H     1.6662819   -0.9805604    3.2405395 
H     0.7425427    2.3067466    3.2900688 
H     2.0592240    1.6249650    2.2990897 
H    -1.8618163    1.6987193   -1.9506697 
H    -2.2478982    0.1681612   -2.7441757 
H    -4.1574072   -1.2723864   -0.2894679 
H    -2.9477168   -2.0903285   -1.3063191 
H     0.9639095    0.6829013    5.0323492 
H    -0.6851055   -0.0089172    5.0453791 
H     0.7002651   -0.9866469    5.5882237 
H     0.9342472    2.5419977    0.1930726 
H    -0.3137169    3.3187045    1.2129864 
H     1.3858356    3.8325272    1.3428547 
H    -4.6779523    0.3580969   -1.9790332 
H    -4.2990269    1.8946097   -1.1463367 
H    -4.1829346    1.7839748   -2.9197638 
H    -1.7198796   -2.8729822    0.8022925 
H    -2.9981578   -2.1272291    1.8057349 
H    -3.3977152   -3.4843871    0.7291340 
