65
Energy =
C     0.7805884   -1.5193166   -1.8767298 
C     1.9102455   -0.7973342   -1.4026702 
C     2.4003758   -1.0188698   -0.0823180 
H     2.2717593    0.0692216   -1.9699120 
Pd    0.2637240   -0.4227190   -0.0037971 
P     0.1142276    0.5372415    2.0980108 
P    -2.0026577    0.0027962   -0.2625181 
H     0.6073936   -2.5152634   -1.4393070 
H     2.2657209   -2.0282419    0.3365459 
C    -1.5071823   -0.7923355   -5.4521129 
C    -1.7174587   -1.9483314   -4.6844362 
C    -0.9446821   -2.1806673   -3.5395926 
C     0.0485153   -1.2598403   -3.1315027 
C     0.2534451   -0.1034349   -3.9193717 
C    -0.5139186    0.1241675   -5.0671696 
H    -2.1068305   -0.6096074   -6.3494439 
H    -2.4796292   -2.6754142   -4.9833161 
H    -1.1074568   -3.0895851   -2.9483587 
H     1.0102747    0.6330938   -3.6303712 
H    -0.3381842    1.0237397   -5.6660801 
C     5.2983678    1.3627954    2.0382687 
C     4.9775058    0.0672981    2.4710580 
C     4.0487209   -0.7022551    1.7581893 
C     3.4168551   -0.1926304    0.6007483 
C     3.7535796    1.1136012    0.1747062 
C     4.6854522    1.8793517    0.8838490 
H     6.0254914    1.9651537    2.5920145 
H     5.4582751   -0.3489321    3.3623878 
H     3.8089925   -1.7171469    2.0965134 
H     3.2712076    1.5447259   -0.7090652 
H     4.9338128    2.8878304    0.5370156 
C    -1.7032479    0.8131331    2.4532445 
C    -2.5222014    1.0868963    1.1759728 
C     0.7543379   -0.4285461    3.5412901 
C     0.9603429    2.1752708    2.2574504 
C    -2.5076439    0.9354746   -1.7797741 
C    -3.0886843   -1.4985139   -0.2322534 
C     0.3310657   -1.9036319    3.5338967 
C     0.6047444    3.1756706    1.1493807 
C    -3.9882903    1.3328672   -1.8801515 
C    -2.7956210   -2.4597318    0.9283793 
H    -2.0562023   -0.1108773    2.9448535 
H    -1.8208203    1.6333732    3.1844854 
H    -3.6036110    0.9696791    1.3678858 
H    -2.3648153    2.1254779    0.8332838 
H     1.8546581   -0.3386757    3.4814134 
H     0.4347651    0.0845376    4.4677963 
H     0.7366331    2.5810549    3.2618890 
H     2.0405098    1.9397926    2.2285505 
H    -1.8505843    1.8239853   -1.8115251 
H    -2.2054435    0.2987225   -2.6309590 
H    -4.1442572   -1.1708811   -0.2229538 
H    -2.9092064   -1.9930412   -1.2053217 
H    -0.7646987   -2.0215352    3.5985045 
H     0.6719233   -2.4065917    2.6116153 
H     0.7723708   -2.4318997    4.3958121 
H     0.7919974    2.7406227    0.1511306 
H    -0.4534705    3.4857819    1.1976594 
H     1.2212381    4.0851153    1.2467741 
H    -4.6483053    0.4494575   -1.9093939 
H    -4.3038497    1.9724963   -1.0377547 
H    -4.1562179    1.9012307   -2.8109729 
H    -1.7316710   -2.7570508    0.9423106 
H    -3.0363782   -2.0053101    1.9049556 
H    -3.4058969   -3.3734446    0.8312915 
