65
Energy =
C     0.6177767   -1.3650242   -1.8310306 
C     1.7512517   -0.6492543   -1.3617335 
C     2.2690308   -0.8895810   -0.0565270 
H     2.1123339    0.2116006   -1.9385253 
Pd    0.1420549   -0.2733924    0.0825879 
P     0.1463104    0.6169526    2.2289678 
P    -2.1427526    0.1835360    0.0365600 
H     0.4527594   -2.3694503   -1.4110112 
H     2.1237336   -1.8995020    0.3576951 
C    -1.3441711   -0.7017051   -5.6041851 
C    -0.7145492    0.3708877   -4.9495623 
C    -0.0766411    0.1706947   -3.7209146 
C    -0.0524166   -1.1099271   -3.1210942 
C    -0.6963773   -2.1777748   -3.7860778 
C    -1.3329555   -1.9761589   -5.0179319 
H    -1.8435094   -0.5421051   -6.5651101 
H    -0.7265965    1.3692214   -5.3992274 
H     0.3887826    1.0209167   -3.2092713 
H    -0.6879052   -3.1761003   -3.3341017 
H    -1.8200870   -2.8170184   -5.5221607 
C     5.2845865    1.4038445    1.9945687 
C     4.6941126    1.9191189    0.8279748 
C     3.7257436    1.1805703    0.1392723 
C     3.3282096   -0.0965388    0.5992776 
C     3.9445155   -0.6096269    1.7641147 
C     4.9088389    0.1334093    2.4573672 
H     6.0390164    1.9860343    2.5330927 
H     4.9887518    2.9056469    0.4554332 
H     3.2649446    1.6107949   -0.7558203 
H     3.6648043   -1.6071719    2.1228819 
H     5.3743614   -0.2837320    3.3562776 
C    -1.6058569    1.1357912    2.6414682 
C    -2.4169478    1.4597106    1.3754612 
C     0.6407053   -0.5371002    3.5893693 
C     1.2073688    2.1092072    2.4882630 
C    -2.9772618    0.9608778   -1.4337482 
C    -3.2017773   -1.2546608    0.5563416 
C    -0.0089200   -1.9234162    3.4765769 
C     0.9532706    3.2269311    1.4683064 
C    -3.5161892   -0.0084937   -2.4944844 
C    -2.7931948   -2.5853697   -0.0945559 
H    -2.0641253    0.2913190    3.1876358 
H    -1.5850273    1.9939261    3.3368794 
H    -3.4968511    1.5384554    1.5985815 
H    -2.0993070    2.4257115    0.9422912 
H     1.7413187   -0.6117859    3.5236666 
H     0.4048320   -0.0516900    4.5550165 
H     1.0514225    2.4588633    3.5260394 
H     2.2488053    1.7468617    2.4148725 
H    -3.7945445    1.5895280   -1.0319044 
H    -2.2281417    1.6425767   -1.8757864 
H    -3.1050041   -1.3252969    1.6553203 
H    -4.2563873   -0.9991873    0.3434227 
H    -1.1102373   -1.8702761    3.5417092 
H     0.2493543   -2.4038397    2.5160482 
H     0.3385051   -2.5781144    4.2934025 
H     1.0613321    2.8493817    0.4360191 
H    -0.0569626    3.6597394    1.5743369 
H     1.6817329    4.0427029    1.6107804 
H    -2.7232229   -0.6534734   -2.9025125 
H    -4.3188762   -0.6486271   -2.0908612 
H    -3.9415084    0.5677770   -3.3329962 
H    -2.8258311   -2.5329168   -1.1955448 
H    -1.7650805   -2.8610631    0.1998562 
H    -3.4713505   -3.3932148    0.2289432 
