65
Energy =
C     1.2453336   -1.1669250   -2.0228722 
C     2.1035567   -0.1671522   -1.4789067 
C     2.6427218   -0.3179134   -0.1719922 
H     2.1795790    0.8045930   -1.9818720 
Pd    0.4150290   -0.4208316   -0.1011496 
P    -0.0779685    0.4162563    2.0051447 
P    -1.8486324   -0.8411661   -0.3648193 
H     1.4114924   -2.2036266   -1.6909293 
H     2.7820573   -1.3476848    0.1932683 
C    -1.1672254   -0.8451732   -5.5792914 
C    -0.6004181    0.3113420   -5.0167965 
C     0.1993944    0.2226205   -3.8724739 
C     0.4576749   -1.0285989   -3.2650207 
C    -0.1075618   -2.1847824   -3.8510604 
C    -0.9142808   -2.0944371   -4.9930116 
H    -1.7947366   -0.7720466   -6.4731947 
H    -0.7865823    1.2893719   -5.4726407 
H     0.6128195    1.1396415   -3.4396944 
H     0.0981337   -3.1658127   -3.4069677 
H    -1.3388795   -3.0033005   -5.4318219 
C     4.7142249    2.6323685    2.1837350 
C     4.1074437    3.0128278    0.9747329 
C     3.4454288    2.0657662    0.1857724 
C     3.3801807    0.7110878    0.5862916 
C     4.0068231    0.3404138    1.7990153 
C     4.6634169    1.2904252    2.5915771 
H     5.2297932    3.3765945    2.7989665 
H     4.1498208    4.0564715    0.6463156 
H     2.9661817    2.3890868   -0.7441091 
H     3.9766023   -0.7079338    2.1187471 
H     5.1441469    0.9813698    3.5255187 
C    -2.6861150   -0.4628877    1.2691303 
C    -1.9393744    0.6137828    2.0814997 
C    -2.6631548    0.2081658   -1.6540870 
C    -2.3392547   -2.5807091   -0.7688842 
C     0.4141689   -0.6844398    3.4130178 
C     0.6025181    2.0833464    2.4344068 
C    -2.3349452    1.7025154   -1.5306152 
C    -3.8466320   -2.8686713   -0.8433990 
C     0.0162807   -2.1561219    3.2284114 
C     0.1446636    2.6872644    3.7708280 
H    -3.7367671   -0.1683670    1.0972318 
H    -2.7055366   -1.4183964    1.8233815 
H    -2.1434317    1.6181628    1.6679593 
H    -2.2794667    0.6203834    3.1324901 
H    -2.2968758   -0.1884911   -2.6193446 
H    -3.7533366    0.0313207   -1.6137610 
H    -1.8433121   -2.8014673   -1.7321078 
H    -1.8472254   -3.2128969   -0.0066582 
H     1.5139950   -0.5826249    3.4753438 
H    -0.0049685   -0.2712660    4.3484763 
H     1.7013864    1.9706227    2.4021682 
H     0.3359154    2.7389875    1.5853397 
H    -2.7549364    2.1407652   -0.6084132 
H    -1.2428486    1.8678203   -1.5249376 
H    -2.7599701    2.2560627   -2.3847708 
H    -4.3570630   -2.6391670    0.1079603 
H    -4.3337094   -2.2893434   -1.6456434 
H    -4.0116277   -3.9382115   -1.0595526 
H    -1.0794684   -2.2876501    3.2364048 
H     0.4032554   -2.5571766    2.2741850 
H     0.4269661   -2.7687022    4.0486699 
H    -0.9507527    2.8151444    3.8142815 
H     0.4543881    2.0663360    4.6283948 
H     0.6016653    3.6830574    3.9021325 
