65
Energy =
C     1.0484759   -1.1224576   -2.1729843 
C     1.9226492   -0.1716836   -1.5799165 
C     2.5016711   -0.4270339   -0.3017869 
H     1.9856991    0.8378068   -2.0042636 
Pd    0.2873603   -0.5257108   -0.1606638 
P    -0.0761555   -0.0306776    2.0738220 
P    -2.0108335   -0.6834884   -0.4086142 
H     1.1877447   -2.1757218   -1.8814857 
H     2.6970634   -1.4789102   -0.0420118 
C    -1.4596503   -0.6264202   -5.6378126 
C    -1.3382372   -1.8749413   -5.0077149 
C    -0.4957765   -2.0218452   -3.8990486 
C     0.2373142   -0.9240872   -3.3894990 
C     0.1178581    0.3222166   -4.0458552 
C    -0.7210845    0.4675152   -5.1563493 
H    -2.1155538   -0.5083651   -6.5061475 
H    -1.8957168   -2.7379118   -5.3862270 
H    -0.3988122   -3.0007637   -3.4148084 
H     0.6803352    1.1903593   -3.6874472 
H    -0.7985321    1.4406655   -5.6521475 
C     4.5712450    2.4026809    2.2048082 
C     4.6683406    1.0238253    2.4455967 
C     4.0102457    0.1152940    1.6062196 
C     3.2344671    0.5642659    0.5124812 
C     3.1526658    1.9570797    0.2786613 
C     3.8156331    2.8634057    1.1130694 
H     5.0865521    3.1144733    2.8574758 
H     5.2663924    0.6535213    3.2847080 
H     4.1018194   -0.9612889    1.7920543 
H     2.5512427    2.3405973   -0.5522580 
H     3.7402689    3.9375405    0.9140640 
C    -2.7718985    0.0026121    1.1591092 
C    -1.9059940   -0.2647682    2.4065043 
C    -2.7491830    0.3020264   -1.7902177 
C    -2.7088925   -2.3818411   -0.6457457 
C     0.7844356   -1.0969982    3.3200602 
C     0.3522176    1.7075946    2.5441520 
C    -2.2647141    1.7577699   -1.8252084 
C    -2.2313800   -3.4074985    0.3920438 
C     0.4511472   -0.8322301    4.7964340 
C    -0.2318331    2.7666768    1.5993219 
H    -2.8749527    1.0892014    0.9915893 
H    -3.7915948   -0.4031926    1.2882569 
H    -2.2229964    0.3726970    3.2510932 
H    -2.0156395   -1.3143631    2.7340546 
H    -2.4505478   -0.2245212   -2.7154704 
H    -3.8509322    0.2373869   -1.7147266 
H    -3.8121142   -2.3018427   -0.6597216 
H    -2.3922317   -2.6772186   -1.6632628 
H     0.5464270   -2.1387048    3.0361336 
H     1.8628711   -0.9532108    3.1227763 
H     0.0300141    1.8784550    3.5874258 
H     1.4575460    1.7435215    2.5273026 
H    -2.6035530    2.3311763   -0.9448735 
H    -1.1622800    1.8019761   -1.8598830 
H    -2.6536392    2.2635683   -2.7246779 
H    -1.1278385   -3.4501528    0.4307535 
H    -2.6019594   -3.1682451    1.4038011 
H    -2.6033519   -4.4135560    0.1349703 
H     0.7434331    0.1854796    5.1050425 
H    -0.6250498   -0.9613904    5.0046904 
H     1.0012955   -1.5435653    5.4361235 
H     0.0513452    2.5616306    0.5520829 
H    -1.3335634    2.8058173    1.6564750 
H     0.1507159    3.7657700    1.8676723 
