65
Energy =
C     1.1354319   -1.0976135   -2.1533364 
C     2.0542743   -0.1988113   -1.5459452 
C     2.5914994   -0.4817592   -0.2561443 
H     2.1878392    0.8023283   -1.9736648 
Pd    0.3716037   -0.4468890   -0.1597724 
P    -0.0003406    0.1020473    2.0611092 
P    -1.9307225   -0.5236831   -0.4318236 
H     1.2115127   -2.1580924   -1.8652647 
H     2.7110921   -1.5424325    0.0143475 
C    -1.2651319   -0.4456098   -5.6682446 
C    -1.1911120   -1.7134915   -5.0708541 
C    -0.3840287   -1.9118824   -3.9435274 
C     0.3599342   -0.8470721   -3.3835077 
C     0.2803430    0.4226637   -4.0007145 
C    -0.5206970    0.6182887   -5.1311198 
H    -1.8920186   -0.2879779   -6.5516349 
H    -1.7572316   -2.5520427   -5.4894213 
H    -0.3246096   -2.9058918   -3.4847069 
H     0.8392072    1.2703894   -3.5911377 
H    -0.5668349    1.6080325   -5.5970731 
C     4.7979064    2.2189721    2.2757417 
C     4.7905440    0.8392188    2.5302913 
C     4.0894298   -0.0283430    1.6825109 
C     3.3734435    0.4637587    0.5666970 
C     3.3978148    1.8563103    0.3187341 
C     4.1039333    2.7212714    1.1616227 
H     5.3470859    2.8988059    2.9348392 
H     5.3404591    0.4355905    3.3867700 
H     4.0998870   -1.1068716    1.8790290 
H     2.8471774    2.2733772   -0.5308954 
H     4.1111883    3.7958597    0.9513003 
C    -2.6759221    0.2575952    1.0989073 
C    -1.8458707   -0.0130491    2.3695590 
C    -2.6461653    0.4222040   -1.8532083 
C    -2.6423063   -2.2292003   -0.5782298 
C     0.7728033   -0.9938113    3.3385643 
C     0.5232792    1.8197722    2.5094189 
C    -4.1792136    0.4859169   -1.9322491 
C    -2.1029408   -3.2260255    0.4580305 
C     0.4321050   -0.6838416    4.8043821 
C     0.0207586    2.8912792    1.5319679 
H    -2.7101416    1.3415570    0.8857404 
H    -3.7193047   -0.0804149    1.2305378 
H    -2.1371415    0.6740464    3.1838946 
H    -2.0250832   -1.0402605    2.7347562 
H    -2.2052449    1.4337010   -1.7869833 
H    -2.2180388   -0.0405631   -2.7607278 
H    -3.7442276   -2.1583073   -0.5296784 
H    -2.3814310   -2.5534753   -1.6032619 
H     0.4751636   -2.0233921    3.0667052 
H     1.8611270   -0.9202486    3.1582041 
H     0.1910769    2.0302368    3.5422407 
H     1.6288383    1.7904227    2.5146380 
H    -4.6249657   -0.5159033   -2.0527552 
H    -4.6213791    0.9556585   -1.0367045 
H    -4.4793281    1.0883558   -2.8067220 
H    -0.9989500   -3.2694999    0.4324129 
H    -2.4118365   -2.9581476    1.4831513 
H    -2.4899369   -4.2382344    0.2520175 
H     0.7824325    0.3187785    5.1017640 
H    -0.6534190   -0.7418729    4.9956490 
H     0.9257303   -1.4171210    5.4650846 
H     0.3156019    2.6494033    0.4953459 
H    -1.0781326    2.9933416    1.5634245 
H     0.4531838    3.8726489    1.7899199 
