65
Energy =
C     0.9830626   -0.9394465   -1.9349051 
C     1.9040810   -0.0602819   -1.3056669 
C     2.4105433   -0.3519155   -0.0063796 
H     2.0827530    0.9278313   -1.7481032 
Pd    0.1953599   -0.2431035    0.0597335 
P    -0.0877569    0.3331961    2.2925820 
P    -2.1298678   -0.3000591   -0.0874980 
H     1.0335664   -2.0022210   -1.6508859 
H     2.4827660   -1.4149600    0.2718305 
C    -0.9266302   -0.2335330   -5.7270058 
C    -0.5822681    0.8557728   -4.9082794 
C     0.0351690    0.6411625   -3.6716645 
C     0.3244557   -0.6702812   -3.2280407 
C    -0.0346049   -1.7567801   -4.0573957 
C    -0.6508506   -1.5400760   -5.2969986 
H    -1.4107281   -0.0627561   -6.6937860 
H    -0.8018518    1.8772726   -5.2358837 
H     0.2758420    1.4982671   -3.0323761 
H     0.1812142   -2.7793455   -3.7275506 
H    -0.9149893   -2.3938129   -5.9293917 
C     4.7513211    2.2541998    2.5016283 
C     4.1004104    2.7782422    1.3716848 
C     3.3494191    1.9435502    0.5369515 
C     3.2362015    0.5603887    0.8103068 
C     3.9107627    0.0446505    1.9411295 
C     4.6568461    0.8821401    2.7805015 
H     5.3353277    2.9106783    3.1544010 
H     4.1765806    3.8462226    1.1425701 
H     2.8345387    2.3776067   -0.3262425 
H     3.8517050   -1.0287674    2.1564934 
H     5.1729050    0.4613123    3.6496118 
C    -2.7409490    0.6916488    1.3752381 
C    -1.9266811    0.3904030    2.6448522 
C    -3.0627168    0.4636503   -1.5049763 
C    -2.8495135   -1.9947074    0.1779943 
C     0.6064215   -0.8497958    3.5358367 
C     0.5926357    1.9767066    2.7986804 
C    -3.3225913   -0.4484090   -2.7115403 
C    -2.1207274   -3.0996912   -0.6026683 
C     0.2928436   -2.3189236    3.2199334 
C     0.1282345    3.1343023    1.9050451 
H    -2.6372894    1.7532104    1.0854999 
H    -3.8178403    0.4973364    1.5324328 
H    -2.1297764    1.1314658    3.4386177 
H    -2.2001331   -0.5996561    3.0527461 
H    -4.0176445    0.8340431   -1.0859740 
H    -2.4735722    1.3484614   -1.8071683 
H    -2.7810896   -2.1901399    1.2638757 
H    -3.9257383   -1.9546322   -0.0731128 
H     1.6969382   -0.6706896    3.5313149 
H     0.2329370   -0.5572247    4.5351122 
H     0.3216100    2.1433799    3.8581074 
H     1.6913827    1.8676638    2.7520146 
H    -2.3873699   -0.8395745   -3.1400278 
H    -3.9722912   -1.2996151   -2.4461580 
H    -3.8357290    0.1269489   -3.5000807 
H    -2.1258097   -2.9090576   -1.6886656 
H    -1.0676417   -3.1733229   -0.2779849 
H    -2.6039994   -4.0753976   -0.4249846 
H    -0.7932048   -2.5198662    3.2240005 
H     0.6846918   -2.6019975    2.2266381 
H     0.7533952   -2.9804279    3.9728511 
H     0.3584163    2.9291753    0.8444662 
H    -0.9574505    3.3141267    1.9946604 
H     0.6449695    4.0654523    2.1920534 
