65
Energy =
C     1.1627255   -1.1286030   -2.1210167 
C     2.0815590   -0.2381223   -1.5012219 
C     2.5882422   -0.5185931   -0.1987007 
H     2.2382628    0.7576923   -1.9335784 
Pd    0.3674171   -0.4526775   -0.1485211 
P    -0.0425417    0.1231894    2.0588077 
P    -1.9297566   -0.5071633   -0.4656639 
H     1.2191694   -2.1882072   -1.8253795 
H     2.6864308   -1.5787859    0.0822307 
C    -1.1537011   -0.4661261   -5.6901104 
C    -1.1021774   -1.7334386   -5.0892197 
C    -0.3224565   -1.9355665   -3.9433813 
C     0.4162481   -0.8751233   -3.3684373 
C     0.3591843    0.3942354   -3.9889901 
C    -0.4145282    0.5935873   -5.1375828 
H    -1.7591997   -0.3056504   -6.5877881 
H    -1.6645111   -2.5687297   -5.5192655 
H    -0.2806317   -2.9291870   -3.4817779 
H     0.9137073    1.2389719   -3.5674492 
H    -0.4435020    1.5829696   -5.6056934 
C     4.7880412    2.1678821    2.3539037 
C     4.7563786    0.7901907    2.6174951 
C     4.0573817   -0.0730610    1.7635850 
C     3.3680793    0.4215301    0.6322141 
C     3.4163954    1.8119082    0.3756499 
C     4.1203024    2.6724678    1.2248710 
H     5.3356968    2.8442978    3.0177721 
H     5.2856121    0.3846389    3.4860022 
H     4.0488878   -1.1502518    1.9674173 
H     2.8863394    2.2308814   -0.4860448 
H     4.1464628    3.7454057    1.0077353 
C    -2.6967214    0.2977275    1.0418890 
C    -1.8950046    0.0316639    2.3315923 
C    -2.6079453    0.4300064   -1.9108181 
C    -2.6551206   -2.2072356   -0.6082885 
C     0.6929844   -0.9664791    3.3634525 
C     0.4909512    1.8401443    2.4985278 
C    -4.1384340    0.5098327   -2.0191908 
C    -2.1475275   -3.1977429    0.4498390 
C     0.3266289   -0.6362651    4.8186271 
C     0.0213314    2.9058427    1.4985990 
H    -2.7151231    1.3796993    0.8169802 
H    -3.7460657   -0.0279383    1.1561275 
H    -2.1946160    0.7306721    3.1326397 
H    -2.0929343   -0.9895180    2.7039519 
H    -2.1568231    1.4372120   -1.8483160 
H    -2.1683667   -0.0482159   -2.8047306 
H    -3.7570623   -2.1251769   -0.5836984 
H    -2.3760239   -2.5453993   -1.6240205 
H     0.3894367   -1.9957875    3.0971084 
H     1.7854359   -0.9067760    3.2040368 
H     0.1396622    2.0662305    3.5216714 
H     1.5957556    1.7985851    2.5272658 
H    -4.5933476   -0.4883831   -2.1353454 
H    -4.5916853    0.9959490   -1.1380477 
H    -4.4153923    1.1043207   -2.9066474 
H    -1.0437063   -3.2519543    0.4481282 
H    -2.4755000   -2.9157381    1.4652008 
H    -2.5398586   -4.2084447    0.2465313 
H     0.6819599    0.3658491    5.1117613 
H    -0.7630529   -0.6804763    4.9888124 
H     0.7989765   -1.3672478    5.4971856 
H     0.3349591    2.6486121    0.4712025 
H    -1.0767234    3.0206060    1.5057266 
H     0.4594348    3.8852634    1.7543845 
