65
Energy =
C     1.1186477   -1.1611980   -1.8628617 
C     1.9879455   -0.2025390   -1.2675536 
C     2.4577797   -0.3769542    0.0611753 
H     2.1539735    0.7602508   -1.7669864 
Pd    0.2046572   -0.3741336    0.0022333 
P    -0.5046912    0.4326970    2.0712826 
P    -2.0389323   -0.7276261   -0.4929103 
H     1.2109519   -2.2020134   -1.5152595 
H     2.5377642   -1.4109630    0.4311470 
C    -0.9806596   -0.7579060   -5.6041245 
C    -0.8533513   -2.0096277   -4.9830216 
C    -0.1455069   -2.1279951   -3.7798180 
C     0.4413477   -0.9975921   -3.1651242 
C     0.3151291    0.2547245   -3.8106321 
C    -0.3849739    0.3710971   -5.0161534 
H    -1.5312052   -0.6626158   -6.5453700 
H    -1.2983496   -2.8985619   -5.4419109 
H    -0.0341759   -3.1119818   -3.3093600 
H     0.7535135    1.1517351   -3.3613868 
H    -0.4705125    1.3495278   -5.5001509 
C     4.8880345    2.4429175    2.2219221 
C     3.9929515    2.9043988    1.2415548 
C     3.1926901    2.0003055    0.5354107 
C     3.2736167    0.6118255    0.7925846 
C     4.1716430    0.1623156    1.7870085 
C     4.9737183    1.0690204    2.4925087 
H     5.5126372    3.1527522    2.7735062 
H     3.9168491    3.9763754    1.0315704 
H     2.4822415    2.3766469   -0.2093286 
H     4.2455396   -0.9102660    1.9994983 
H     5.6691994    0.7014407    3.2539267 
C    -3.0382615   -0.2491851    1.0170950 
C    -2.3205350    0.8240450    1.8534002 
C    -2.6815380    0.2888113   -1.9001222 
C    -2.5424132   -2.4683733   -0.8772769 
C    -0.4767011   -0.8301856    3.4363752 
C     0.1571346    2.0166449    2.7918706 
C    -2.3201838    1.7772267   -1.8015980 
C    -4.0414103   -2.7104038   -1.1122400 
C     0.8257434   -1.6433119    3.4985914 
C     1.3865851    1.8867701    3.7011392 
H    -4.0466139    0.0863117    0.7164878 
H    -3.1689673   -1.1749747    1.6076155 
H    -2.3613668    1.8064530    1.3491717 
H    -2.7954701    0.9440557    2.8445233 
H    -2.2367395   -0.1583121   -2.8078868 
H    -3.7755147    0.1442938   -1.9612658 
H    -1.9509522   -2.7497541   -1.7674402 
H    -2.1636477   -3.0808686   -0.0382809 
H    -0.6803684   -0.3075268    4.3894798 
H    -1.3351731   -1.5012483    3.2493711 
H     0.3810360    2.6666390    1.9267360 
H    -0.6827137    2.4824996    3.3416564 
H    -2.8315467    2.2694012   -0.9560741 
H    -1.2314761    1.9122625   -1.6725647 
H    -2.6218645    2.3015217   -2.7239029 
H    -4.6482433   -2.4157756   -0.2386483 
H    -4.4106444   -2.1575335   -1.9921989 
H    -4.2210767   -3.7837338   -1.2953212 
H     0.9731294   -2.2139846    2.5647276 
H     1.7080886   -0.9978303    3.6411330 
H     0.7883543   -2.3598621    4.3366346 
H     1.1609707    1.3034957    4.6099280 
H     2.2348189    1.4154851    3.1820674 
H     1.7090888    2.8908897    4.0234406 
