65
Energy =
C     0.9710513   -0.9135983   -2.0387861 
C     1.8995616   -0.0690059   -1.3720271 
C     2.4047693   -0.4134640   -0.0862924 
H     2.0881777    0.9347096   -1.7736769 
Pd    0.1870606   -0.3003084   -0.0187725 
P    -0.0954669    0.2885252    2.2078062 
P    -2.1377717   -0.4086868   -0.1851406 
H     1.0169377   -1.9894843   -1.8079725 
H     2.4671371   -1.4868700    0.1518857 
C    -0.9166675    0.0070270   -5.7969869 
C    -0.6827011   -1.3242411   -5.4215676 
C    -0.0738273   -1.6118701   -4.1927214 
C     0.3178837   -0.5731136   -3.3184722 
C     0.0679611    0.7641671   -3.7064350 
C    -0.5398956    1.0496979   -4.9331927 
H    -1.3932558    0.2330043   -6.7561440 
H    -0.9723021   -2.1421096   -6.0892742 
H     0.1122502   -2.6537060   -3.9079083 
H     0.3326611    1.5864566   -3.0319482 
H    -0.7271825    2.0904449   -5.2173756 
C     4.8501565    2.0599478    2.4564807 
C     4.1215948    2.6478516    1.4082451 
C     3.3286206    1.8582253    0.5684116 
C     3.2507775    0.4579483    0.7542880 
C     3.9953930   -0.1198888    1.8079525 
C     4.7852121    0.6721842    2.6516685 
H     5.4688396    2.6806450    3.1123386 
H     4.1708033    3.7297951    1.2471400 
H     2.7522934    2.3391774   -0.2291996 
H     3.9568210   -1.2050585    1.9589971 
H     5.3579073    0.2033989    3.4585414 
C    -2.8092523    0.3397220    1.3982168 
C    -1.9082193    0.0936563    2.6207447 
C    -3.0610647    0.5511802   -1.4885136 
C    -2.8271843   -2.1287182   -0.2746153 
C     0.8061417   -0.6718477    3.5077431 
C     0.3539716    2.0447874    2.5828968 
C    -3.3235463   -0.1945440   -2.8045552 
C    -2.2858911   -3.0825378    0.7995523 
C     0.7396526   -2.1928462    3.3178270 
C    -0.2575751    3.0726422    1.6213594 
H    -2.8926384    1.4226876    1.1947987 
H    -3.8342016   -0.0356717    1.5726933 
H    -2.1736604    0.7680304    3.4549889 
H    -2.0273401   -0.9402131    2.9893878 
H    -4.0141093    0.8754033   -1.0295570 
H    -2.4601181    1.4609513   -1.6680550 
H    -3.9306628   -2.0607254   -0.2352646 
H    -2.5591872   -2.4959922   -1.2818747 
H     1.8520449   -0.3182325    3.4548446 
H     0.4079954   -0.3652961    4.4932879 
H     0.0733482    2.2500197    3.6329451 
H     1.4577130    2.0746854    2.5247192 
H    -2.3964680   -0.5917817   -3.2460551 
H    -4.0307620   -1.0289006   -2.6633941 
H    -3.7696716    0.4997880   -3.5359964 
H    -1.1812332   -3.1029812    0.7956972 
H    -2.6210475   -2.7941031    1.8104368 
H    -2.6469307   -4.1081343    0.6138937 
H    -0.2938650   -2.5747947    3.3823502 
H     1.1484108   -2.4861127    2.3346913 
H     1.3299511   -2.7004722    4.0992565 
H    -0.0091205    2.8284984    0.5726830 
H    -1.3565510    3.1207201    1.7122202 
H     0.1362713    4.0793326    1.8407848 
