65
Energy =
C     1.0951109   -1.0977824   -2.1626566 
C     1.9540598   -0.1496006   -1.5437300 
C     2.5088690   -0.4147816   -0.2568624 
H     2.0217569    0.8640378   -1.9574052 
Pd    0.2928515   -0.5229261   -0.1599994 
P    -0.1162017   -0.0509583    2.0715837 
P    -1.9994723   -0.6876216   -0.4542535 
H     1.2327116   -2.1532940   -1.8785713 
H     2.7033793   -1.4683034   -0.0031447 
C    -1.3480746   -0.5768305   -5.6699944 
C    -0.6245223    0.5154593   -5.1626389 
C     0.1936304    0.3622937   -4.0377977 
C     0.3068707   -0.8904376   -3.3926632 
C    -0.4105548   -1.9862150   -3.9280954 
C    -1.2323029   -1.8314974   -5.0511668 
H    -1.9879096   -0.4525702   -6.5493785 
H    -0.6974629    1.4935497   -5.6493168 
H     0.7445085    1.2292912   -3.6591841 
H    -0.3179241   -2.9698702   -3.4526552 
H    -1.7780627   -2.6930452   -5.4494886 
C     4.5194023    2.3993565    2.3145090 
C     4.6179395    1.0186793    2.5440133 
C     3.9793021    0.1154808    1.6840918 
C     3.2219873    0.5716708    0.5804516 
C     3.1383872    1.9663081    0.3584452 
C     3.7819197    2.8673721    1.2135033 
H     5.0195917    3.1070120    2.9832346 
H     5.2019464    0.6428533    3.3905228 
H     4.0718802   -0.9624353    1.8614848 
H     2.5507732    2.3552420   -0.4798235 
H     3.7056135    3.9430328    1.0232932 
C    -2.7938820   -0.0204493    1.1050743 
C    -1.9510260   -0.2965568    2.3662835 
C    -2.7150298    0.3086124   -1.8402270 
C    -2.6854670   -2.3863045   -0.7220945 
C     0.7249104   -1.1252360    3.3242689 
C     0.2947826    1.6845740    2.5670555 
C    -2.2365663    1.7667134   -1.8510746 
C    -2.2261703   -3.4199387    0.3159756 
C     0.3612511   -0.8763911    4.7962400 
C    -0.2746140    2.7503598    1.6208169 
H    -2.8987420    1.0672935    0.9463547 
H    -3.8140124   -0.4320433    1.2104193 
H    -2.2872962    0.3308294    3.2109483 
H    -2.0620488   -1.3499566    2.6809082 
H    -2.3958703   -0.2072231   -2.7646728 
H    -3.8177382    0.2383424   -1.7871161 
H    -3.7884380   -2.3103432   -0.7588989 
H    -2.3458895   -2.6706310   -1.7353351 
H     0.4977178   -2.1652697    3.0257085 
H     1.8063072   -0.9744562    3.1497120 
H    -0.0493469    1.8439779    3.6051595 
H     1.4000517    1.7253035    2.5730977 
H    -2.5956069    2.3298223   -0.9721053 
H    -1.1338702    1.8160128   -1.8630539 
H    -2.6095771    2.2798208   -2.7531465 
H    -1.1235733   -3.4584270    0.3784386 
H    -2.6198082   -3.1919866    1.3216221 
H    -2.5880599   -4.4250043    0.0412477 
H     0.6422010    0.1397093    5.1203011 
H    -0.7181727   -1.0127875    4.9819473 
H     0.9023045   -1.5911753    5.4398148 
H     0.0310698    2.5569702    0.5777069 
H    -1.3774411    2.7839400    1.6554655 
H     0.0976471    3.7484284    1.9068510 
