65
Energy =
C     1.0242891   -0.8645236   -2.2027597 
C     1.9178635   -0.0205084   -1.4904578 
C     2.4333825   -0.4078651   -0.2211523 
H     2.0674003    1.0080891   -1.8423054 
Pd    0.2105571   -0.3843290   -0.1565758 
P    -0.0967352    0.0197994    2.1111773 
P    -2.1103030   -0.5006991   -0.3412121 
H     1.1075203   -1.9479309   -2.0232298 
H     2.5350630   -1.4880212   -0.0317479 
C    -0.8788224    0.1654816   -5.9243557 
C    -0.5778410   -1.1706522   -5.6209649 
C     0.0349128   -1.4944387   -4.4031722 
C     0.3646860   -0.4870805   -3.4686227 
C     0.0492547    0.8550244   -3.7850638 
C    -0.5638861    1.1765178   -5.0003402 
H    -1.3593892    0.4195715   -6.8744654 
H    -0.8187193   -1.9639513   -6.3359934 
H     0.2723323   -2.5395379   -4.1741134 
H     0.2669599    1.6508864   -3.0635705 
H    -0.8030726    2.2204021   -5.2286762 
C     4.7091647    2.0521948    2.4873882 
C     4.0324683    2.6479331    1.4092146 
C     3.3018934    1.8623416    0.5113819 
C     3.2345610    0.4579176    0.6675362 
C     3.9365279   -0.1286741    1.7460419 
C     4.6618840    0.6592612    2.6492587 
H     5.2772517    2.6701861    3.1899091 
H     4.0725736    3.7333053    1.2703955 
H     2.7668369    2.3508297   -0.3093872 
H     3.9192862   -1.2181435    1.8674345 
H     5.1997885    0.1834826    3.4757474 
C    -2.7743151    0.2936047    1.2195234 
C    -1.9350806   -0.0255076    2.4690458 
C    -3.0275855    0.4312939   -1.6674473 
C    -2.8043762   -2.2211778   -0.3888433 
C     0.6521941   -1.2052683    3.2815458 
C     0.5031210    1.6759127    2.6792754 
C    -3.2777743   -0.3385806   -2.9718298 
C    -2.2327614   -3.1695660    0.6753938 
C     0.3756086   -0.9799406    4.7758976 
C     0.0133457    2.8348614    1.8002045 
H    -2.7624202    1.3801858    1.0158655 
H    -3.8310678    0.0011479    1.3606364 
H    -2.1722287    0.6704991    3.2930914 
H    -2.1543094   -1.0440193    2.8341697 
H    -3.9842885    0.7625071   -1.2212220 
H    -2.4265731    1.3382861   -1.8603587 
H    -3.9063178   -2.1523946   -0.3192705 
H    -2.5657493   -2.5992091   -1.3994164 
H     0.2851941   -2.1941126    2.9498929 
H     1.7367485   -1.1814755    3.0709112 
H     0.1960543    1.8130651    3.7320613 
H     1.6064129    1.6132074    2.6607494 
H    -2.3455238   -0.7417270   -3.3975686 
H    -3.9855779   -1.1710767   -2.8223117 
H    -3.7169762    0.3419563   -3.7200969 
H    -1.1279805   -3.1859451    0.6429409 
H    -2.5439172   -2.8820123    1.6939835 
H    -2.5930318   -4.1973135    0.5004729 
H     0.8025541   -0.0267844    5.1301293 
H    -0.7053571   -0.9791888    4.9994086 
H     0.8366687   -1.7900533    5.3666876 
H     0.2758137    2.6656392    0.7407284 
H    -1.0809567    2.9666168    1.8665928 
H     0.4827645    3.7797006    2.1218383 
