65
Energy =
C     1.0269307   -1.1116055   -1.9388863 
C     1.9228328   -0.1899309   -1.3195206 
C     2.4767199   -0.4639165   -0.0425153 
H     2.0292946    0.8150439   -1.7466975 
Pd    0.2439410   -0.4906665    0.0650818 
P    -0.1409352    0.4254596    2.1620887 
P    -2.0419257   -0.8878040   -0.0644374 
H     1.1819966   -2.1806172   -1.7284493 
H     2.5451356   -1.5232603    0.2534755 
C    -1.2577559   -0.2948081   -5.5021857 
C    -0.8243601    0.7676016   -4.6912107 
C    -0.0747849    0.5135828   -3.5378622 
C     0.2640176   -0.8096772   -3.1685240 
C    -0.1698840   -1.8660737   -4.0001233 
C    -0.9240026   -1.6121403   -5.1530648 
H    -1.8473169   -0.0954154   -6.4026881 
H    -1.0772621    1.7992561   -4.9574057 
H     0.2318734    1.3528173   -2.9039062 
H     0.0940138   -2.8972125   -3.7411772 
H    -1.2464883   -2.4459831   -5.7851767 
C     4.7805954    2.1653537    2.4696032 
C     4.5475328    0.8320822    2.8426812 
C     3.8185049   -0.0143373    1.9988024 
C     3.2980106    0.4538723    0.7689569 
C     3.5600275    1.7923763    0.3973799 
C     4.2917735    2.6370008    1.2397535 
H     5.3519639    2.8295352    3.1257655 
H     4.9416767    0.4495754    3.7897993 
H     3.6449839   -1.0568981    2.2905353 
H     3.1910408    2.1824416   -0.5563526 
H     4.4860014    3.6701772    0.9338703 
C    -2.8107334   -0.3375642    1.5564804 
C    -1.9810221    0.7436183    2.2723278 
C    -2.9099451    0.0497858   -1.4025949 
C    -2.6488545   -2.6344754   -0.2189523 
C     0.3268375   -0.5873565    3.6395369 
C     0.6445906    2.0717837    2.4755150 
C    -2.7238124    1.5698617   -1.2948285 
C    -2.1704780   -3.3682311   -1.4772688 
C    -0.1927936   -2.0316238    3.6027306 
C     0.4232388    3.0735333    1.3339433 
H    -3.8448650    0.0076167    1.3767027 
H    -2.8795222   -1.2464870    2.1796435 
H    -2.1394060    1.7258695    1.7931567 
H    -2.2815896    0.8448075    3.3309675 
H    -2.4821456   -0.3214636   -2.3519032 
H    -3.9795882   -0.2313049   -1.3841189 
H    -2.2990353   -3.1553195    0.6914358 
H    -3.7540426   -2.5984878   -0.1689930 
H     1.4324248   -0.5697825    3.6533685 
H    -0.0168847   -0.0543634    4.5458394 
H     0.2642643    2.4583400    3.4396650 
H     1.7228444    1.8672247    2.6056416 
H    -3.2395867    1.9838860   -0.4107073 
H    -1.6538847    1.8345882   -1.2258513 
H    -3.1394646    2.0672575   -2.1870831 
H    -2.4949184   -2.8602851   -2.4007777 
H    -1.0700948   -3.4387668   -1.4969582 
H    -2.5784830   -4.3930033   -1.4933614 
H    -1.2937682   -2.0723774    3.6675208 
H     0.1164094   -2.5420745    2.6727566 
H     0.2079384   -2.6041226    4.4561174 
H     0.7544897    2.6484312    0.3702703 
H    -0.6374654    3.3627882    1.2338812 
H     1.0051946    3.9918677    1.5182877 
