65
Energy =
C     1.0483822   -1.1232018   -2.0112852 
C     1.9292876   -0.1619529   -1.4451644 
C     2.4823790   -0.3725564   -0.1474333 
H     2.0155390    0.8277256   -1.9101028 
Pd    0.2665011   -0.4265684   -0.0397157 
P    -0.1196652    0.1868475    2.1600404 
P    -2.0300534   -0.5754280   -0.3114337 
H     1.1668826   -2.1653645   -1.6743056 
H     2.6552392   -1.4159535    0.1582457 
C    -1.4064898   -0.7319432   -5.5272536 
C    -1.3085506   -1.9567082   -4.8483612 
C    -0.4825296   -2.0708588   -3.7235466 
C     0.2569917   -0.9629806   -3.2463693 
C     0.1613215    0.2585841   -3.9513113 
C    -0.6610272    0.3709616   -5.0779159 
H    -2.0496532   -0.6395554   -6.4081358 
H    -1.8716386   -2.8269408   -5.2010610 
H    -0.4037018   -3.0315498   -3.2010253 
H     0.7291306    1.1333427   -3.6182639 
H    -0.7202658    1.3252697   -5.6114089 
C     4.5611975    2.5178581    2.2802438 
C     4.6233742    1.1486378    2.5807718 
C     3.9617109    0.2194708    1.7673064 
C     3.2183287    0.6380860    0.6398032 
C     3.1695563    2.0211256    0.3468855 
C     3.8359955    2.9479256    1.1559411 
H     5.0794093    3.2455974    2.9126924 
H     5.1963295    0.8019767    3.4470563 
H     4.0219844   -0.8497578    2.0021238 
H     2.5917030    2.3814482   -0.5107939 
H     3.7872007    4.0141160    0.9112394 
C    -2.8073717    0.1706561    1.2213470 
C    -1.9502525   -0.0409980    2.4852959 
C    -2.7424580    0.3642008   -1.7379451 
C    -2.7394548   -2.2751943   -0.5005197 
C     0.7364347   -0.7855908    3.4820478 
C     0.2977960    1.9422813    2.5692498 
C    -2.2465778    1.8139320   -1.8221744 
C    -2.2882756   -3.2694121    0.5783445 
C     0.6861698   -2.3036871    3.2630808 
C    -0.3052966    2.9711284    1.6039606 
H    -2.9143305    1.2488588    1.0083120 
H    -3.8260797   -0.2350002    1.3579216 
H    -2.2707209    0.6317803    3.3012867 
H    -2.0618399   -1.0752996    2.8566459 
H    -2.4362186   -0.1994300   -2.6385823 
H    -3.8455713    0.3105591   -1.6745055 
H    -3.8414724   -2.1851866   -0.5344748 
H    -2.4105010   -2.6080522   -1.5024743 
H     1.7810389   -0.4238905    3.4726718 
H     0.3006823   -0.4983082    4.4574611 
H    -0.0103948    2.1322184    3.6144761 
H     1.4023407    1.9871262    2.5366737 
H    -2.5895593    2.4221754   -0.9671742 
H    -1.1435268    1.8489137   -1.8480148 
H    -2.6232805    2.2887049   -2.7435027 
H    -1.1863741   -3.3249770    0.6330287 
H    -2.6675135   -2.9892827    1.5763035 
H    -2.6712062   -4.2788199    0.3523209 
H    -0.3478773   -2.6902118    3.2744147 
H     1.1394706   -2.5773596    2.2936239 
H     1.2428031   -2.8236104    4.0609096 
H    -0.0238274    2.7446323    0.5604989 
H    -1.4071328    2.9982675    1.6656510 
H     0.0655085    3.9812226    1.8463790 
