65
Energy =
C     0.9711093   -0.9796313   -2.0693640 
C     1.8907577   -0.1169579   -1.4164143 
C     2.4175705   -0.4512840   -0.1357409 
H     2.0550492    0.8890996   -1.8224117 
Pd    0.2001018   -0.3740425   -0.0384040 
P    -0.0656284    0.1136184    2.2185221 
P    -2.1264666   -0.4215418   -0.1787246 
H     1.0324489   -2.0517259   -1.8255088 
H     2.5071210   -1.5226756    0.1026487 
C    -0.9790014   -0.1503958   -5.8158243 
C    -0.6076600    0.9128539   -4.9750035 
C     0.0214322    0.6584018   -3.7519475 
C     0.2970367   -0.6678115   -3.3446495 
C    -0.0892035   -1.7277412   -4.1960090 
C    -0.7182512   -1.4712371   -5.4214343 
H    -1.4720851    0.0515678   -6.7719864 
H    -0.8151723    1.9454065   -5.2745894 
H     0.2836104    1.4962923   -3.0960460 
H     0.1160569   -2.7612297   -3.8948120 
H    -1.0032894   -2.3049800   -6.0712049 
C     4.7640296    2.1006051    2.4237020 
C     4.0753235    2.6554950    1.3314421 
C     3.3222845    1.8389471    0.4810189 
C     3.2439230    0.4435263    0.6998262 
C     3.9579504   -0.1025384    1.7915886 
C     4.7058824    0.7166446    2.6473917 
H     5.3496964    2.7428079    3.0890931 
H     4.1235645    3.7332818    1.1444185 
H     2.7776918    2.2964855   -0.3512666 
H     3.9317380   -1.1853624    1.9612467 
H     5.2527978    0.2719412    3.4852014 
C    -2.7331913    0.4662111    1.3517433 
C    -1.9007877    0.0982785    2.5918554 
C    -3.0507885    0.4559517   -1.5360259 
C    -2.8680969   -2.1213092   -0.0369133 
C     0.6858835   -1.0778313    3.4215693 
C     0.5663864    1.7787660    2.7227374 
C    -3.3473904   -0.3667471   -2.7970668 
C    -2.1711770   -3.1744401   -0.9123405 
C     0.4212841   -0.8044254    4.9101916 
C     0.0940733    2.9203785    1.8120040 
H    -2.6505939    1.5456088    1.1299874 
H    -3.8050663    0.2448514    1.5080045 
H    -2.1234451    0.7728659    3.4374674 
H    -2.1397224   -0.9283966    2.9262335 
H    -3.9917437    0.8227514   -1.0836954 
H    -2.4413824    1.3433627   -1.7858119 
H    -2.7882785   -2.4007142    1.0298054 
H    -3.9469070   -2.0438929   -0.2676771 
H     0.3146101   -2.0760657    3.1247527 
H     1.7689212   -1.0642924    3.2019437 
H     0.2748685    1.9567827    3.7737989 
H     1.6680203    1.6914100    2.6944940 
H    -2.4280678   -0.7539259   -3.2618386 
H    -4.0179157   -1.2156464   -2.5810052 
H    -3.8522311    0.2735736   -3.5396314 
H    -2.1972467   -2.9046353   -1.9809513 
H    -1.1124150   -3.2855756   -0.6186074 
H    -2.6644709   -4.1543430   -0.7957457 
H     0.8510331    0.1594370    5.2304828 
H    -0.6578106   -0.7965380    5.1420578 
H     0.8872978   -1.5952598    5.5228136 
H     0.3270608    2.7046473    0.7541303 
H    -0.9930629    3.0917536    1.8978974 
H     0.6019342    3.8595889    2.0885817 
