65
Energy =
C     1.0440268   -1.2511883   -1.9673661 
C     1.9680899   -0.3307199   -1.3912447 
C     2.4726790   -0.5349466   -0.0805445 
H     2.1396996    0.6317370   -1.8888978 
Pd    0.2403313   -0.4430969   -0.0388564 
P    -0.1673159    0.5722710    2.0112663 
P    -2.0600223   -0.7201313   -0.2311399 
H     1.1315545   -2.3053125   -1.6631373 
H     2.4917343   -1.5727163    0.2891793 
C    -1.0902578   -0.6320827   -5.6612109 
C    -0.8559796   -1.9285374   -5.1786024 
C    -0.1485808   -2.1183778   -3.9844799 
C     0.3363459   -1.0172778   -3.2436632 
C     0.0995388    0.2832361   -3.7482675 
C    -0.6032016    0.4728772   -4.9427233 
H    -1.6436022   -0.4822672   -6.5937303 
H    -1.2195992   -2.7966968   -5.7379965 
H     0.0383397   -3.1346908   -3.6210495 
H     0.4499824    1.1583899   -3.1903770 
H    -0.7774668    1.4882311   -5.3138573 
C     4.8485094    2.1652153    2.2851160 
C     4.6037039    0.8525115    2.7178108 
C     3.8479822   -0.0182974    1.9228826 
C     3.3141703    0.4053168    0.6831280 
C     3.5769828    1.7276137    0.2567910 
C     4.3371830    2.5950002    1.0488449 
H     5.4418887    2.8473736    2.9022022 
H     5.0095003    0.5040979    3.6731575 
H     3.6640549   -1.0444579    2.2624013 
H     3.1793833    2.0884152   -0.6971961 
H     4.5329889    3.6144376    0.7007762 
C    -2.8629938    0.0267480    1.2930340 
C    -1.9699230    1.0710502    1.9872539 
C    -2.8272433    0.1239516   -1.6879805 
C    -2.7539091   -2.4414383   -0.2413947 
C     0.0977860   -0.5020332    3.4993855 
C     0.7485487    2.1370799    2.3866149 
C    -2.5635577    1.6358654   -1.7143557 
C    -2.2666101   -3.3203367   -1.3989909 
C    -0.4758267   -1.9206214    3.3691480 
C     0.3147288    2.8972304    3.6495671 
H    -3.8411235    0.4611923    1.0187077 
H    -3.0693604   -0.8173157    1.9741715 
H    -1.9942268    2.0273205    1.4328283 
H    -2.3252772    1.2776990    3.0125571 
H    -2.3874838   -0.3576682   -2.5804485 
H    -3.9105147   -0.0999660   -1.6849851 
H    -2.4683327   -2.8850007    0.7302339 
H    -3.8565929   -2.3457362   -0.2441720 
H     1.1968809   -0.5385565    3.6205425 
H    -0.3099145    0.0148744    4.3872362 
H     1.8140430    1.8516393    2.4416941 
H     0.6456739    2.7671234    1.4843139 
H    -3.0743336    2.1555187   -0.8846088 
H    -1.4825629    1.8503317   -1.6436805 
H    -2.9337452    2.0694481   -2.6584710 
H    -2.5291090   -2.8928253   -2.3810085 
H    -1.1713098   -3.4446360   -1.3640985 
H    -2.7260625   -4.3209603   -1.3315187 
H    -1.5784469   -1.9144942    3.3274272 
H    -0.0997472   -2.4207919    2.4582085 
H    -0.1837482   -2.5318259    4.2396844 
H    -0.7414744    3.2132018    3.6018003 
H     0.4535404    2.2912850    4.5609548 
H     0.9295849    3.8067206    3.7611341 
