65
Energy =
C     1.0705381   -1.1193744   -2.0327871 
C     1.9557735   -0.1720314   -1.4391578 
C     2.4965928   -0.3973438   -0.1465823 
H     2.0656868    0.8161395   -1.9026447 
Pd    0.2638203   -0.4275183   -0.0610500 
P    -0.1567596    0.4941862    2.0304888 
P    -2.0210304   -0.8267235   -0.2197190 
H     1.2209852   -2.1778110   -1.7711094 
H     2.5769088   -1.4456172    0.1832130 
C    -1.1753220   -0.4803899   -5.6564493 
C    -0.7295883    0.6219936   -4.9078743 
C     0.0091403    0.4267012   -3.7362469 
C     0.3240642   -0.8769404   -3.2851924 
C    -0.1199653   -1.9745916   -4.0561874 
C    -0.8632574   -1.7792893   -5.2273958 
H    -1.7565793   -0.3263293   -6.5711348 
H    -0.9640866    1.6395167   -5.2376242 
H     0.3267826    1.2984023   -3.1539274 
H     0.1273683   -2.9920919   -3.7346472 
H    -1.1940021   -2.6446279   -5.8110433 
C     4.7694592    2.3353800    2.2818854 
C     4.2191164    2.7816380    1.0684248 
C     3.4917797    1.9050981    0.2557839 
C     3.3018267    0.5571651    0.6381988 
C     3.8749591    0.1179187    1.8547706 
C     4.5974951    0.9975565    2.6705029 
H     5.3368825    3.0247371    2.9151628 
H     4.3585540    3.8211874    0.7543532 
H     3.0630402    2.2783835   -0.6797583 
H     3.7481350   -0.9276363    2.1595534 
H     5.0345507    0.6368477    3.6073214 
C    -2.8322731   -0.1772073    1.3440415 
C    -1.9842799    0.8919416    2.0567331 
C    -2.8638890    0.0205152   -1.6322072 
C    -2.6177621   -2.5832521   -0.2757448 
C     0.1975733   -0.6124487    3.4756451 
C     0.6785449    2.0946243    2.4419075 
C    -2.6849101    1.5448618   -1.6109511 
C    -2.1074572   -3.3944322   -1.4722320 
C    -0.2992071   -2.0556851    3.3067701 
C     0.2291353    2.7870813    3.7379432 
H    -3.8384079    0.2105339    1.1032127 
H    -2.9770465   -1.0536709    1.9994930 
H    -2.0725573    1.8630452    1.5356830 
H    -2.3296966    1.0444282    3.0948551 
H    -2.4162844   -0.4054780   -2.5487399 
H    -3.9327796   -0.2639139   -1.6170200 
H    -2.2870502   -3.0420918    0.6742581 
H    -3.7239147   -2.5500489   -0.2535857 
H     1.2992095   -0.5913650    3.5753706 
H    -0.2202144   -0.1491664    4.3880016 
H     1.7592525    1.8680003    2.4674167 
H     0.5223408    2.7473321    1.5636862 
H    -3.2071136    2.0068555   -0.7546116 
H    -1.6161343    1.8167715   -1.5522379 
H    -3.0969231    1.9886101   -2.5327281 
H    -2.4155637   -2.9506302   -2.4335475 
H    -1.0063297   -3.4572584   -1.4637763 
H    -2.5079926   -4.4213978   -1.4294804 
H    -1.4011172   -2.1099477    3.2853177 
H     0.0853952   -2.5028888    2.3722444 
H     0.0436409   -2.6786001    4.1500702 
H    -0.8436626    3.0450007    3.7204927 
H     0.4197021    2.1599958    4.6253830 
H     0.7949038    3.7253501    3.8692099 
