65
Energy =
C     1.0699247   -1.1977749   -2.0532534 
C     1.9721133   -0.2336578   -1.5161010 
C     2.4958847   -0.3966754   -0.2038851 
H     2.0966204    0.7277346   -2.0293375 
Pd    0.2660060   -0.3900932   -0.1478875 
P    -0.1936368    0.4604947    1.9613018 
P    -2.0144853   -0.6678138   -0.4364136 
H     1.1873148   -2.2367994   -1.7080206 
H     2.5877273   -1.4284709    0.1705923 
C    -1.2874130   -0.8240948   -5.6407807 
C    -0.6972357    0.3190692   -5.0751557 
C     0.0827781    0.2137097   -3.9184314 
C     0.2972524   -1.0417027   -3.3026930 
C    -0.2957148   -2.1838115   -3.8880951 
C    -1.0815557   -2.0766154   -5.0430599 
H    -1.8985238   -0.7380871   -6.5448420 
H    -0.8492951    1.2995485   -5.5383641 
H     0.5148022    1.1206865   -3.4821156 
H    -0.1315688   -3.1665587   -3.4307107 
H    -1.5277620   -2.9748254   -5.4823595 
C     4.6812695    2.4819856    2.1379332 
C     4.0910315    2.8793091    0.9261480 
C     3.3926158    1.9547522    0.1418540 
C     3.2736989    0.6058616    0.5497152 
C     3.8843078    0.2175825    1.7650451 
C     4.5771285    1.1454440    2.5531020 
H     5.2252060    3.2087230    2.7496278 
H     4.1746396    3.9186361    0.5920222 
H     2.9264367    2.2916223   -0.7898309 
H     3.8136519   -0.8272409    2.0899062 
H     5.0445261    0.8227689    3.4891958 
C    -2.8270291   -0.3374009    1.2177944 
C    -2.0513500    0.6909526    2.0650553 
C    -2.7771890    0.4880586   -1.6641478 
C    -2.6296644   -2.3325185   -0.9608935 
C     0.2965181   -0.6435393    3.3665764 
C     0.5242028    2.1162461    2.3734938 
C    -2.4020428    1.9616073   -1.4560154 
C    -1.9854926   -3.4972709   -0.1969976 
C    -0.1592227   -2.1007807    3.2060045 
C     0.1049723    2.7299869    3.7180348 
H    -3.8732857   -0.0168809    1.0630084 
H    -2.8612871   -1.3127822    1.7349546 
H    -2.2415473    1.7150972    1.6964745 
H    -2.3787874    0.6606133    3.1195842 
H    -2.4139131    0.1358884   -2.6475965 
H    -3.8729476    0.3380053   -1.6426420 
H    -3.7316040   -2.3388082   -0.8638344 
H    -2.3963771   -2.3978210   -2.0395466 
H     1.4003429   -0.5795130    3.4007326 
H    -0.0847855   -0.2071670    4.3076796 
H     1.6200982    1.9845120    2.3179170 
H     0.2502915    2.7747939    1.5288926 
H    -2.8128381    2.3627981   -0.5132897 
H    -1.3047381    2.0897303   -1.4369585 
H    -2.8034821    2.5757319   -2.2796306 
H    -0.8877405   -3.4884574   -0.3179173 
H    -2.2074736   -3.4583448    0.8837430 
H    -2.3647287   -4.4602562   -0.5784891 
H    -1.2586288   -2.1904550    3.2430492 
H     0.1864601   -2.5244430    2.2460848 
H     0.2491125   -2.7210326    4.0216387 
H    -0.9875779    2.8713501    3.7865345 
H     0.4270201    2.1079043    4.5701276 
H     0.5769693    3.7204890    3.8354721 
