65
Energy =
C     1.1045982   -1.1869106   -2.0427790 
C     2.0005651   -0.2312054   -1.4805593 
C     2.4989648   -0.4076880   -0.1603540 
H     2.1383468    0.7341570   -1.9827998 
Pd    0.2680392   -0.3919481   -0.1463393 
P    -0.2288589    0.4505416    1.9577746 
P    -2.0075882   -0.6610143   -0.4793186 
H     1.2117064   -2.2294669   -1.7049756 
H     2.5779688   -1.4429622    0.2073998 
C    -1.1930638   -0.7695223   -5.6640437 
C    -0.6020935    0.3648036   -5.0817093 
C     0.1595560    0.2451356   -3.9141910 
C     0.3544147   -1.0161055   -3.3039587 
C    -0.2380963   -2.1494064   -3.9067440 
C    -1.0057638   -2.0278702   -5.0724475 
H    -1.7900998   -0.6722473   -6.5763233 
H    -0.7393237    1.3496854   -5.5401791 
H     0.5922298    1.1455913   -3.4652660 
H    -0.0882999   -3.1366546   -3.4541412 
H    -1.4522155   -2.9194261   -5.5248656 
C     4.6507514    2.4400141    2.2492521 
C     4.5274647    1.1016535    2.6532258 
C     3.8465986    0.1839087    1.8432596 
C     3.2669816    0.5843705    0.6167205 
C     3.4053899    1.9347742    0.2202350 
C     4.0920210    2.8492093    1.0265423 
H     5.1853922    3.1589173    2.8781567 
H     4.9706113    0.7696620    3.5978099 
H     3.7608247   -0.8623890    2.1596052 
H     2.9638581    2.2808239   -0.7200161 
H     4.1910668    3.8899253    0.7010859 
C    -2.8507038   -0.3321338    1.1598349 
C    -2.0870646    0.6899967    2.0252581 
C    -2.7433626    0.4998840   -1.7186180 
C    -2.6179308   -2.3226141   -1.0191700 
C     0.2277928   -0.6609748    3.3684195 
C     0.4882588    2.1013816    2.3904665 
C    -2.3663015    1.9715466   -1.5008845 
C    -1.9905189   -3.4912516   -0.2473198 
C    -0.2265070   -2.1166536    3.1906747 
C     0.0482657    2.7103153    3.7305465 
H    -3.8922475   -0.0063067    0.9856069 
H    -2.8995198   -1.3089180    1.6731539 
H    -2.2646868    1.7160440    1.6556794 
H    -2.4356602    0.6585014    3.0729316 
H    -2.3637548    0.1481188   -2.6960059 
H    -3.8398999    0.3540588   -1.7171984 
H    -3.7214114   -2.3259906   -0.9413893 
H    -2.3661287   -2.3856285   -2.0937638 
H     1.3306710   -0.5990872    3.4277971 
H    -0.1739050   -0.2283520    4.3027240 
H     1.5844270    1.9656440    2.3532117 
H     0.2314895    2.7650081    1.5444420 
H    -2.7924950    2.3726132   -0.5649671 
H    -1.2690439    2.0952215   -1.4618663 
H    -2.7503231    2.5886817   -2.3305305 
H    -0.8907977   -3.4852358   -0.3489976 
H    -2.2312608   -3.4545096    0.8294558 
H    -2.3657655   -4.4521364   -0.6379504 
H    -1.3266190   -2.2045882    3.2010151 
H     0.1414100   -2.5367353    2.2374699 
H     0.1611771   -2.7411549    4.0131244 
H    -1.0448454    2.8547746    3.7813239 
H     0.3540759    2.0833271    4.5850077 
H     0.5212392    3.6987972    3.8604616 
