65
Energy =
C     0.9946735   -1.0998310   -1.8428348 
C     1.9213388   -0.1893977   -1.2688246 
C     2.4051593   -0.3880884    0.0563753 
H     2.1222187    0.7590835   -1.7827028 
Pd    0.1913846   -0.2418797    0.0810541 
P    -0.1127602    0.5060143    2.2597444 
P    -2.1322648   -0.2724169   -0.0964469 
H     1.0235467   -2.1384541   -1.4780806 
H     2.4570197   -1.4276156    0.4159346 
C    -0.8491512   -0.6560336   -5.7066131 
C    -0.4970214    0.4871151   -4.9685994 
C     0.0988758    0.3580353   -3.7097390 
C     0.3585616   -0.9199956   -3.1624446 
C    -0.0082632   -2.0609273   -3.9114393 
C    -0.6030090   -1.9300282   -5.1733652 
H    -1.3161801   -0.5520650   -6.6911273 
H    -0.6936041    1.4838813   -5.3770113 
H     0.3456553    1.2576832   -3.1344646 
H     0.1845794   -3.0585909   -3.5008809 
H    -0.8733452   -2.8253646   -5.7424231 
C     4.7492676    2.3699669    2.3928982 
C     4.6305837    1.0247386    2.7743519 
C     3.8841563    0.1356282    1.9901909 
C     3.2332813    0.5723634    0.8131555 
C     3.3709072    1.9287877    0.4365728 
C     4.1222859    2.8146736    1.2163800 
H     5.3335938    3.0665011    3.0024285 
H     5.1280588    0.6647666    3.6808341 
H     3.8060929   -0.9171745    2.2860525 
H     2.8746168    2.3023968   -0.4649367 
H     4.2174470    3.8607928    0.9074591 
C    -2.7458363    0.8375973    1.2775297 
C    -1.9551564    0.6189228    2.5786065 
C    -3.0311163    0.3965726   -1.5821137 
C    -2.8867724   -1.9291750    0.2859626 
C     0.5432609   -0.5917032    3.5982289 
C     0.5880628    2.1718425    2.6523560 
C    -3.2903955   -0.6008062   -2.7192484 
C    -2.1676590   -3.1032006   -0.3967386 
C     0.2084528   -2.0749291    3.3876652 
C     0.1555929    3.2665188    1.6679887 
H    -2.6183731    1.8722415    0.9103400 
H    -3.8282415    0.6743677    1.4322090 
H    -2.1569331    1.4202545    3.3118765 
H    -2.2513132   -0.3334818    3.0546315 
H    -3.9850170    0.8140673   -1.2073975 
H    -2.4218420    1.2454444   -1.9418643 
H    -2.8377463   -2.0421984    1.3845252 
H    -3.9583183   -1.8895420    0.0154663 
H     1.6366839   -0.4312913    3.5970307 
H     0.1608765   -0.2193110    4.5670935 
H     0.3046872    2.4212582    3.6921379 
H     1.6853707    2.0426748    2.6310225 
H    -2.3563784   -1.0389920   -3.1026060 
H    -3.9586872   -1.4183784   -2.3995138 
H    -3.7825180   -0.0792232   -3.5570222 
H    -2.1518302   -2.9950171   -1.4939551 
H    -1.1215504   -3.1716556   -0.0492425 
H    -2.6728756   -4.0536268   -0.1547031 
H    -0.8808778   -2.2571731    3.3903235 
H     0.6089562   -2.4376326    2.4241519 
H     0.6469620   -2.6859833    4.1944410 
H     0.3974286    2.9793823    0.6292283 
H    -0.9281277    3.4691863    1.7273420 
H     0.6835258    4.2084247    1.8927502 
