65
Energy =
C     1.0375062   -1.1431737   -2.1011786 
C     1.9545205   -0.2052675   -1.5430709 
C     2.4908726   -0.4151310   -0.2427410 
H     2.0824989    0.7711807   -2.0261160 
Pd    0.2613560   -0.3899767   -0.1622882 
P    -0.1693622    0.4043504    1.9750250 
P    -2.0245758   -0.6398078   -0.4351211 
H     1.1484880   -2.1939218   -1.7910919 
H     2.5761373   -1.4591369    0.0980481 
C    -1.3637107   -0.6295725   -5.6420303 
C    -0.7466138    0.4873481   -5.0532292 
C     0.0486910    0.3365513   -3.9120536 
C     0.2514407   -0.9391134   -3.3352781 
C    -0.3677499   -2.0545764   -3.9445181 
C    -1.1687681   -1.9019435   -5.0837942 
H    -1.9868745   -0.5079872   -6.5336941 
H    -0.8895089    1.4830033   -5.4859574 
H     0.5021695    1.2237202   -3.4573168 
H    -0.2122769   -3.0525852   -3.5181874 
H    -1.6354929   -2.7801012   -5.5419353 
C     4.7307817    2.3653548    2.1652055 
C     4.1349428    2.8062324    0.9713585 
C     3.4186869    1.9142256    0.1657023 
C     3.2869687    0.5551005    0.5336785 
C     3.9033623    0.1229174    1.7311772 
C     4.6141553    1.0181284    2.5406709 
H     5.2888009    3.0667198    2.7936156 
H     4.2283170    3.8541521    0.6680861 
H     2.9488833    2.2846630   -0.7512745 
H     3.8227540   -0.9303596    2.0249906 
H     5.0857478    0.6616429    3.4622729 
C    -2.8182349   -0.3433928    1.2346716 
C    -2.0232324    0.6536951    2.1011073 
C    -2.7879481    0.5527943   -1.6267649 
C    -2.6608428   -2.2852299   -0.9941836 
C     0.3194199   -0.7435463    3.3451657 
C     0.5712013    2.0397863    2.4264107 
C    -2.3899825    2.0161869   -1.3912328 
C    -2.0199039   -3.4747954   -0.2667188 
C    -0.1493931   -2.1917999    3.1458092 
C     0.1725414    2.6197628    3.7920142 
H    -3.8620822   -0.0071727    1.0980166 
H    -2.8590334   -1.3314965    1.7265412 
H    -2.2044675    1.6891006    1.7604962 
H    -2.3420178    0.6000595    3.1573753 
H    -2.4425065    0.2179806   -2.6226144 
H    -3.8852704    0.4167762   -1.5938365 
H    -3.7617064   -2.2836773   -0.8853495 
H    -2.4397920   -2.3254938   -2.0765732 
H     1.4239375   -0.6898478    3.3746003 
H    -0.0527822   -0.3311485    4.3006013 
H     1.6649388    1.8977657    2.3557889 
H     0.2962175    2.7249248    1.6035908 
H    -2.7814248    2.4014226   -0.4337382 
H    -1.2908657    2.1290570   -1.3857604 
H    -2.7949217    2.6538816   -2.1949886 
H    -0.9233426   -3.4728324   -0.3985145 
H    -2.2308272   -3.4613804    0.8168155 
H    -2.4118535   -4.4242810   -0.6686554 
H    -1.2492848   -2.2734952    3.1859273 
H     0.1880849   -2.5908823    2.1725520 
H     0.2577908   -2.8381523    3.9415209 
H    -0.9176844    2.7703698    3.8762186 
H     0.4969905    1.9707068    4.6227715 
H     0.6561305    3.6017177    3.9319816 
