65
Energy =
C     0.9652063   -1.0425997   -1.8911489 
C     1.8917042   -0.1309164   -1.3188923 
C     2.4107512   -0.3522232   -0.0106769 
H     2.0656905    0.8319944   -1.8154235 
Pd    0.1965981   -0.2403843    0.0713396 
P    -0.0652174    0.4553197    2.2724466 
P    -2.1298549   -0.3033025   -0.0507722 
H     1.0186124   -2.0884907   -1.5506902 
H     2.4868938   -1.3987838    0.3233264 
C    -0.9800371   -0.5426571   -5.6978714 
C    -0.6265866    0.5893727   -4.9435235 
C     0.0022342    0.4419979   -3.7028129 
C     0.2942099   -0.8435679   -3.1905230 
C    -0.0741215   -1.9733534   -3.9555037 
C    -0.7018658   -1.8240729   -5.1992692 
H    -1.4729367   -0.4243911   -6.6680519 
H    -0.8479995    1.5916948   -5.3247220 
H     0.2499649    1.3325858   -3.1139982 
H     0.1436426   -2.9766521   -3.5720563 
H    -0.9729137   -2.7108060   -5.7813091 
C     4.7717023    2.3864324    2.3316550 
C     4.6817275    1.0312099    2.6845362 
C     3.9289652    0.1492725    1.8983420 
C     3.2431223    0.6030796    0.7479358 
C     3.3518908    1.9696620    0.3997641 
C     4.1094991    2.8485765    1.1814582 
H     5.3608618    3.0774570    2.9428043 
H     5.2063413    0.6580919    3.5701683 
H     3.8730489   -0.9110213    2.1716357 
H     2.8283690    2.3563140   -0.4805964 
H     4.1821267    3.9027730    0.8946556 
C    -2.7270110    0.7654460    1.3626335 
C    -1.9007153    0.5315116    2.6386555 
C    -3.0755413    0.3840592   -1.4985200 
C    -2.8480687   -1.9805311    0.3117987 
C     0.6406965   -0.6600345    3.5704219 
C     0.6190729    2.1234372    2.6841589 
C    -3.3474928   -0.5917101   -2.6513474 
C    -2.1274871   -3.1264771   -0.4156349 
C     0.3251844   -2.1437507    3.3350804 
C     0.1456253    3.2320164    1.7348237 
H    -2.6257291    1.8099969    1.0158975 
H    -3.8024152    0.5805518    1.5400502 
H    -2.0966075    1.3133876    3.3941755 
H    -2.1699420   -0.4356443    3.1007386 
H    -4.0261557    0.7777390   -1.0911039 
H    -2.4886481    1.2504599   -1.8536810 
H    -2.7695551   -2.1176134    1.4059014 
H    -3.9265644   -1.9525120    0.0689194 
H     1.7310156   -0.4812747    3.5468331 
H     0.2757617   -0.3152243    4.5560848 
H     0.3576213    2.3458075    3.7357567 
H     1.7173978    2.0123184    2.6333347 
H    -2.4166375   -1.0064207   -3.0670349 
H    -3.9951684   -1.4266521   -2.3341028 
H    -3.8680019   -0.0593974   -3.4648745 
H    -2.1412844   -2.9931891   -1.5100887 
H    -1.0718833   -3.1850613   -0.0962021 
H    -2.6107866   -4.0905483   -0.1829898 
H    -0.7606553   -2.3443259    3.3593034 
H     0.7083392   -2.4786573    2.3545733 
H     0.7927902   -2.7647114    4.1175889 
H     0.3659624    2.9710330    0.6844523 
H    -0.9392525    3.4162398    1.8250540 
H     0.6645062    4.1771197    1.9671178 
