65
Energy =
C     1.0528399   -1.0251363   -1.9731079 
C     1.9260344   -0.1009625   -1.3257584 
C     2.4877914   -0.4001333   -0.0578329 
H     2.0070424    0.9190280   -1.7218387 
Pd    0.2566131   -0.4863307    0.0496608 
P    -0.1484814    0.3529087    2.1747414 
P    -2.0189856   -0.9355173   -0.0919957 
H     1.2342177   -2.0958881   -1.7952435 
H     2.5833155   -1.4660060    0.2052897 
C    -1.2549120   -0.1556508   -5.5089165 
C    -0.8468049    0.8916655   -4.6658045 
C    -0.0900752    0.6207886   -3.5210121 
C     0.2814291   -0.7044966   -3.1926010 
C    -0.1273645   -1.7451757   -4.0561167 
C    -0.8886990   -1.4745177   -5.2004818 
H    -1.8501598    0.0567828   -6.4026753 
H    -1.1253684    1.9244786   -4.8999703 
H     0.1964507    1.4474076   -2.8615960 
H     0.1621386   -2.7769832   -3.8291937 
H    -1.1912562   -2.2962138   -5.8578580 
C     4.7274759    2.2074901    2.5337369 
C     4.2237316    2.7050859    1.3202491 
C     3.5125810    1.8687736    0.4523134 
C     3.2864943    0.5126939    0.7813874 
C     3.8216570    0.0194267    1.9950455 
C     4.5301746    0.8573749    2.8644508 
H     5.2826486    2.8652376    3.2099783 
H     4.3899897    3.7522869    1.0473247 
H     3.1312501    2.2793468   -0.4878762 
H     3.6760205   -1.0360589    2.2537107 
H     4.9362657    0.4553755    3.7983609 
C    -2.7997494   -0.4559982    1.5457355 
C    -1.9958707    0.6211347    2.2963859 
C    -2.9105379    0.0228522   -1.3996928 
C    -2.5843752   -2.6904785   -0.3015575 
C     0.3462674   -0.6944542    3.6189463 
C     0.5961141    2.0074665    2.5402530 
C    -2.7616096    1.5428440   -1.2433854 
C    -2.0907295   -3.3723885   -1.5829209 
C    -0.1390506   -2.1488061    3.5374053 
C     0.3465133    3.0400754    1.4324609 
H    -3.8419912   -0.1300993    1.3770420 
H    -2.8464866   -1.3859485    2.1393242 
H    -2.1793000    1.6144763    1.8500875 
H    -2.2972744    0.6798362    3.3580065 
H    -2.4745406   -0.3072355   -2.3604231 
H    -3.9729881   -0.2847518   -1.3903035 
H    -2.2211175   -3.2316023    0.5915912 
H    -3.6900148   -2.6820947   -0.2497243 
H     1.4511753   -0.6511361    3.6321496 
H    -0.0083778   -0.1985489    4.5419567 
H     0.2088937    2.3526854    3.5172388 
H     1.6794898    1.8258364    2.6614136 
H    -3.2862008    1.9155394   -0.3461634 
H    -1.6983781    1.8314608   -1.1666196 
H    -3.1905520    2.0581987   -2.1189971 
H    -2.4274605   -2.8425447   -2.4895952 
H    -0.9890595   -3.4174400   -1.6051027 
H    -2.4754632   -4.4051036   -1.6318422 
H    -1.2386108   -2.2177766    3.6021125 
H     0.1804696   -2.6223760    2.5915255 
H     0.2768549   -2.7379978    4.3719510 
H     0.6846219    2.6548858    0.4544667 
H    -0.7212718    3.3064940    1.3448419 
H     0.9065556    3.9659148    1.6450629 
