65
Energy =
C     0.9302939   -1.0327436   -2.0613645 
C     1.8630736   -0.1538797   -1.4492166 
C     2.4151428   -0.4554776   -0.1712934 
H     2.0184496    0.8415147   -1.8839977 
Pd    0.1992541   -0.3754168   -0.0337548 
P    -0.0254982    0.1798523    2.2121460 
P    -2.1291682   -0.4339265   -0.1278907 
H     0.9988761   -2.0989473   -1.7946868 
H     2.5076764   -1.5204411    0.0933188 
C    -1.0959531   -0.2869256   -5.7850163 
C    -0.7217234    0.7938690   -4.9681903 
C    -0.0676706    0.5661456   -3.7529540 
C     0.2300975   -0.7501817   -3.3295785 
C    -0.1594795   -1.8279902   -4.1564792 
C    -0.8130997   -1.5982219   -5.3743889 
H    -1.6086560   -0.1059715   -6.7350500 
H    -0.9466728    1.8190584   -5.2802515 
H     0.1965733    1.4170496   -3.1147992 
H     0.0625800   -2.8541632   -3.8424510 
H    -1.1003746   -2.4454631   -6.0054410 
C     4.8133879    2.1568830    2.2765172 
C     4.1082971    2.6841600    1.1810441 
C     3.3379964    1.8475529    0.3663260 
C     3.2582920    0.4590737    0.6250451 
C     3.9888133   -0.0595129    1.7192990 
C     4.7540752    0.7798783    2.5393990 
H     5.4125919    2.8148233    2.9138899 
H     4.1575192    3.7561085    0.9632794 
H     2.7815576    2.2840824   -0.4693722 
H     3.9615197   -1.1371323    1.9192451 
H     5.3134977    0.3562727    3.3798860 
C    -2.7095103    0.5031521    1.3831672 
C    -1.8536072    0.1781722    2.6193903 
C    -3.0845902    0.3922405   -1.4958197 
C    -2.8582364   -2.1316806    0.0862223 
C     0.7466599   -0.9743822    3.4381576 
C     0.6162553    1.8592852    2.6529189 
C    -3.4029426   -0.4751393   -2.7210866 
C    -2.1716702   -3.2102789   -0.7661555 
C     0.5118044   -0.6522718    4.9220228 
C     0.1295207    2.9718621    1.7143220 
H    -2.6332436    1.5746552    1.1239304 
H    -3.7778411    0.2855733    1.5665967 
H    -2.0607116    0.8817179    3.4451132 
H    -2.0858995   -0.8361548    2.9937444 
H    -4.0178284    0.7708653   -1.0373047 
H    -2.4846048    1.2727578   -1.7889504 
H    -2.7561694   -2.3739634    1.1600914 
H    -3.9417556   -2.0680679   -0.1259887 
H     0.3674221   -1.9806251    3.1809703 
H     1.8252474   -0.9711465    3.1972703 
H     0.3421551    2.0706639    3.7024837 
H     1.7172315    1.7698659    2.6093729 
H    -2.4913725   -0.8744235   -3.1908959 
H    -4.0648210   -1.3187709   -2.4619210 
H    -3.9259063    0.1368234   -3.4749085 
H    -2.2202621   -2.9775557   -1.8426603 
H    -1.1066643   -3.3049708   -0.4898534 
H    -2.6562417   -4.1884364   -0.6063512 
H     0.9509493    0.3196711    5.2027343 
H    -0.5625766   -0.6325798    5.1742931 
H     0.9868773   -1.4248481    5.5507689 
H     0.3464990    2.7230790    0.6603145 
H    -0.9563235    3.1455979    1.8112295 
H     0.6408879    3.9193831    1.9535623 
