65
Energy =
C     0.9739628   -0.8787480   -2.2196800 
C     1.8841087   -0.0316088   -1.5323760 
C     2.4280483   -0.4122574   -0.2730108 
H     2.0262054    0.9949472   -1.8931288 
Pd    0.2070749   -0.3871174   -0.1585814 
P    -0.0496226    0.0327332    2.1126439 
P    -2.1172876   -0.5043173   -0.2908733 
H     1.0609454   -1.9613186   -2.0370586 
H     2.5331582   -1.4913864   -0.0797411 
C    -1.0119193    0.1373641   -5.9016625 
C    -0.7027852   -1.1975048   -5.6009138 
C    -0.0629785   -1.5169559   -4.3959409 
C     0.2861359   -0.5063676   -3.4719942 
C    -0.0377226    0.8344238   -3.7854796 
C    -0.6778302    1.1515768   -4.9879220 
H    -1.5136582    0.3880039   -6.8416922 
H    -0.9584913   -1.9932336   -6.3080540 
H     0.1806252   -2.5610929   -4.1690150 
H     0.1948048    1.6325892   -3.0712048 
H    -0.9232312    2.1944947   -5.2140665 
C     4.7668991    2.0613662    2.3686719 
C     4.0652133    2.6516089    1.3035201 
C     3.3136988    1.8615022    0.4271950 
C     3.2497956    0.4579352    0.5922980 
C     3.9767124   -0.1231588    1.6571662 
C     4.7232017    0.6693297    2.5389418 
H     5.3514170    2.6828844    3.0544045 
H     4.1022264    3.7362238    1.1580781 
H     2.7595962    2.3458193   -0.3833488 
H     3.9620706   -1.2119524    1.7847143 
H     5.2802938    0.1977496    3.3550663 
C    -2.7470634    0.2981248    1.2799379 
C    -1.8793314   -0.0125903    2.5120171 
C    -3.0633974    0.4205773   -1.6017041 
C    -2.8121916   -2.2249514   -0.3139755 
C     0.7276413   -1.1817918    3.2754706 
C     0.5603016    1.6941358    2.6541209 
C    -3.3427026   -0.3567057   -2.8957280 
C    -2.2196495   -3.1664545    0.7449091 
C     0.4837607   -0.9454367    4.7738069 
C     0.0502120    2.8454892    1.7766003 
H    -2.7415470    1.3835231    1.0698918 
H    -3.7998883    0.0049000    1.4465434 
H    -2.0988457    0.6878801    3.3371652 
H    -2.0887104   -1.0292847    2.8878193 
H    -4.0098485    0.7547505   -1.1362577 
H    -2.4665311    1.3261717   -1.8131209 
H    -3.9125172   -2.1555001   -0.2229268 
H    -2.5937098   -2.6094601   -1.3266411 
H     0.3556306   -2.1739593    2.9596723 
H     1.8072015   -1.1573315    3.0406022 
H     0.2762425    1.8395354    3.7122380 
H     1.6630171    1.6323347    2.6119236 
H    -2.4202405   -0.7626780   -3.3396624 
H    -4.0472381   -1.1880423   -2.7257375 
H    -3.7981791    0.3196797   -3.6380113 
H    -1.1156928   -3.1827459    0.6911949 
H    -2.5111864   -2.8725153    1.7674707 
H    -2.5828554   -4.1953809    0.5835273 
H     0.9154248    0.0118032    5.1109007 
H    -0.5919456   -0.9462112    5.0214200 
H     0.9605061   -1.7494095    5.3605206 
H     0.2889842    2.6674936    0.7129655 
H    -1.0424017    2.9772907    1.8663876 
H     0.5260836    3.7932274    2.0797039 
