65
Energy =
C     1.2390905   -1.0632245   -1.9680943 
C     2.0921958   -0.0973887   -1.3572070 
C     2.6387881   -0.3385470   -0.0675618 
H     2.1562693    0.9093239   -1.7879202 
Pd    0.4110055   -0.4634580    0.0043420 
P    -0.0800741    0.2798657    2.1432135 
P    -1.8484134   -0.9029695   -0.2659296 
H     1.4199122   -2.1201600   -1.7180061 
H     2.7751816   -1.3917075    0.2254279 
C    -1.2187919   -0.4934152   -5.4618584 
C    -0.6545459    0.6218297   -4.8192422 
C     0.1607347    0.4531266   -3.6949952 
C     0.4372968   -0.8384257   -3.1884070 
C    -0.1253898   -1.9515987   -3.8546761 
C    -0.9475349   -1.7815513   -4.9763276 
H    -1.8585793   -0.3579805   -6.3396426 
H    -0.8552078    1.6301814   -5.1959844 
H     0.5711674    1.3381415   -3.1975258 
H     0.0939217   -2.9618013   -3.4894649 
H    -1.3700758   -2.6580673   -5.4783915 
C     4.6996891    2.4326935    2.5046605 
C     4.6027440    1.0728934    2.8394468 
C     3.9527780    0.1827121    1.9758944 
C     3.3779208    0.6313834    0.7632905 
C     3.4996715    2.0003216    0.4319384 
C     4.1526645    2.8888304    1.2935612 
H     5.2086644    3.1311656    3.1763810 
H     5.0414234    0.7040315    3.7723266 
H     3.8859870   -0.8796944    2.2386225 
H     3.0779565    2.3807465   -0.5039286 
H     4.2375544    3.9452146    1.0184343 
C    -2.6726901   -0.6316687    1.3957032 
C    -1.9443345    0.4240627    2.2514088 
C    -2.6943585    0.1996463   -1.4888108 
C    -2.3126634   -2.6259678   -0.7623241 
C     0.4567727   -0.8049173    3.5442599 
C     0.5732755    1.9513033    2.5952621 
C    -2.3967922    1.6916053   -1.2866442 
C    -3.8152457   -2.9390120   -0.8332635 
C     0.0252188   -2.2716000    3.4044751 
C     0.2811300    3.0253211    1.5387592 
H    -3.7341130   -0.3609031    1.2535215 
H    -2.6541230   -1.6149934    1.8992596 
H    -2.1873474    1.4399272    1.8934298 
H    -2.2629261    0.3682317    3.3081359 
H    -2.3277790   -0.1357937   -2.4769117 
H    -3.7802213   -0.0025492   -1.4510783 
H    -1.8265557   -2.7813612   -1.7432082 
H    -1.7980766   -3.2914263   -0.0447321 
H     1.5593434   -0.7204862    3.5600162 
H     0.0837829   -0.3603630    4.4860061 
H     0.1661666    2.2282616    3.5857970 
H     1.6641155    1.8150661    2.7131902 
H    -2.8214317    2.0711248   -0.3409879 
H    -1.3088331    1.8796422   -1.2755881 
H    -2.8371462    2.2804531   -2.1087916 
H    -4.3154426   -2.7768893    0.1371026 
H    -4.3255097   -2.3230794   -1.5927069 
H    -3.9627020   -3.9969395   -1.1106221 
H    -1.0713447   -2.3825226    3.4636447 
H     0.3628285   -2.6961016    2.4417088 
H     0.4612431   -2.8775342    4.2164663 
H     0.6557793    2.7123816    0.5487640 
H    -0.7985677    3.2363409    1.4463651 
H     0.7845440    3.9682690    1.8100171 
