65
Energy =
C     1.0088296   -1.0745370   -1.9208583 
C     1.8975826   -0.1330484   -1.3376689 
C     2.4108036   -0.3387146   -0.0244722 
H     2.0378358    0.8422129   -1.8195056 
Pd    0.1913790   -0.3094568    0.0398092 
P    -0.1424498    0.3112177    2.2499874 
P    -2.1142003   -0.5290962   -0.1087944 
H     1.0747689   -2.1108325   -1.5539202 
H     2.5212765   -1.3825553    0.3082272 
C    -1.0929008   -0.7238794   -5.6636206 
C    -0.3442221    0.3643907   -5.1852010 
C     0.3522642    0.2673805   -3.9762178 
C     0.3194140   -0.9245467   -3.2166540 
C    -0.4191614   -2.0193489   -3.7231878 
C    -1.1230723   -1.9195049   -4.9294406 
H    -1.6380228   -0.6435774   -6.6094587 
H    -0.3036093    1.2952844   -5.7601129 
H     0.9236115    1.1316296   -3.6222260 
H    -0.4347853   -2.9605849   -3.1616453 
H    -1.6875582   -2.7800335   -5.3033094 
C     4.6258384    2.4720001    2.3750153 
C     3.9498917    2.9202495    1.2273016 
C     3.2410018    2.0187685    0.4260763 
C     3.1939006    0.6434226    0.7523482 
C     3.8932608    0.2046140    1.9006277 
C     4.5986318    1.1085493    2.7056252 
H     5.1771392    3.1805289    3.0012466 
H     3.9738559    3.9811984    0.9576113 
H     2.7073898    2.3936542   -0.4535111 
H     3.8874420   -0.8614673    2.1564718 
H     5.1352128    0.7464199    3.5886402 
C    -2.7472267   -0.6289449    1.6461951 
C    -1.9900603    0.3517379    2.5618763 
C    -3.0034451    0.9323280   -0.8250500 
C    -2.8192983   -1.9997815   -0.9789701 
C     0.5706401   -0.8479717    3.5044960 
C     0.4908606    1.9752865    2.7488981 
C    -2.4965026    1.3304431   -2.2178254 
C    -2.1975762   -3.3299062   -0.5307479 
C     0.1595552   -2.3134944    3.3037172 
C     0.0677660    3.0938711    1.7869180 
H    -3.8356730   -0.4378388    1.6656348 
H    -2.5901089   -1.6705201    1.9774531 
H    -2.3170907    1.3893519    2.3680509 
H    -2.1922369    0.1446485    3.6280912 
H    -4.0835853    0.6923192   -0.8334455 
H    -2.8595364    1.7628206   -0.1096041 
H    -3.9162656   -1.9927263   -0.8367050 
H    -2.6253541   -1.8258708   -2.0532323 
H     1.6657910   -0.7290089    3.4107919 
H     0.2887197   -0.4811677    4.5092440 
H     0.1612785    2.1769648    3.7853586 
H     1.5918629    1.8762955    2.7652067 
H    -1.4321103    1.6165645   -2.1792092 
H    -2.5919385    0.5078888   -2.9471365 
H    -3.0723164    2.1896278   -2.6013755 
H    -1.0992562   -3.3119187   -0.6439045 
H    -2.4249831   -3.5580093    0.5249985 
H    -2.5908191   -4.1599207   -1.1415262 
H    -0.9214143   -2.4612727    3.4714401 
H     0.3980764   -2.6579943    2.2811398 
H     0.6948255   -2.9620062    4.0174698 
H     0.3737583    2.8576521    0.7527805 
H    -1.0246835    3.2562167    1.7934282 
H     0.5469990    4.0439989    2.0763603 
