65
Energy =
C     1.0774359   -1.0724998   -2.0034119 
C     1.9722279   -0.1474560   -1.3886263 
C     2.4959555   -0.4120002   -0.0939420 
H     2.0874494    0.8542343   -1.8204243 
Pd    0.2640332   -0.4277704   -0.0425320 
P    -0.2090544    0.3263633    2.0974602 
P    -2.0110912   -0.7434772   -0.3411496 
H     1.2068400   -2.1362278   -1.7503984 
H     2.5809793   -1.4699930    0.2012003 
C    -1.3285194   -0.4020214   -5.5150422 
C    -0.7131502    0.6878181   -4.8759676 
C     0.0858222    0.4860504   -3.7452582 
C     0.2943941   -0.8144567   -3.2294682 
C    -0.3208930   -1.9023379   -3.8906339 
C    -1.1263036   -1.6988543   -5.0187818 
H    -1.9550400   -0.2406942   -6.3979860 
H    -0.8605941    1.7023687   -5.2605452 
H     0.5371139    1.3526282   -3.2505717 
H    -0.1591779   -2.9190486   -3.5136169 
H    -1.5906166   -2.5561590   -5.5171225 
C     4.6607541    2.2646165    2.4931716 
C     4.5049884    0.9095280    2.8247020 
C     3.8215565    0.0492212    1.9566358 
C     3.2715326    0.5240818    0.7425496 
C     3.4516625    1.8875007    0.4149664 
C     4.1380899    2.7459160    1.2810177 
H     5.1958074    2.9397040    3.1685225 
H     4.9238216    0.5206136    3.7585486 
H     3.7093229   -1.0100225    2.2166297 
H     3.0490858    2.2874317   -0.5212147 
H     4.2678727    3.7985037    1.0088840 
C    -2.8310161   -0.4698239    1.3205761 
C    -2.0675339    0.5411453    2.1991307 
C    -2.8097021    0.4098408   -1.5475911 
C    -2.5771207   -2.4164728   -0.8950553 
C     0.2816441   -0.7805739    3.4980911 
C     0.5070899    1.9694659    2.5586624 
C    -2.4852740    1.8901987   -1.3082098 
C    -1.9008336   -3.5751847   -0.1499428 
C    -0.2069852   -2.2287484    3.3573780 
C     0.2640653    3.0583202    1.5051794 
H    -3.8801340   -0.1560059    1.1718838 
H    -2.8560601   -1.4604823    1.8083306 
H    -2.2690111    1.5721302    1.8590514 
H    -2.3930857    0.4785847    3.2532966 
H    -2.4336938    0.0901417   -2.5372223 
H    -3.8996667    0.2217925   -1.5311170 
H    -3.6785576   -2.4561438   -0.7998619 
H    -2.3418037   -2.4557054   -1.9744660 
H     1.3866111   -0.7391466    3.5158494 
H    -0.0753100   -0.3215191    4.4391213 
H     0.1055936    2.2584109    3.5480832 
H     1.5910002    1.7895205    2.6822637 
H    -2.9097532    2.2571139   -0.3575686 
H    -1.3935923    2.0551351   -1.2850081 
H    -2.9067959    2.5067647   -2.1198218 
H    -0.8033986   -3.5326108   -0.2680200 
H    -2.1260441   -3.5608485    0.9307292 
H    -2.2514492   -4.5421593   -0.5483284 
H    -1.3075413   -2.2951230    3.4089992 
H     0.1186115   -2.6680612    2.3976097 
H     0.1985949   -2.8500549    4.1735113 
H     0.6363656    2.7366020    0.5170560 
H    -0.8063072    3.3088390    1.4040025 
H     0.7987888    3.9810974    1.7858128 
