65
Energy =
C     1.0956121   -1.1849556   -2.0490965 
C     2.0008621   -0.2425727   -1.4792296 
C     2.4953167   -0.4332098   -0.1595611 
H     2.1495356    0.7246958   -1.9746665 
Pd    0.2644376   -0.3941141   -0.1488179 
P    -0.2273117    0.4421964    1.9589512 
P    -2.0131741   -0.6398082   -0.4862541 
H     1.1914787   -2.2309635   -1.7186748 
H     2.5621429   -1.4717051    0.2015064 
C    -1.1953786   -0.7171344   -5.6684623 
C    -1.0215597   -1.9816773   -5.0860174 
C    -0.2555838   -2.1198213   -3.9210496 
C     0.3486153   -0.9972722   -3.3098123 
C     0.1676097    0.2703008   -3.9111028 
C    -0.5923999    0.4065479   -5.0778690 
H    -1.7911857   -0.6068886   -6.5800694 
H    -1.4773116   -2.8651355   -5.5450085 
H    -0.1164130   -3.1118733   -3.4756158 
H     0.6097839    1.1628130   -3.4556392 
H    -0.7189734    1.3961406   -5.5292033 
C     4.6731888    2.3746726    2.2731957 
C     4.1227799    2.7977265    1.0514217 
C     3.4278810    1.8962533    0.2376287 
C     3.2726387    0.5451769    0.6255281 
C     3.8441201    0.1305732    1.8511854 
C     4.5332473    1.0354053    2.6686532 
H     5.2143337    3.0834926    2.9079575 
H     4.2348706    3.8391597    0.7325624 
H     2.9932128    2.2530685   -0.7017791 
H     3.7453915   -0.9165834    2.1608548 
H     4.9698087    0.6925610    3.6124224 
C    -2.8554237   -0.3105546    1.1532689 
C    -2.0831145    0.7000402    2.0245226 
C    -2.7365550    0.5333242   -1.7213427 
C    -2.6381322   -2.2932499   -1.0344587 
C     0.2159105   -0.6805689    3.3649700 
C     0.5057659    2.0836574    2.4006042 
C    -2.3443300    2.0001427   -1.4978053 
C    -2.0236810   -3.4711612   -0.2663155 
C    -0.2529731   -2.1306545    3.1797611 
C     0.0701563    2.6904950    3.7430590 
H    -3.8934986    0.0261995    0.9791453 
H    -2.9144584   -1.2892059    1.6619296 
H    -2.2497716    1.7294344    1.6591425 
H    -2.4338542    0.6674551    3.0714489 
H    -2.3602281    0.1814995   -2.6999708 
H    -3.8345366    0.3987692   -1.7208362 
H    -3.7417663   -2.2864066   -0.9590695 
H    -2.3846573   -2.3539839   -2.1087846 
H     1.3192786   -0.6302070    3.4260873 
H    -0.1826034   -0.2482486    4.3007782 
H     1.6005690    1.9371364    2.3640624 
H     0.2567883    2.7539108    1.5574655 
H    -2.7668234    2.4020414   -0.5605619 
H    -1.2458585    2.1121082   -1.4577443 
H    -2.7213641    2.6244482   -2.3252821 
H    -0.9237068   -3.4752532   -0.3654951 
H    -2.2665099   -3.4367644    0.8100576 
H    -2.4071842   -4.4267281   -0.6619396 
H    -1.3539386   -2.2073872    3.1888666 
H     0.1114189   -2.5497659    2.2247583 
H     0.1276477   -2.7631684    3.9993778 
H    -1.0215377    2.8455395    3.7932131 
H     0.3686760    2.0564221    4.5948583 
H     0.5527196    3.6736149    3.8782908 
