65
Energy =
C     1.0215561   -1.1287838   -1.9672873 
C     1.9281851   -0.2243870   -1.3534978 
C     2.4192628   -0.4679630   -0.0386732 
H     2.1078326    0.7496193   -1.8257007 
Pd    0.2002723   -0.3764052   -0.0074773 
P    -0.1244097    0.2743173    2.2006196 
P    -2.1219805   -0.4269713   -0.2073028 
H     1.0715939   -2.1813249   -1.6474820 
H     2.4963676   -1.5198680    0.2778986 
C    -0.8258133   -0.5617798   -5.8136021 
C    -0.4749278    0.5573227   -5.0390815 
C     0.1205944    0.3884698   -3.7847631 
C     0.3826062   -0.9061964   -3.2789916 
C     0.0171631   -2.0227256   -4.0647081 
C    -0.5783253   -1.8520189   -5.3214872 
H    -1.2929309   -0.4267054   -6.7942764 
H    -0.6720717    1.5665477   -5.4153326 
H     0.3667987    1.2699283   -3.1819099 
H     0.2120703   -3.0328397   -3.6869520 
H    -0.8476640   -2.7289290   -5.9190166 
C     4.7048460    2.2529023    2.3987749 
C     4.6306423    0.8891690    2.7205011 
C     3.9036248    0.0132631    1.9037704 
C     3.2267730    0.4815523    0.7537536 
C     3.3215508    1.8568758    0.4363750 
C     4.0537734    2.7297733    1.2481457 
H     5.2740793    2.9392555    3.0336411 
H     5.1488460    0.5042112    3.6048484 
H     3.8648913   -1.0542082    2.1507215 
H     2.8059400    2.2550683   -0.4434743 
H     4.1150388    3.7908204    0.9848290 
C    -2.7641368    0.5763633    1.2345222 
C    -1.9693335    0.2980495    2.5219762 
C    -3.0041419    0.3484309   -1.6519162 
C    -2.8748029   -2.1090668    0.0423684 
C     0.5828082   -0.8314683    3.5078268 
C     0.5064359    1.9677447    2.6009491 
C    -3.2740945   -0.5669911   -2.8536738 
C    -2.1595941   -3.2265319   -0.7330942 
C     0.2794244   -0.4481239    4.9645417 
C     0.0683814    3.0429554    1.5970672 
H    -2.6668173    1.6355788    0.9349262 
H    -3.8416430    0.3736856    1.3767685 
H    -2.2098578    1.0361338    3.3075072 
H    -2.2260601   -0.6987539    2.9262304 
H    -3.9538644    0.7542083   -1.2545143 
H    -2.3816061    1.2104864   -1.9528755 
H    -2.8237258   -2.3077702    1.1287473 
H    -3.9469987   -2.0474053   -0.2216807 
H     0.2107162   -1.8461174    3.2742618 
H     1.6716500   -0.8418990    3.3189635 
H     0.1868142    2.2231514    3.6275677 
H     1.6076772    1.8724040    2.6105600 
H    -2.3459793   -0.9937951   -3.2630956 
H    -3.9565386   -1.3929951   -2.5909985 
H    -3.7546101    0.0173706   -3.6560953 
H    -2.1576616   -3.0382368   -1.8193465 
H    -1.1090265   -3.3167671   -0.4049283 
H    -2.6593449   -4.1939086   -0.5554271 
H     0.7095694    0.5331558    5.2260679 
H    -0.8055972   -0.4150628    5.1644135 
H     0.7203913   -1.1958460    5.6459765 
H     0.3294962    2.7501694    0.5645719 
H    -1.0194362    3.2259457    1.6393743 
H     0.5753215    3.9969153    1.8195950 
