65
Energy =
C     1.0374614   -1.1614632   -1.9033321 
C     1.9374754   -0.2423165   -1.2864669 
C     2.4678021   -0.5019519    0.0035565 
H     2.0658012    0.7530993   -1.7296820 
Pd    0.2338426   -0.4923852    0.0778736 
P    -0.1669786    0.4638212    2.1537790 
P    -2.0561665   -0.8544273   -0.0798363 
H     1.1725358   -2.2285631   -1.6705485 
H     2.5157488   -1.5568690    0.3187424 
C    -1.1754528   -0.3773504   -5.5188644 
C    -0.8663763   -1.6926712   -5.1406982 
C    -0.1357664   -1.9362135   -3.9705027 
C     0.2989950   -0.8711317   -3.1505213 
C    -0.0147434    0.4498633   -3.5490717 
C    -0.7410680    0.6934039   -4.7194408 
H    -1.7467908   -0.1860557   -6.4327702 
H    -1.1897015   -2.5332146   -5.7634368 
H     0.1091759   -2.9660871   -3.6888346 
H     0.2929303    1.2960565   -2.9249347 
H    -0.9751424    1.7234731   -5.0080555 
C     4.7779287    2.1347634    2.5021704 
C     4.5190440    0.8118777    2.8947205 
C     3.7881717   -0.0376321    2.0555522 
C     3.2916135    0.4172225    0.8108831 
C     3.5792266    1.7449969    0.4202881 
C     4.3128093    2.5926597    1.2580141 
H     5.3509075    2.8012574    3.1545764 
H     4.8945398    0.4397175    3.8534705 
H     3.5945865   -1.0722358    2.3625759 
H     3.2289898    2.1242706   -0.5448002 
H     4.5270944    3.6173421    0.9373104 
C    -2.8397929   -0.2664405    1.5206163 
C    -2.0032590    0.8118844    2.2328537 
C    -2.8881925    0.0765366   -1.4452385 
C    -2.6900155   -2.5929634   -0.2166741 
C     0.2639802   -0.5325142    3.6534561 
C     0.6396227    2.1026595    2.4524411 
C    -2.6759562    1.5945864   -1.3592716 
C    -2.2039768   -3.3545410   -1.4553773 
C    -0.2785840   -1.9686461    3.6321416 
C     0.4505779    3.0890012    1.2917901 
H    -3.8652746    0.0927315    1.3199892 
H    -2.9327718   -1.1645079    2.1562583 
H    -2.1394255    1.7894620    1.7376350 
H    -2.3170857    0.9329013    3.2855350 
H    -2.4540151   -0.3176489   -2.3823326 
H    -3.9629279   -0.1849888   -1.4375167 
H    -2.3634644   -3.1048301    0.7073346 
H    -3.7950925   -2.5378957   -0.1852171 
H     1.3693970   -0.5325731    3.6825745 
H    -0.0834726    0.0203857    4.5463079 
H     0.2514886    2.5107347    3.4045405 
H     1.7125702    1.8836625    2.6017038 
H    -3.1952285    2.0319778   -0.4885549 
H    -1.6023260    1.8410218   -1.2806951 
H    -3.0712524    2.0849844   -2.2645642 
H    -2.5050222   -2.8561674   -2.3919179 
H    -1.1047569   -3.4434293   -1.4560645 
H    -2.6287531   -4.3725847   -1.4619469 
H    -1.3808716   -1.9906145    3.6820665 
H     0.0352062   -2.4988315    2.7148290 
H     0.1009005   -2.5337715    4.5000421 
H     0.7896098    2.6433439    0.3402203 
H    -0.6039956    3.3924594    1.1711107 
H     1.0436672    4.0013589    1.4702090 
