77
Energy =
C     1.2257146   -0.9928281   -2.6492195 
C     1.9574190    0.1854849   -2.3186487 
C     2.8548832    0.1789445   -1.2151142 
H     1.6589116    1.1411766   -2.7679975 
Pd    0.8297473   -0.4246338   -0.5447602 
P     0.4423745    0.2246661    1.6725723 
P    -1.3618560   -1.0093604   -0.0013075 
H     1.7135776   -1.9590199   -2.4465851 
H     3.3018677   -0.7871190   -0.9310125 
C    -2.1481668   -1.2454669   -5.3092517 
C    -1.3315954   -2.3638005   -5.0829064 
C    -0.2268808   -2.2660041   -4.2268649 
C     0.0842437   -1.0461171   -3.5837170 
C    -0.7488307    0.0725419   -3.8217267 
C    -1.8508137   -0.0272152   -4.6758552 
H    -3.0143662   -1.3223527   -5.9743353 
H    -1.5529599   -3.3149499   -5.5782367 
H     0.4106385   -3.1411681   -4.0563290 
H    -0.5546859    1.0187044   -3.3053160 
H    -2.4918317    0.8455438   -4.8347249 
C     4.6463894    3.6217319    0.6470170 
C     4.0192930    3.7597817   -0.6008937 
C     3.4518929    2.6473731   -1.2350657 
C     3.5031577    1.3707943   -0.6313314 
C     4.1619275    1.2414778    0.6138042 
C     4.7202115    2.3551940    1.2493002 
H     5.0865838    4.4936009    1.1413292 
H     3.9781238    4.7397752   -1.0877890 
H     2.9774900    2.7755448   -2.2136224 
H     4.2139697    0.2567258    1.0926640 
H     5.2204396    2.2355615    2.2161704 
N    -1.1859198   -0.3696952    1.5911006 
C     1.2211985   -0.5767781    3.1096730 
C     0.3945870    2.0058319    2.0539331 
C    -2.6646375   -0.0516038   -0.8474921 
C    -1.9510112   -2.7252220    0.1215516 
C     0.8270056   -1.8791385    3.4820356 
C     0.6934368    2.9175014    1.0215028 
C    -3.7461449   -0.6558684   -1.5162601 
C    -2.4317653   -3.2699820    1.3280777 
C     2.3054166    0.0453641    3.7673008 
C     0.0445053    2.4833304    3.3359771 
C    -2.5006947    1.3509894   -0.8977670 
C    -1.8850393   -3.5272605   -1.0388928 
C     1.4965348   -2.5410089    4.5193912 
C     0.6434551    4.2962250    1.2665612 
C    -4.6549693    0.1388715   -2.2297447 
C    -2.8550186   -4.6060916    1.3691442 
C     2.9722486   -0.6278250    4.7995805 
C    -0.0148736    3.8626084    3.5705632 
C    -3.4168257    2.1371969   -1.6046038 
C    -2.3174217   -4.8586385   -0.9899531 
C     2.5683412   -1.9177850    5.1780599 
C     0.2859238    4.7676308    2.5384216 
C    -4.4924672    1.5309395   -2.2759876 
C    -2.8010053   -5.3987992    0.2125691 
H    -1.9395615   -0.1602677    2.2546935 
H    -0.0026540   -2.3684086    2.9609961 
H     0.9857512    2.5408213    0.0352255 
H    -3.8801407   -1.7415803   -1.4838571 
H    -2.4748517   -2.6556274    2.2337383 
H     2.6210836    1.0533901    3.4773517 
H    -0.1691777    1.7799896    4.1487119 
H    -1.6570628    1.8232147   -0.3802392 
H    -1.5002583   -3.1091215   -1.9766048 
H     1.1816565   -3.5474728    4.8135921 
H     0.8945476    4.9998928    0.4666398 
H    -5.4949958   -0.3340584   -2.7484910 
H    -3.2299714   -5.0280428    2.3072318 
H     3.8070402   -0.1407219    5.3140238 
H    -0.2897119    4.2342527    4.5630382 
H    -3.2921028    3.2246016   -1.6343755 
H    -2.2703008   -5.4780567   -1.8915012 
H     3.0899468   -2.4384788    5.9876124 
H     0.2474375    5.8448155    2.7311918 
H    -5.2057987    2.1469766   -2.8332793 
H    -3.1326040   -6.4414983    0.2493134 
