77
Energy =
C     1.1985686   -0.8226472   -2.7510088 
C     1.9351137    0.3299965   -2.3504144 
C     2.8322907    0.2647268   -1.2452659 
H     1.6535790    1.3106479   -2.7537177 
Pd    0.8062271   -0.3684041   -0.6194865 
P     0.4001131    0.3498446    1.5630728 
P    -1.4094003   -0.8772687   -0.0891512 
H     1.6705828   -1.8042447   -2.5871220 
H     3.3267142   -0.7009298   -1.0547491 
C    -2.0364080   -0.8674485   -5.5902679 
C    -1.3434119   -2.0459027   -5.2767096 
C    -0.2965502   -2.0191010   -4.3465028 
C     0.0813650   -0.8125798   -3.7148410 
C    -0.6458608    0.3624459   -4.0212645 
C    -1.6863357    0.3349861   -4.9536128 
H    -2.8515223   -0.8855863   -6.3209787 
H    -1.6121475   -2.9884566   -5.7649078 
H     0.2494732   -2.9407379   -4.1144727 
H    -0.4065393    1.3034541   -3.5148478 
H    -2.2376500    1.2538705   -5.1763000 
C     4.7272471    3.6216009    0.6695657 
C     5.2296634    2.3231550    0.8395597 
C     4.6011543    1.2393305    0.2135739 
C     3.4601925    1.4323309   -0.5978744 
C     2.9501172    2.7450304   -0.7382963 
C     3.5819346    3.8260208   -0.1178732 
H     5.2199882    4.4707201    1.1541661 
H     6.1197580    2.1539266    1.4544319 
H     5.0046853    0.2281676    0.3408188 
H     2.0434309    2.9219523   -1.3262562 
H     3.1720912    4.8337171   -0.2379722 
N    -1.3084508    0.1591493    1.3030616 
C     0.8916221   -0.6515562    3.0047178 
C     0.6784114    2.0843639    2.0263284 
C    -2.7732364   -0.2606415   -1.1182993 
C    -1.8977018   -2.5469106    0.4563954 
C     0.5287958   -0.2857529    4.3192532 
C    -0.1617284    3.0968918    1.5180083 
C    -3.1374070    1.1011435   -1.0862206 
C    -0.9065765   -3.5466008    0.5247529 
C     1.5998735   -1.8489610    2.7797519 
C     1.8256495    2.4317103    2.7708719 
C    -3.3689408   -1.1256602   -2.0610348 
C    -3.2176513   -2.8363865    0.8653132 
C     0.8655345   -1.1209069    5.3916871 
C     0.1277056    4.4419217    1.7798524 
C    -4.1095370    1.5852339   -1.9710827 
C    -1.2282415   -4.8231765    1.0050967 
C     1.9376010   -2.6786864    3.8575585 
C     2.1112135    3.7794103    3.0209318 
C    -4.3341555   -0.6312969   -2.9461436 
C    -3.5321825   -4.1130100    1.3474817 
C     1.5677128   -2.3158302    5.1612876 
C     1.2633515    4.7842465    2.5309704 
C    -4.7077918    0.7205994   -2.9011580 
C    -2.5392041   -5.1043515    1.4184228 
H    -2.0227169    0.2217492    2.0387004 
H    -0.0068205    0.6525237    4.5031301 
H    -1.0418201    2.8257087    0.9265297 
H    -2.6652064    1.7724775   -0.3620274 
H     0.1139304   -3.3189225    0.1947496 
H     1.8882213   -2.1219235    1.7576690 
H     2.4952715    1.6533752    3.1510760 
H    -3.0776750   -2.1802391   -2.1061911 
H    -3.9968744   -2.0687331    0.7980639 
H     0.5836695   -0.8382196    6.4111597 
H    -0.5347122    5.2251717    1.3971123 
H    -4.4017366    2.6397310   -1.9337408 
H    -0.4578853   -5.5995350    1.0530161 
H     2.4921325   -3.6059269    3.6810447 
H     3.0028415    4.0444279    3.5976000 
H    -4.7919216   -1.3048205   -3.6772438 
H    -4.5554722   -4.3377867    1.6653386 
H     1.8318873   -2.9632235    6.0038733 
H     1.4887957    5.8366110    2.7320248 
H    -5.4655110    1.1020190   -3.5933420 
H    -2.7915272   -6.1020245    1.7923573 
