77
Energy =
C     1.1800251   -0.9987461   -2.6276694 
C     1.9991322    0.1236031   -2.3007072 
C     2.8789812    0.0603641   -1.1853966 
H     1.7952497    1.0916411   -2.7745947 
Pd    0.7895276   -0.3744339   -0.5490610 
P     0.3330541    0.4186680    1.6075242 
P    -1.4294286   -0.8734082   -0.0611349 
H     1.5882329   -1.9971502   -2.4053787 
H     3.2552440   -0.9361393   -0.9038930 
C    -2.0912742   -1.0170263   -5.4253755 
C    -1.6549082    0.1989987   -4.8737571 
C    -0.5970772    0.2202321   -3.9608071 
C     0.0598854   -0.9767601   -3.5885477 
C    -0.4027182   -2.1946127   -4.1363029 
C    -1.4660902   -2.2144315   -5.0476208 
H    -2.9206320   -1.0302767   -6.1399381 
H    -2.1523661    1.1347720   -5.1471139 
H    -0.2910915    1.1742924   -3.5185701 
H     0.0875469   -3.1325591   -3.8509449 
H    -1.8020529   -3.1672325   -5.4698259 
C     5.1229657    3.2909640    0.5619020 
C     5.3830092    1.9581718    0.9184703 
C     4.6476874    0.9196463    0.3348088 
C     3.6334392    1.1903152   -0.6133834 
C     3.3725221    2.5390845   -0.9502802 
C     4.1148085    3.5749179   -0.3740175 
H     5.7032248    4.1042110    1.0099175 
H     6.1678681    1.7266899    1.6459516 
H     4.8593274   -0.1195154    0.6114855 
H     2.5782050    2.7852763   -1.6622290 
H     3.9000938    4.6122213   -0.6503817 
N    -1.3507926    0.0584858    1.3972415 
C     0.9190279   -0.4516385    3.0996595 
C     0.4554423    2.1970729    1.9673137 
C    -2.7573475   -0.1708208   -1.0828057 
C    -1.9276851   -2.5765533    0.3513322 
C     1.2820919   -1.8089909    2.9648732 
C    -0.6781262    3.0343269    1.9751601 
C    -2.9121724    1.2317492   -1.1299056 
C    -3.2073136   -2.8650418    0.8734052 
C     0.9803726    0.1698110    4.3642365 
C     1.7399914    2.7476728    2.1686161 
C    -3.5159133   -0.9915095   -1.9427808 
C    -0.9876842   -3.6131648    0.1842534 
C     1.6888719   -2.5408060    4.0866467 
C    -0.5287309    4.4089979    2.2066626 
C    -3.8429138    1.8015365   -2.0065376 
C    -3.5319460   -4.1788381    1.2331685 
C     1.3940897   -0.5679386    5.4820976 
C     1.8786860    4.1219581    2.3971937 
C    -4.4387064   -0.4110832   -2.8226268 
C    -1.3208666   -4.9276101    0.5399956 
C     1.7457305   -1.9197345    5.3450430 
C     0.7474052    4.9529923    2.4186047 
C    -4.6070326    0.9810963   -2.8526856 
C    -2.5902896   -5.2083578    1.0670297 
H    -2.0652269    0.0804526    2.1334931 
H     1.2429304   -2.2867499    1.9784418 
H    -1.6733799    2.6108281    1.8052125 
H    -2.3035963    1.8694409   -0.4797813 
H    -3.9499943   -2.0673445    0.9897633 
H     0.7104134    1.2257130    4.4729146 
H     2.6304334    2.1090932    2.1415971 
H    -3.3835000   -2.0780519   -1.9304511 
H     0.0011476   -3.3837829   -0.2312358 
H     1.9689513   -3.5937608    3.9798669 
H    -1.4118892    5.0560168    2.2224914 
H    -3.9710034    2.8886166   -2.0326875 
H    -4.5231971   -4.4026659    1.6405169 
H     1.4421916   -0.0849144    6.4634356 
H     2.8773013    4.5432379    2.5491895 
H    -5.0253990   -1.0507606   -3.4894120 
H    -0.5913459   -5.7325203    0.4042478 
H     2.0704484   -2.4905986    6.2211252 
H     0.8606544    6.0273159    2.5968057 
H    -5.3317985    1.4295874   -3.5399999 
H    -2.8507212   -6.2345419    1.3461462 
