77
Energy =
C     1.1844287   -0.9597557   -2.6781080 
C     2.0399700    0.1063410   -2.2807189 
C     2.8351962   -0.0228139   -1.1060899 
H     1.9120489    1.0965778   -2.7343352 
Pd    0.7083214   -0.3530520   -0.5998414 
P     0.3386665    0.3812784    1.5772632 
P    -1.4952127   -0.8985520   -0.0286845 
H     1.4834726   -1.9802830   -2.3917641 
H     3.1534804   -1.0406427   -0.8309391 
C    -2.0052373   -0.7893250   -5.5648545 
C    -1.7919664   -1.9409814   -4.7905159 
C    -0.7303349   -1.9889721   -3.8812637 
C     0.1342608   -0.8819090   -3.7134635 
C    -0.0837048    0.2657310   -4.5090128 
C    -1.1412748    0.3083026   -5.4258302 
H    -2.8330054   -0.7513434   -6.2801211 
H    -2.4535469   -2.8066622   -4.9008705 
H    -0.5717740   -2.8878121   -3.2740526 
H     0.5797142    1.1323604   -4.4213746 
H    -1.2887317    1.2027369   -6.0402091 
C     5.0335442    3.0530499    0.9531882 
C     5.1742301    1.7027587    1.3113095 
C     4.4580036    0.7164612    0.6231788 
C     3.5823122    1.0575648   -0.4343711 
C     3.4388564    2.4231407   -0.7725371 
C     4.1624366    3.4068840   -0.0901936 
H     5.5996470    3.8256306    1.4836372 
H     5.8505633    1.4165755    2.1233677 
H     4.5733317   -0.3362662    0.9054769 
H     2.7531840    2.7244131   -1.5709127 
H     4.0411725    4.4583049   -0.3699521 
N    -1.3059608   -0.1468804    1.5194473 
C     1.1597697   -0.4015389    3.0032322 
C     0.3300649    2.1705184    1.8898166 
C    -2.8994005   -0.1456736   -0.9071459 
C    -1.9596501   -2.6309298    0.2892393 
C     1.8439322   -1.6160929    2.7835823 
C    -0.8306394    2.9351471    1.6512915 
C    -2.6146083    0.7563808   -1.9521313 
C    -2.6302656   -3.3773375   -0.7047642 
C     1.0939210    0.1436187    4.3030622 
C     1.5386732    2.8105190    2.2407256 
C    -4.2396315   -0.4305509   -0.5649326 
C    -1.5346358   -3.2644637    1.4760132 
C     2.4478689   -2.2850830    3.8560826 
C    -0.7875984    4.3282373    1.7967310 
C    -3.6618117    1.3698267   -2.6520406 
C    -2.8843551   -4.7398342   -0.4998636 
C     1.7013258   -0.5302941    5.3708470 
C     1.5717767    4.2036259    2.3764035 
C    -5.2806229    0.1954147   -1.2615015 
C    -1.7981848   -4.6264098    1.6733234 
C     2.3758140   -1.7418253    5.1486564 
C     0.4109133    4.9626999    2.1598568 
C    -4.9922334    1.0920085   -2.3046712 
C    -2.4711674   -5.3648647    0.6874425 
H    -2.0031702   -0.0888162    2.2696274 
H     1.9018671   -2.0285004    1.7687079 
H    -1.7604032    2.4391307    1.3529270 
H    -1.5731158    0.9578623   -2.2258835 
H    -2.9587941   -2.8917286   -1.6302751 
H     0.5766714    1.0935812    4.4762899 
H     2.4517688    2.2259786    2.3996658 
H    -4.4667812   -1.1455490    0.2337925 
H    -1.0033232   -2.6904408    2.2429654 
H     2.9809215   -3.2256623    3.6836190 
H    -1.6923635    4.9200961    1.6239619 
H    -3.4366768    2.0562490   -3.4742587 
H    -3.4119625   -5.3147819   -1.2678881 
H     1.6502999   -0.1078946    6.3796245 
H     2.5112690    4.6959739    2.6470748 
H    -6.3205307   -0.0207969   -0.9958181 
H    -1.4774733   -5.1120831    2.6007228 
H     2.8523038   -2.2617662    5.9862324 
H     0.4408287    6.0516371    2.2700501 
H    -5.8111155    1.5703939   -2.8520706 
H    -2.6755667   -6.4288415    0.8448250 
