77
Energy =
C     1.1684371   -0.8017082   -2.7596929 
C     1.8934815    0.3635662   -2.3752940 
C     2.8098286    0.3162394   -1.2850358 
H     1.5901611    1.3382406   -2.7773122 
Pd    0.8028137   -0.3472767   -0.6245507 
P     0.4140493    0.3451535    1.5703853 
P    -1.3981966   -0.8899001   -0.0730604 
H     1.6586991   -1.7751176   -2.6004761 
H     3.3214022   -0.6412174   -1.0986073 
C    -2.1254077   -0.9137809   -5.5281206 
C    -1.4060660   -2.0789667   -5.2245521 
C    -0.3389746   -2.0298253   -4.3186436 
C     0.0329742   -0.8138659   -3.7017843 
C    -0.7194570    0.3476939   -3.9983630 
C    -1.7801517    0.2979649   -4.9066727 
H    -2.9570257   -0.9494332   -6.2393180 
H    -1.6704018   -3.0284872   -5.7015099 
H     0.2268867   -2.9412303   -4.0937632 
H    -0.4841932    1.2953751   -3.5026517 
H    -2.3509262    1.2066186   -5.1220069 
C     4.7031571    3.7127362    0.5610937 
C     5.2244371    2.4218062    0.7322109 
C     4.5950314    1.3246370    0.1306785 
C     3.4343596    1.4964947   -0.6573802 
C     2.9052816    2.8016337   -0.7977346 
C     3.5376120    3.8959545   -0.2015033 
H     5.1970744    4.5722997    1.0257159 
H     6.1302329    2.2689151    1.3281595 
H     5.0136205    0.3196241    0.2580184 
H     1.9837319    2.9621406   -1.3670210 
H     3.1128512    4.8975755   -0.3212969 
N    -1.2942012    0.1278198    1.3327516 
C     0.9456805   -0.6635946    2.9930375 
C     0.6710140    2.0769894    2.0537175 
C    -2.7769528   -0.2707184   -1.0812261 
C    -1.8615536   -2.5721198    0.4540512 
C     1.6083473   -1.8816402    2.7401825 
C     1.8777310    2.4377503    2.6906694 
C    -3.0857001    1.1056122   -1.0874836 
C    -3.1593319   -2.8697933    0.9237535 
C     0.6585968   -0.2821291    4.3216466 
C    -0.2488970    3.0756443    1.6740213 
C    -3.4359442   -1.1424708   -1.9739131 
C    -0.8716535   -3.5750642    0.4440638 
C     1.9744583   -2.7164398    3.8044439 
C     2.1464647    3.7848430    2.9598860 
C    -4.0677293    1.5975095   -1.9563368 
C    -3.4527384   -4.1581773    1.3873748 
C     1.0242268   -1.1222179    5.3808411 
C     0.0256404    4.4206595    1.9539172 
C    -4.4102119   -0.6401109   -2.8450445 
C    -1.1722856   -4.8636440    0.9060770 
C     1.6798626   -2.3376383    5.1229103 
C     1.2225198    4.7762364    2.5954545 
C    -4.7305472    0.7258673   -2.8349884 
C    -2.4607336   -5.1531063    1.3797405 
H    -1.9995128    0.1694070    2.0783985 
H     1.8390671   -2.1666380    1.7068883 
H     2.6071446    1.6704038    2.9706079 
H    -2.5597439    1.7830810   -0.4074024 
H    -3.9387188   -2.0992662    0.9182135 
H     0.1594526    0.6718145    4.5258579 
H    -1.1793026    2.7938362    1.1711099 
H    -3.1874016   -2.2086112   -1.9911100 
H     0.1309332   -3.3403590    0.0672937 
H     2.4934193   -3.6597104    3.6060400 
H     3.0847663    4.0603533    3.4510918 
H    -4.3163586    2.6637486   -1.9482025 
H    -4.4587454   -4.3893452    1.7523162 
H     0.8013164   -0.8272049    6.4113635 
H    -0.6973364    5.1930541    1.6719285 
H    -4.9176288   -1.3191951   -3.5372914 
H    -0.4030382   -5.6424767    0.8933913 
H     1.9672398   -2.9886582    5.9550569 
H     1.4356076    5.8284377    2.8103645 
H    -5.4959888    1.1132367   -3.5152816 
H    -2.6965556   -6.1598347    1.7399071 
