77
Energy =
C     1.1635671   -1.0725897   -2.6470084 
C     1.9262352    0.0952515   -2.3513267 
C     2.8400002    0.0905424   -1.2611810 
H     1.6423248    1.0483219   -2.8154430 
Pd    0.8119461   -0.4528997   -0.5486934 
P     0.4726639    0.2482268    1.6604846 
P    -1.3837465   -0.9780747    0.0384003 
H     1.6325578   -2.0452587   -2.4314288 
H     3.2690685   -0.8796716   -0.9638770 
C    -2.2577687   -1.3041051   -5.2476933 
C    -1.4634464   -2.4359345   -5.0095242 
C    -0.3430433   -2.3452288   -4.1733172 
C     0.0064378   -1.1191845   -3.5623355 
C    -0.8044609    0.0131440   -3.8120880 
C    -1.9222846   -0.0795925   -4.6461916 
H    -3.1361927   -1.3752913   -5.8971913 
H    -1.7145409   -3.3922337   -5.4801364 
H     0.2768657   -3.2310925   -3.9933653 
H    -0.5802727    0.9656482   -3.3200669 
H    -2.5456790    0.8041541   -4.8141477 
C     4.7373414    3.5285794    0.5021382 
C     4.7899946    2.2736856    1.1304599 
C     4.1968703    1.1603041    0.5267386 
C     3.5239424    1.2787612   -0.7118736 
C     3.4939838    2.5431346   -1.3421528 
C     4.0960254    3.6549852   -0.7397817 
H     5.2048104    4.4000289    0.9715167 
H     5.3008762    2.1626839    2.0927729 
H     4.2324074    0.1850333    1.0260627 
H     3.0090548    2.6616383   -2.3167457 
H     4.0708904    4.6251213   -1.2470889 
N    -1.1690080   -0.3124483    1.6153354 
C     1.2557377   -0.5417750    3.1015787 
C     0.4684776    2.0371445    2.0068949 
C    -2.6778377   -0.0076830   -0.8067466 
C    -2.0084086   -2.6776961    0.2039661 
C     2.3580362    0.0722774    3.7363080 
C     0.1427988    2.5472418    3.2828307 
C    -3.7845521   -0.5997236   -1.4444951 
C    -2.4772664   -3.1896096    1.4294005 
C     0.8437320   -1.8308360    3.5002538 
C     0.7764401    2.9216003    0.9537370 
C    -2.4822319    1.3893390   -0.8889498 
C    -1.9816438   -3.5023216   -0.9421308 
C     3.0249638   -0.5950006    4.7724067 
C     0.1167235    3.9317935    3.4908579 
C    -4.6869747    0.2015652   -2.1588014 
C    -2.9276332   -4.5153890    1.5036997 
C     1.5136035   -2.4867628    4.5410919 
C     0.7599711    4.3056310    1.1721704 
C    -3.3920180    2.1824142   -1.5963200 
C    -2.4408715   -4.8230234   -0.8598422 
C     2.6033248   -1.8711839    5.1772485 
C     0.4266978    4.8095989    2.4381038 
C    -4.4930357    1.5881970   -2.2366057 
C    -2.9124374   -5.3303949    0.3615879 
H    -1.9075018   -0.0743878    2.2862897 
H     2.6877122    1.0696837    3.4259639 
H    -0.0779445    1.8648247    4.1113431 
H    -3.9432516   -1.6810760   -1.3873658 
H    -2.4897493   -2.5578979    2.3239651 
H    -0.0001385   -2.3142815    2.9968883 
H     1.0496006    2.5194421   -0.0279621 
H    -1.6190147    1.8520676   -0.3957058 
H    -1.6063685   -3.1100746   -1.8947638 
H     3.8737687   -0.1138466    5.2692085 
H    -0.1391274    4.3287859    4.4785798 
H    -5.5468204   -0.2618555   -2.6530743 
H    -3.2930168   -4.9117411    2.4566123 
H     1.1850210   -3.4826266    4.8556549 
H     1.0180758    4.9877317    0.3559673 
H    -3.2425762    3.2657386   -1.6506937 
H    -2.4244626   -5.4597922   -1.7503234 
H     3.1251506   -2.3871996    5.9896488 
H     0.4143275    5.8909167    2.6100949 
H    -5.2016595    2.2094799   -2.7940832 
H    -3.2650412   -6.3649338    0.4242595 
