77
Energy =
C     1.0092464   -0.6170445   -2.8305190 
C     2.0727119    0.1086166   -2.2215302 
C     2.8251044   -0.4959517   -1.1722918 
H     2.1696198    1.1852261   -2.4087763 
Pd    0.6700545   -0.4754942   -0.6488329 
P     0.3572964   -0.3054208    1.6592995 
P    -1.6280086   -0.4018901   -0.2462311 
H     1.1072449   -1.7139835   -2.8557585 
H     2.9196420   -1.5929535   -1.1959712 
C    -2.1105457    0.8853737   -5.3839006 
C    -1.8348088   -0.4891783   -5.3189121 
C    -0.8005742   -0.9602596   -4.5009792 
C    -0.0179246   -0.0664109   -3.7338778 
C    -0.3021633    1.3165955   -3.8174055 
C    -1.3372929    1.7850768   -4.6316566 
H    -2.9220204    1.2551959   -6.0188694 
H    -2.4262571   -1.1967589   -5.9095014 
H    -0.5940505   -2.0352024   -4.4477443 
H     0.2738624    2.0314923   -3.2211107 
H    -1.5506482    2.8580406   -4.6719969 
C     5.6688498    1.4218426    1.4300199 
C     5.5663574    0.0224346    1.3821623 
C     4.6414830   -0.5849166    0.5244399 
C     3.7954291    0.1924562   -0.3007852 
C     3.8985869    1.6014011   -0.2280864 
C     4.8301160    2.2065639    0.6217418 
H     6.3981222    1.8986069    2.0930925 
H     6.2164176   -0.5981000    2.0076599 
H     4.5708540   -1.6780282    0.4863404 
H     3.2407135    2.2335435   -0.8334134 
H     4.8967665    3.2986300    0.6604261 
N    -1.3612341   -0.2688100    1.4551006 
C    -2.5358503    1.0835138   -0.7920738 
C    -2.6883124   -1.8471441   -0.5405802 
C     0.7570351   -1.6520332    2.8193249 
C     0.8477924    1.2527016    2.4576654 
C    -1.7922946    2.2819265   -0.8725609 
C    -2.9245806   -2.7903310    0.4796770 
C     0.8951640   -2.9509284    2.2840997 
C    -0.0479522    2.3379330    2.5475242 
C    -3.9056414    1.0861398   -1.1230882 
C    -3.1690471   -2.0866450   -1.8483499 
C     0.8818114   -1.4460691    4.2091776 
C     2.1875744    1.4078013    2.8762285 
C    -2.4146762    3.4697535   -1.2719068 
C    -3.6640202   -3.9482917    0.2006690 
C     1.1452577   -4.0354900    3.1337524 
C     0.3868861    3.5582217    3.0828140 
C    -4.5193933    2.2773225   -1.5358890 
C    -3.9044319   -3.2477936   -2.1159607 
C     1.1364455   -2.5361731    5.0525299 
C     2.6119837    2.6318459    3.4069614 
C    -3.7777406    3.4661301   -1.6106910 
C    -4.1560938   -4.1768636   -1.0931647 
C     1.2665657   -3.8273619    4.5172998 
C     1.7140189    3.7055066    3.5149591 
H    -2.0700322   -0.1382999    2.1851373 
H    -0.7238075    2.2745201   -0.6230599 
H    -2.5263269   -2.6207621    1.4855908 
H     0.8070026   -3.1043447    1.2013638 
H    -1.0798348    2.2288130    2.1977979 
H    -4.4920634    0.1639738   -1.0594357 
H    -2.9671493   -1.3706356   -2.6531458 
H     0.7849686   -0.4387786    4.6281545 
H     2.9002989    0.5807815    2.7810157 
H    -1.8351628    4.3968870   -1.3304532 
H    -3.8550095   -4.6744205    0.9975447 
H     1.2537639   -5.0421723    2.7173861 
H    -0.3138737    4.3957913    3.1622510 
H    -5.5832009    2.2768690   -1.7945675 
H    -4.2813322   -3.4287593   -3.1279003 
H     1.2338870   -2.3768623    6.1313450 
H     3.6519200    2.7468762    3.7283449 
H    -4.2630933    4.3928584   -1.9339522 
H    -4.7331564   -5.0823579   -1.3068307 
H     1.4684858   -4.6746541    5.1807698 
H     2.0502659    4.6603126    3.9320939 
