77
Energy =
C     0.9017176   -0.3829441   -2.9484172 
C     1.9679455    0.3209999   -2.3174624 
C     2.7732950   -0.3218786   -1.3327938 
H     2.0320137    1.4101657   -2.4324597 
Pd    0.6421035   -0.4144902   -0.7481759 
P     0.4678665   -0.2390717    1.5704625 
P    -1.6251903   -0.3217983   -0.1977725 
H     1.0199740   -1.4711942   -3.0703150 
H     2.9222668   -1.4083623   -1.4357366 
C    -2.1067848    1.3548586   -5.4897590 
C    -1.8615890   -0.0261213   -5.5114697 
C    -0.8839559   -0.5792768   -4.6748081 
C    -0.1290833    0.2374952   -3.8024350 
C    -0.4076379    1.6247269   -3.7724733 
C    -1.3794274    2.1759236   -4.6120288 
H    -2.8660931    1.7899268   -6.1477212 
H    -2.4263006   -0.6744427   -6.1895645 
H    -0.6882544   -1.6573478   -4.7048804 
H     0.1302265    2.2777408   -3.0771467 
H    -1.5803706    3.2512507   -4.5741077 
C     5.6206465    1.6105480    1.2527094 
C     5.6746760    0.2257352    1.0367830 
C     4.7400666   -0.3909820    0.1954874 
C     3.7354207    0.3650304   -0.4499807 
C     3.6783551    1.7571844   -0.2014123 
C     4.6151252    2.3717090    0.6337363 
H     6.3530879    2.0951441    1.9064244 
H     6.4526822   -0.3760504    1.5179529 
H     4.7935162   -1.4719947    0.0221630 
H     2.8860206    2.3636850   -0.6526849 
H     4.5539163    3.4494223    0.8143489 
N    -1.2109769    0.1829332    1.4130984 
C    -2.6971056    0.9636887   -0.9031366 
C    -2.6424337   -1.8319142   -0.0989060 
C     0.6093275   -1.7016696    2.6488249 
C     1.2833896    1.1268704    2.4479113 
C    -2.6692314    2.2836710   -0.4092125 
C    -2.0168323   -3.0753202   -0.3218653 
C     0.3452245   -1.6285676    4.0339045 
C     2.4557323    0.8812103    3.1935626 
C    -3.4616734    0.6571745   -2.0493930 
C    -4.0098548   -1.7853886    0.2488291 
C     0.9352187   -2.9402627    2.0611020 
C     0.8372506    2.4515385    2.2569649 
C    -3.4209741    3.2820164   -1.0429099 
C    -2.7477630   -4.2633072   -0.1894844 
C     0.3978531   -2.7900104    4.8144214 
C     3.1566390    1.9523535    3.7611709 
C    -4.2046372    1.6623697   -2.6791700 
C    -4.7345977   -2.9765215    0.3814061 
C     0.9903853   -4.0986491    2.8482053 
C     1.5398506    3.5156176    2.8358370 
C    -4.1876701    2.9729586   -2.1773688 
C    -4.1048023   -4.2131917    0.1639918 
C     0.7186955   -4.0231780    4.2224835 
C     2.6989794    3.2672493    3.5882548 
H    -1.8737033    0.2532666    2.1946793 
H    -2.0686302    2.5202644    0.4747807 
H    -0.9577245   -3.1044376   -0.6040487 
H     0.1086708   -0.6657133    4.5010222 
H     2.8219796   -0.1417569    3.3276702 
H    -3.4724116   -0.3611657   -2.4523128 
H    -4.5063058   -0.8212186    0.4056389 
H     1.1508221   -2.9881041    0.9870505 
H    -0.0606192    2.6414125    1.6604335 
H    -3.4097155    4.3034460   -0.6487814 
H    -2.2608100   -5.2275511   -0.3670884 
H     0.1924080   -2.7340168    5.8883621 
H     4.0663160    1.7576687    4.3376879 
H    -4.7935255    1.4209246   -3.5693750 
H    -5.7950810   -2.9409454    0.6512438 
H     1.2484500   -5.0590176    2.3904684 
H     1.1828811    4.5415830    2.6990575 
H    -4.7722698    3.7556526   -2.6717073 
H    -4.6773106   -5.1410800    0.2647795 
H     0.7620956   -4.9276032    4.8381029 
H     3.2482554    4.1011300    4.0373521 
