77
Energy =
C     1.0280219   -0.5816932   -2.8465698 
C     2.1138940    0.0741420   -2.1992025 
C     2.7960854   -0.5801141   -1.1327556 
H     2.2738794    1.1466022   -2.3640114 
Pd    0.6378507   -0.4572209   -0.6707908 
P     0.3355753   -0.2834103    1.6310708 
P    -1.6634803   -0.4148954   -0.2571668 
H     1.0547331   -1.6824425   -2.8734106 
H     2.8253273   -1.6807764   -1.1623342 
C    -1.9196317    1.1343440   -5.4706415 
C    -1.8594937   -0.2523093   -5.2619304 
C    -0.8773822   -0.7946796   -4.4252576 
C     0.0631185    0.0373565   -3.7740370 
C    -0.0054426    1.4314015   -4.0003104 
C    -0.9846720    1.9713136   -4.8402639 
H    -2.6862587    1.5608313   -6.1253977 
H    -2.5770947   -0.9140994   -5.7583855 
H    -0.8372272   -1.8777784   -4.2623131 
H     0.7061885    2.1045969   -3.5107556 
H    -1.0221059    3.0534719   -5.0026630 
C     5.6197578    1.1275089    1.6328264 
C     5.3860078   -0.2566773    1.6030587 
C     4.4725342   -0.7945554    0.6890710 
C     3.7682325    0.0386820   -0.2115709 
C     4.0029827    1.4321966   -0.1588447 
C     4.9236721    1.9673517    0.7482707 
H     6.3410510    1.5494557    2.3402662 
H     5.9240790   -0.9200460    2.2881061 
H     4.2960288   -1.8760681    0.6687673 
H     3.4603803    2.1084514   -0.8272537 
H     5.0949352    3.0484346    0.7696281 
N    -1.3839442   -0.3131043    1.4476062 
C    -2.6282662    1.0420017   -0.7741847 
C    -2.7032465   -1.8774415   -0.5486664 
C     0.8235230   -1.5936321    2.7972488 
C     0.7815693    1.3053699    2.3925211 
C    -1.9062617    2.1980462   -1.1395164 
C    -2.7751370   -2.9053048    0.4136721 
C     1.1398312   -2.8609733    2.2631776 
C    -0.1188255    2.3906793    2.3672642 
C    -4.0393052    1.0626633   -0.7815279 
C    -3.3332418   -2.0403087   -1.8032506 
C     0.8560817   -1.3892883    4.1929813 
C     2.0953511    1.4891474    2.8761029 
C    -2.5884265    3.3652583   -1.5039806 
C    -3.4954064   -4.0744453    0.1324872 
C     1.4759042   -3.9179029    3.1186509 
C     0.2842954    3.6411854    2.8546559 
C    -4.7148166    2.2332667   -1.1506192 
C    -4.0467172   -3.2144453   -2.0749913 
C     1.1950309   -2.4508744    5.0423812 
C     2.4890434    2.7442872    3.3557827 
C    -3.9918207    3.3817830   -1.5117694 
C    -4.1313578   -4.2299882   -1.1086652 
C     1.5032715   -3.7119926    4.5072469 
C     1.5855933    3.8187160    3.3503301 
H    -2.0887021   -0.1964498    2.1839993 
H    -0.8100522    2.1714287   -1.1409945 
H    -2.2683144   -2.7875031    1.3774818 
H     1.1240784   -3.0097988    1.1764392 
H    -1.1287483    2.2565013    1.9654039 
H    -4.6063195    0.1673800   -0.5049017 
H    -3.2680531   -1.2515704   -2.5610822 
H     0.6244347   -0.4037733    4.6112987 
H     2.8113796    0.6597423    2.8702449 
H    -2.0255249    4.2587437   -1.7926744 
H    -3.5597484   -4.8661908    0.8859783 
H     1.7233763   -4.9001156    2.7032805 
H    -0.4201951    4.4793163    2.8459262 
H    -5.8095265    2.2495119   -1.1567163 
H    -4.5408614   -3.3364490   -3.0444151 
H     1.2202118   -2.2934903    6.1255718 
H     3.5089961    2.8821403    3.7285656 
H    -4.5257702    4.2920621   -1.8037411 
H    -4.6932920   -5.1444251   -1.3245841 
H     1.7710833   -4.5367492    5.1757879 
H     1.8972797    4.7976113    3.7289952 
