77
Energy =
C     0.8993024   -0.4180608   -2.8819532 
C     2.0002527    0.2684155   -2.2876954 
C     2.8006633   -0.3837566   -1.3092789 
H     2.0949630    1.3523125   -2.4275757 
Pd    0.6615855   -0.3910053   -0.6900355 
P     0.4066964   -0.2292834    1.6326394 
P    -1.6168834   -0.3559305   -0.2242541 
H     0.9950392   -1.5089150   -2.9991386 
H     2.8731976   -1.4811069   -1.3747864 
C    -2.1857035    1.3426583   -5.3130977 
C    -1.9561262   -0.0407965   -5.3386155 
C    -0.9483515   -0.6002447   -4.5430880 
C    -0.1471811    0.2126985   -3.7096144 
C    -0.4071300    1.6033673   -3.6767350 
C    -1.4098270    2.1605552   -4.4749881 
H    -2.9708611    1.7823584   -5.9366311 
H    -2.5585761   -0.6864849   -5.9860260 
H    -0.7683637   -1.6811333   -4.5726058 
H     0.1676365    2.2538279   -3.0090179 
H    -1.5971933    3.2381270   -4.4344415 
C     5.8352739    1.3894885    1.1753237 
C     5.7151248   -0.0053453    1.0710650 
C     4.7261061   -0.5652541    0.2534265 
C     3.8330883    0.2561122   -0.4736239 
C     3.9560452    1.6593981   -0.3447564 
C     4.9508223    2.2173523    0.4644023 
H     6.6137044    1.8296113    1.8071093 
H     6.4004757   -0.6588850    1.6206261 
H     4.6419151   -1.6548322    0.1695510 
H     3.2637634    2.3234435   -0.8723989 
H     5.0314285    3.3058643    0.5488141 
N    -1.3018264    0.0027072    1.4413533 
C    -2.6468659    0.9880675   -0.8830139 
C    -2.6100111   -1.8796563   -0.3256209 
C     0.6686018   -1.6622400    2.7305185 
C     1.0433453    1.2225277    2.5235533 
C    -2.3663123    2.3154142   -0.4918715 
C    -2.0170852   -3.0343467   -0.8744069 
C     0.8543543   -1.5255164    4.1219738 
C     0.2137352    2.3100254    2.8629168 
C    -3.6004096    0.7387799   -1.8914639 
C    -3.9302755   -1.9355729    0.1714246 
C     0.6388969   -2.9474949    2.1481271 
C     2.4253897    1.2743141    2.8081231 
C    -3.0598548    3.3780152   -1.0827756 
C    -2.7353596   -4.2372322   -0.9232095 
C     0.9994458   -2.6689496    4.9196644 
C     0.7597449    3.4303608    3.5050267 
C    -4.2837381    1.8096043   -2.4822909 
C    -4.6403242   -3.1416986    0.1260212 
C     0.7795217   -4.0850395    2.9517364 
C     2.9611804    2.3983926    3.4479478 
C    -4.0192761    3.1261559   -2.0773868 
C    -4.0439129   -4.2906055   -0.4202620 
C     0.9604615   -3.9454138    4.3374164 
C     2.1312584    3.4749188    3.7989041 
H    -1.9960566   -0.0029106    2.1969987 
H    -1.6067671    2.5092541    0.2731369 
H    -0.9943791   -2.9815646   -1.2671349 
H     0.8899344   -0.5302790    4.5778450 
H    -0.8555615    2.2768272    2.6298788 
H    -3.8044341   -0.2854820   -2.2190973 
H    -4.4046252   -1.0376397    0.5838034 
H     0.5046507   -3.0499540    1.0643928 
H     3.0837242    0.4444733    2.5266802 
H    -2.8500423    4.4059624   -0.7695669 
H    -2.2751295   -5.1318413   -1.3549047 
H     1.1440535   -2.5624943    5.9997043 
H     0.1113512    4.2695376    3.7773597 
H    -5.0229562    1.6127004   -3.2650957 
H    -5.6633430   -3.1861193    0.5134002 
H     0.7556764   -5.0809708    2.4977866 
H     4.0337190    2.4340967    3.6630681 
H    -4.5580762    3.9593758   -2.5402382 
H    -4.6050484   -5.2300496   -0.4570050 
H     1.0770001   -4.8350165    4.9650299 
H     2.5547379    4.3520209    4.2989536 
