113
Energy =
C     1.6059039   -2.5066666    1.0982159 
C     2.1520238   -2.1370425   -0.1511617 
C     3.0194407   -1.0211375   -0.2879421 
H     1.8495790   -2.6823346   -1.0540120 
Pd    0.9592826   -0.3894139    0.4244880 
P     0.9017059    1.8090886   -0.4889983 
P    -1.2305675   -0.3335144    1.3587586 
H     2.1236876   -2.1383113    1.9960549 
H     3.5887202   -0.7139731    0.6018736 
C    -0.6748548   -6.0988401    1.7740983 
C    -0.6047625   -5.5537973    0.4809885 
C     0.1219537   -4.3822117    0.2466944 
C     0.7952247   -3.7214888    1.3019633 
C     0.7366480   -4.2986547    2.5901891 
C     0.0080432   -5.4711943    2.8261788 
H    -1.2459985   -7.0149582    1.9553062 
H    -1.1217518   -6.0453580   -0.3497768 
H     0.1629813   -3.9751380   -0.7689695 
H     1.2858345   -3.8265220    3.4114754 
H    -0.0193191   -5.9003242    3.8332116 
C     4.9330770   -0.1696380   -4.0537751 
C     3.5928598   -0.5926520   -4.0310076 
C     2.9619100   -0.8645024   -2.8132113 
C     3.6501111   -0.7061813   -1.5870221 
C     4.9960860   -0.2838661   -1.6258891 
C     5.6335654   -0.0262909   -2.8475872 
H     5.4281902    0.0406762   -5.0071637 
H     3.0385481   -0.7095698   -4.9681812 
H     1.9129697   -1.1781283   -2.8061441 
H     5.5498993   -0.1660867   -0.6878993 
H     6.6815545    0.2907779   -2.8560228 
N     0.4502279    1.8449792    2.8059454 
C     2.4400517    2.4097676   -1.3916186 
C    -0.5651457    1.8780265   -1.6643873 
C    -2.4915344   -0.8297462    0.0310313 
C    -1.5562163   -1.4515755    2.8344175 
C    -2.6867987   -2.3592821   -0.0210908 
C    -3.8513328   -0.0943355    0.0233679 
C    -0.4961823   -1.3166083    3.9530422 
C    -2.9820558   -1.3121736    3.4159501 
C     2.2252481    3.6166387   -2.3311899 
C     3.5632948    2.6980796   -0.3655490 
C    -0.3153951    0.9578738   -2.8808843 
C    -1.1406670    3.2505350   -2.0788302 
C    -1.8395589    1.3391712    1.9118093 
C     0.5898414    3.2041845    0.7173637 
C    -3.5112971   -2.7658102   -1.2539514 
C    -4.7006800   -0.5297662   -1.1881399 
C    -0.7572427   -2.3200496    5.0929706 
C    -3.2234583   -2.3269286    4.5493514 
C     3.5461873    4.0521905   -2.9948480 
C     4.8656561    3.1656072   -1.0413059 
C    -1.5780036    0.8146847   -3.7494507 
C    -2.4243476    3.0514532   -2.9086545 
C    -4.8741234   -2.0551418   -1.2615279 
C    -2.1766242   -2.1743729    5.6628717 
C     4.6226223    4.3782208   -1.9506647 
C    -2.1583252    2.1808292   -4.1477713 
C    -0.9926881    1.9818147    3.0282762 
C     1.0967407    2.9798572    2.1513073 
H    -1.9629360   -0.5496719   -0.9006858 
H    -1.4468783   -2.4681524    2.4092947 
H     2.7516507    1.5492624   -2.0097590 
H    -1.3484875    1.3885175   -1.0527899 
H     3.2346810    3.5010937    0.3212827 
H     0.5126850    1.3638249   -3.4924637 
H     0.0146073   -0.0349832   -2.5213531 
H    -1.3611083    3.8653967   -1.1882237 
H    -0.4093239    3.8147975   -2.6803720 
H     3.7482148    1.8009531    0.2542345 
H     1.4948474    3.3602347   -3.1156277 
H     1.8056753    4.4722310   -1.7657368 
H    -3.1181658   -0.2909066    3.8213320 
H    -3.7405423   -1.4441599    2.6256898 
H     0.5155976   -1.4486095    3.5328929 
H    -0.5266654   -0.2979028    4.3782618 
H    -4.4036816   -0.3119030    0.9565309 
H    -3.7068395    0.9998267   -0.0139610 
H    -1.7087451   -2.8658017   -0.0240408 
H    -3.2145414   -2.7017310    0.8887038 
H    -1.8587659    1.9715678    1.0082968 
H    -2.8873873    1.2473576    2.2441418 
H     1.0557318    4.1140421    0.2995958 
H    -0.4934544    3.4068822    0.7318558 
H     5.6148396    3.4003696   -0.2636703 
H     3.9053192    3.2332741   -3.6484732 
H     3.3554692    4.9228519   -3.6476818 
H    -4.2440356   -2.1944167    4.9509920 
H    -3.1739427   -3.3523791    4.1335854 
H    -0.6346216   -3.3485715    4.7080369 
H    -0.0003730   -2.1816429    5.8862466 
H    -5.6838320   -0.0279658   -1.1457991 
H    -4.2075512   -0.1747497   -2.1145275 
H    -2.9498244   -2.5010831   -2.1724177 
H    -3.6429580   -3.8629024   -1.2666920 
H     5.2774502    2.3398414   -1.6470207 
H    -1.3454540    0.2122758   -4.6457403 
H    -2.3413474    0.2490825   -3.1802375 
H    -3.1970860    2.5675093   -2.2775451 
H    -2.8290757    4.0353080   -3.2052864 
H    -5.4498006   -2.3298472   -2.1631946 
H    -5.4668904   -2.3986290   -0.3908306 
H    -2.3476267   -2.9217527    6.4578800 
H    -2.2872951   -1.1781879    6.1359376 
H     5.5625244    4.6786924   -2.4468188 
H     4.2950144    5.2441531   -1.3412543 
H    -3.0878242    2.0449294   -4.7286597 
H    -1.4435089    2.7041686   -4.8131033 
H     0.9348877    3.9333521    2.7065553 
H     2.1825664    2.7887097    2.1458759 
H    -1.2455880    1.4945828    3.9836496 
H    -1.2961932    3.0466962    3.1380265 
H     0.9298502    1.6332966    3.6824948 
