113
Energy =
C     2.4207824   -1.1884784   -1.1277863 
C     1.8864075   -2.2408952   -0.3174868 
C     0.6085237   -2.7742845   -0.5744693 
H     2.4351331   -2.5440436    0.5834892 
Pd    0.5591380   -0.4951288   -0.1233877 
P    -1.2668840   -0.5492042    1.4147317 
P     0.6614799    1.7869307   -0.8029033 
H     2.1613415   -1.2011120   -2.1957847 
H     0.1626423   -2.5497710   -1.5559529 
C     6.2095377    0.6097339   -0.1315881 
C     5.2305146    0.4394421    0.8623273 
C     4.0013887   -0.1474631    0.5432397 
C     3.7199437   -0.5676656   -0.7788293 
C     4.7138368   -0.3951092   -1.7645265 
C     5.9495206    0.1836380   -1.4422535 
H     7.1712656    1.0698338    0.1169770 
H     5.4251667    0.7701798    1.8878574 
H     3.2326488   -0.2554858    1.3183407 
H     4.5168489   -0.7248998   -2.7903417 
H     6.7111899    0.3044054   -2.2196109 
C    -1.3904172   -5.9308976    1.5502948 
C    -2.0361569   -5.2452174    0.5087465 
C    -1.3619555   -4.2369418   -0.1879601 
C    -0.0381726   -3.8730255    0.1564201 
C     0.6097014   -4.5945572    1.1858505 
C    -0.0609006   -5.6121994    1.8728634 
H    -1.9126430   -6.7243510    2.0943152 
H    -3.0636392   -5.5044095    0.2332986 
H    -1.8647764   -3.7137418   -1.0080676 
H     1.6459306   -4.3641973    1.4503127 
H     0.4570553   -6.1640406    2.6638244 
N     0.8461031    1.6605192    2.6242941 
C    -2.9154839   -1.1290368    0.7021778 
C    -0.9147072   -1.7951824    2.7809286 
C     2.2663049    2.3864841   -1.6077920 
C    -0.7935074    2.0795351   -1.9576622 
C     2.3694663    1.9494070   -3.0879611 
C     2.5598110    3.8986569   -1.4575485 
C    -0.9207380    3.5107602   -2.5269650 
C    -0.9297899    1.0187035   -3.0747930 
C    -4.1886131   -0.5259406    1.3384633 
C    -2.9544211   -0.9375368   -0.8273779 
C    -1.9426511   -1.7903926    3.9335233 
C     0.5369613   -1.7119020    3.3112939 
C     0.3463604    3.0461851    0.5265026 
C    -1.6526425    1.0401572    2.3018217 
C     3.7131926    2.3557741   -3.7210025 
C     3.9130471    4.2673133   -2.0958251 
C    -2.2443944    3.6714564   -3.3002056 
C    -2.2531715    1.1955046   -3.8414799 
C    -5.4539225   -1.1610503    0.7294357 
C    -4.2188972   -1.5551773   -1.4470532 
C    -1.6308021   -2.9026627    4.9534522 
C     0.8232604   -2.8063646    4.3562973 
C     3.9710666    3.8614152   -3.5746609 
C    -2.3826814    2.6178566   -4.4108760 
C    -5.4927271   -0.9918543   -0.7975163 
C    -0.2010979   -2.7754508    5.5009801 
C     1.1715403    2.8275398    1.8211830 
C    -0.4967964    1.5872717    3.1873143 
H     3.0453940    1.8414960   -1.0415156 
H    -1.6416609    1.9213823   -1.2572523 
H    -2.9031420   -2.2172519    0.9111763 
H    -1.0140061   -2.7611512    2.2504956 
H    -2.9298055    0.1462830   -1.0496116 
H    -1.9241512   -0.8136515    4.4537767 
H    -2.9639280   -1.9261874    3.5377616 
H     1.2433987   -1.7949542    2.4639937 
H     0.7229524   -0.7280504    3.7776414 
H    -2.0464732   -1.3688257   -1.2850985 
H    -4.1909200   -0.6635512    2.4332086 
H    -4.2081647    0.5650533    1.1525053 
H    -0.0916075    1.1138895   -3.7858166 
H    -0.8588817    0.0057845   -2.6376104 
H    -0.8640451    4.2614430   -1.7193737 
H    -0.0756533    3.7110686   -3.2112916 
H     1.7580040    4.4921210   -1.9363061 
H     2.5821759    4.1853536   -0.3926089 
H     2.2205718    0.8584227   -3.1759222 
H     1.5578183    2.4287708   -3.6649126 
H     0.5505683    4.0472306    0.1114948 
H    -0.7323421    3.0204743    0.7500880 
H    -1.9597314    1.7592481    1.5230461 
H    -2.5359204    0.8730799    2.9425868 
H    -4.2243530   -1.3765679   -2.5374713 
H    -5.4737749   -2.2394804    0.9824992 
H    -6.3505188   -0.7114572    1.1920766 
H    -2.3172181    0.4448383   -4.6496045 
H    -3.1029327    0.9986105   -3.1588204 
H    -3.0906215    3.5721883   -2.5915502 
H    -2.3034849    4.6907790   -3.7216563 
H     4.0852511    5.3522657   -1.9789743 
H     4.7229663    3.7527172   -1.5420962 
H     4.5312261    1.8028782   -3.2261739 
H     3.7185461    2.0561880   -4.7845926 
H    -4.1903037   -2.6541939   -1.3055476 
H    -2.3684784   -2.8651220    5.7748951 
H    -1.7502243   -3.8871551    4.4597740 
H     0.7829989   -3.7960106    3.8657021 
H     1.8495296   -2.6820763    4.7461790 
H     4.9513331    4.1263360   -4.0091755 
H     3.2078701    4.4290520   -4.1434191 
H    -3.3491705    2.7356857   -4.9321525 
H    -1.5921771    2.7810329   -5.1698951 
H    -6.3882355   -1.4835736   -1.2167998 
H    -5.5793275    0.0854036   -1.0425953 
H     0.0078551   -3.5855369    6.2221677 
H    -0.1046956   -1.8226596    6.0585049 
H    -0.4588607    0.9659059    4.1010302 
H    -0.7744533    2.6015160    3.5281360 
H     1.0436503    3.7239701    2.4567658 
H     2.2474758    2.7755280    1.5715632 
H     1.1051559    0.7924282    2.1398871 
