113
Energy =
C     1.4411415   -2.3755217    0.4873618 
C     1.4850099   -2.0902571   -0.8908573 
C     2.1888224   -0.9638301   -1.4083113 
H     0.8916569   -2.7047670   -1.5793133 
Pd    0.5168978   -0.2973346   -0.0231564 
P     0.5797526    1.9829106   -0.6501965 
P    -1.4034426   -0.5047899    1.3816138 
H     2.2025862   -1.8988980    1.1231103 
H     3.0579395   -0.6141552   -0.8338984 
C    -0.4203640   -5.7914583    2.3222565 
C    -0.8145645   -5.3980989    1.0314061 
C    -0.2123266   -4.2974595    0.4141782 
C     0.7915341   -3.5551220    1.0797706 
C     1.1935903   -3.9783279    2.3673250 
C     0.5947868   -5.0838907    2.9834275 
H    -0.8953400   -6.6523457    2.8033899 
H    -1.5965080   -5.9543094    0.5038976 
H    -0.5350483   -4.0041720   -0.5897035 
H     1.9862517   -3.4281690    2.8857054 
H     0.9207608   -5.3930343    3.9817575 
C     2.3748052   -0.2522916   -5.6590175 
C     3.4380550    0.1274302   -4.8264923 
C     3.3678818   -0.0989829   -3.4460982 
C     2.2264973   -0.6948103   -2.8622441 
C     1.1611156   -1.0676661   -3.7160870 
C     1.2398573   -0.8597112   -5.0968753 
H     2.4312957   -0.0829915   -6.7389997 
H     4.3341286    0.5877373   -5.2554106 
H     4.2190756    0.1709430   -2.8128788 
H     0.2536211   -1.5129565   -3.2942222 
H     0.4079317   -1.1661609   -5.7392194 
N    -0.6447029    2.5547105    2.5207685 
C     2.2146957    2.7721380   -0.1459097 
C     0.3857339    2.2520596   -2.4942515 
C    -2.5443608   -1.6897530    0.4572589 
C    -1.0338156   -1.3183480    3.0309309 
C    -4.0371765   -1.6951450    0.8567729 
C    -2.4179794   -1.4930964   -1.0719916 
C     0.1890929   -0.6621893    3.7197062 
C    -2.2234420   -1.4617228    4.0066108 
C     2.6476837    2.3326213    1.2754532 
C     3.3659789    2.4938175   -1.1340202 
C     0.5793127    3.7076482   -2.9755201 
C    -0.9747901    1.6883898   -2.9678119 
C    -2.5119091    0.9388635    1.7718071 
C    -0.6776482    3.1863181    0.0246787 
C    -4.7937062   -2.8041201    0.0989495 
C    -3.1880769   -2.5763241   -1.8475407 
C     0.5810810   -1.4076356    5.0091188 
C    -1.7987089   -2.2146732    5.2823942 
C     3.9438575    3.0402015    1.7129752 
C     4.6540593    3.2220077   -0.7095056 
C     0.4512397    3.7883468   -4.5088046 
C    -1.1394456    1.8198721   -4.4928410 
C    -4.6641043   -2.6339164   -1.4228908 
C    -0.6100250   -1.5288745    5.9723421 
C     5.0837855    2.8156561    0.7083758 
C    -0.9154395    3.2616712   -4.9743741 
C    -1.9531428    1.9775888    2.7773748 
C    -0.5514941    3.5948525    1.5109605 
H    -2.1154468   -2.6777952    0.7129550 
H    -0.7289302   -2.3370824    2.7269240 
H     2.0144119    3.8631848   -0.1374498 
H     1.1827276    1.6273858   -2.9399194 
H     3.5579220    1.4078535   -1.1453711 
H    -0.1937182    4.3595670   -2.5260197 
H     1.5575761    4.1052639   -2.6531932 
H    -1.0621569    0.6309193   -2.6610624 
H    -1.7970045    2.2367281   -2.4672743 
H     3.0939330    2.7766617   -2.1639454 
H     1.8614532    2.5324298    2.0213607 
H     2.8018558    1.2338839    1.2671775 
H    -2.6066921   -0.4632840    4.2897460 
H    -3.0552367   -1.9990622    3.5217231 
H     1.0407430   -0.6332031    3.0129142 
H    -0.0375807    0.3877092    3.9825481 
H    -2.8110269   -0.4936174   -1.3435532 
H    -1.3490173   -1.4941386   -1.3622859 
H    -4.1611353   -1.8336932    1.9436862 
H    -4.4896485   -0.7175943    0.6029937 
H    -2.7760563    1.3998779    0.8041283 
H    -3.4453649    0.5203343    2.1883393 
H    -0.5808965    4.0976135   -0.5930672 
H    -1.6734819    2.7643156   -0.1893799 
H     5.4567318    3.0030086   -1.4366688 
H     3.7435553    4.1255285    1.8073567 
H     4.2342997    2.6859286    2.7182354 
H    -2.6603651   -2.2863384    5.9698883 
H    -1.5187291   -3.2518049    5.0114020 
H     0.9373645   -2.4222854    4.7501020 
H     1.4252547   -0.8856887    5.4943770 
H    -3.1018530   -2.3892976   -2.9334229 
H    -2.7151944   -3.5602455   -1.6567036 
H    -4.3862375   -3.7898678    0.3989139 
H    -5.8565989   -2.7961813    0.3994015 
H     4.4831607    4.3156987   -0.7477711 
H     0.5982795    4.8329061   -4.8367787 
H     1.2586192    3.1886697   -4.9730298 
H    -0.4038522    1.1582530   -4.9848965 
H    -2.1423851    1.4612148   -4.7875139 
H    -5.1828585   -3.4551209   -1.9485342 
H    -5.1672934   -1.6951375   -1.7276192 
H    -0.3142947   -2.0897562    6.8767009 
H    -0.9143827   -0.5188202    6.3114320 
H     5.9831325    3.3779321    1.0160056 
H     5.3651274    1.7435438    0.7093906 
H    -0.9918853    3.3106938   -6.0751843 
H    -1.7139887    3.9166801   -4.5725436 
H    -1.3452165    4.3353793    1.7220981 
H     0.4026682    4.1350530    1.6517827 
H    -1.9332412    1.5085085    3.7778130 
H    -2.6792472    2.8080176    2.8503798 
H     0.0682467    1.8307971    2.3901772 
