113
Energy =
C     1.0558571   -2.5671319    0.5312931 
C     1.4992656   -2.1879890   -0.7600095 
C     2.4100642   -1.1210245   -0.9601029 
H     1.0531127   -2.6739321   -1.6362902 
Pd    0.4661297   -0.4010004    0.0344462 
P     0.6250665    1.8064821   -0.8173261 
P    -1.4353850   -0.3931529    1.4513628 
H     1.6963769   -2.2896939    1.3812396 
H     3.0502838   -0.8440650   -0.1097801 
C    -1.5787990   -5.8739322    1.3701594 
C    -1.5439458   -5.3223982    0.0782853 
C    -0.6944273   -4.2496291   -0.2115112 
C     0.1474579   -3.7018795    0.7845821 
C     0.1211769   -4.2883905    2.0719130 
C    -0.7360604   -5.3562317    2.3648936 
H    -2.2491221   -6.7097739    1.5941807 
H    -2.1870287   -5.7312163   -0.7079438 
H    -0.7006436   -3.8247558   -1.2202315 
H     0.7941060   -3.9067517    2.8477448 
H    -0.7380091   -5.7911543    3.3697290 
C     4.0060700    0.0853174   -4.7778535 
C     2.8178833   -0.6629014   -4.7254667 
C     2.2861909   -1.0629691   -3.4951775 
C     2.9329966   -0.7281552   -2.2826073 
C     4.1436460    0.0004544   -2.3550846 
C     4.6710668    0.4095359   -3.5860795 
H     4.4157664    0.4012861   -5.7424475 
H     2.3010088   -0.9332699   -5.6520428 
H     1.3483545   -1.6272197   -3.4800946 
H     4.6827626    0.2357803   -1.4307960 
H     5.6086823    0.9742801   -3.6145666 
N    -0.3685155    2.7069910    2.2901881 
C     2.3681484    2.4300426   -0.5335243 
C     0.3602448    1.7555154   -2.6811592 
C    -2.7334208   -1.5502835    0.7278354 
C    -0.9428033   -1.1026245    3.1132521 
C    -4.1678161   -1.4337498    1.2913677 
C    -2.7574374   -1.4128923   -0.8124035 
C     0.3761874   -0.4840518    3.6398973 
C    -2.0194117   -1.1296618    4.2200864 
C     2.6792256    3.8826103   -0.9559297 
C     2.8520406    2.1594760    0.9130057 
C     0.0795565    3.1014336   -3.3866611 
C    -0.7518124    0.7371209   -3.0242258 
C    -2.3858722    1.1631065    1.8133879 
C    -0.5102420    3.1648891   -0.2495959 
C    -5.0898884   -2.4907757    0.6530164 
C    -3.7137238   -2.4250223   -1.4671804 
C     0.8863093   -1.2439667    4.8775774 
C    -1.4972641   -1.8858411    5.4582265 
C     4.1850672    4.1755599   -0.8009558 
C     4.3551101    2.4584469    1.0571822 
C    -0.0388806    2.9009649   -4.9100682 
C    -0.9235365    0.5605915   -4.5431158 
C    -5.1292961   -2.3421615   -0.8757068 
C    -0.1823404   -1.2872606    5.9819233 
C     4.6780108    3.8989861    0.6280211 
C    -1.1552973    1.9028970   -5.2536441 
C    -1.6706035    2.2155917    2.6991199 
C    -0.3105221    3.6663765    1.2037225 
H    -2.3390592   -2.5544092    0.9764676 
H    -0.7267199   -2.1526861    2.8405215 
H     2.9445251    1.7635957   -1.2023298 
H     1.3206103    1.3550454   -3.0589265 
H     2.2980923    2.7979442    1.6261198 
H    -0.8724677    3.5239047   -3.0125637 
H     0.8676195    3.8404565   -3.1656030 
H    -0.5210995   -0.2338714   -2.5481498 
H    -1.7080398    1.0809850   -2.5824130 
H     2.6339400    1.1109018    1.1939174 
H     2.3772486    4.0562881   -2.0017842 
H     2.1017287    4.5910486   -0.3321440 
H    -2.2922704   -0.0969884    4.5094735 
H    -2.9397991   -1.6141262    3.8550318 
H     1.1401399   -0.4856983    2.8382969 
H     0.2160514    0.5737822    3.9200371 
H    -3.0692457   -0.3839324   -1.0804531 
H    -1.7332396   -1.5403009   -1.2090675 
H    -4.1757807   -1.5423758    2.3887021 
H    -4.5740348   -0.4297477    1.0640618 
H    -2.6894705    1.5839813    0.8387387 
H    -3.3128837    0.8539955    2.3288067 
H    -0.3472964    4.0178596   -0.9325014 
H    -1.5414229    2.8106924   -0.4239656 
H     4.6711250    2.2832459    2.1011580 
H     4.7466817    3.5397801   -1.5139633 
H     4.3878301    5.2236746   -1.0845288 
H    -2.2689695   -1.8764898    6.2484775 
H    -1.3358302   -2.9476321    5.1852032 
H     1.1555877   -2.2784766    4.5856161 
H     1.8120167   -0.7699814    5.2500529 
H    -3.7354776   -2.2586775   -2.5596906 
H    -3.3153345   -3.4444619   -1.3065145 
H    -4.7231953   -3.5015102    0.9194860 
H    -6.1049347   -2.3972032    1.0785381 
H     4.9302843    1.7497567    0.4288720 
H    -0.2266954    3.8754985   -5.3950521 
H     0.9273319    2.5286612   -5.3035224 
H    -0.0092567    0.0900944   -4.9513204 
H    -1.7578761   -0.1367211   -4.7416031 
H    -5.7767602   -3.1173637   -1.3226937 
H    -5.5809566   -1.3641115   -1.1347653 
H     0.1846282   -1.8665498    6.8476729 
H    -0.3687869   -0.2578111    6.3465980 
H     5.7638564    4.0866716    0.7019994 
H     4.1869662    4.6042713    1.3273262 
H    -1.2158069    1.7520961   -6.3461272 
H    -2.1301488    2.3243304   -4.9376567 
H    -1.0766303    4.4393327    1.3997160 
H     0.6613777    4.1892578    1.2555240 
H    -1.5788820    1.8001256    3.7187917 
H    -2.3430469    3.0885291    2.7913395 
H     0.3226559    1.9584932    2.1927363 
