113
Energy =
C     0.9727849   -2.6279351    0.4747893 
C     1.4022574   -2.2576426   -0.8241231 
C     2.3479431   -1.2227881   -1.0347285 
H     0.9194107   -2.7195612   -1.6937950 
Pd    0.4545751   -0.4450348   -0.0024049 
P     0.6722501    1.7672350   -0.8124899 
P    -1.4125305   -0.3519506    1.4464379 
H     1.6423201   -2.3816548    1.3118707 
H     3.0189937   -0.9806204   -0.1978044 
C    -1.7807097   -5.8244146    1.3615865 
C    -1.7386660   -5.2812850    0.0664048 
C    -0.8503909   -4.2448042   -0.2391456 
C     0.0250077   -3.7264075    0.7436493 
C    -0.0090408   -4.3058298    2.0340069 
C    -0.9056195   -5.3361772    2.3432323 
H    -2.4815464   -6.6313121    1.5980820 
H    -2.4068992   -5.6677993   -0.7101113 
H    -0.8521129   -3.8246355   -1.2499051 
H     0.6881667   -3.9477768    2.7995614 
H    -0.9132322   -5.7653327    3.3505686 
C     3.8880403   -0.0186972   -4.8767780 
C     2.6850253   -0.7409992   -4.8043436 
C     2.1718167   -1.1406428   -3.5660268 
C     2.8529034   -0.8326779   -2.3650967 
C     4.0779555   -0.1310671   -2.4584075 
C     4.5864505    0.2787653   -3.6971613 
H     4.2831166    0.2974932   -5.8473940 
H     2.1413743   -0.9905057   -5.7214229 
H     1.2208538   -1.6819505   -3.5346819 
H     4.6425118    0.0833503   -1.5442388 
H     5.5356839    0.8227790   -3.7415298 
N    -0.2529429    2.6092972    2.2108067 
C     2.4368194    2.3276515   -0.5316547 
C     0.3973310    1.7528438   -2.6763827 
C    -2.7655598   -1.4689402    0.7570414 
C    -0.9157845   -1.0755345    3.1003654 
C    -4.1823423   -1.3226576    1.3572730 
C    -2.8261725   -1.3237747   -0.7820820 
C     0.4444720   -0.5203251    3.5882641 
C    -1.9649064   -1.0498166    4.2335447 
C     2.7917569    3.7841342   -0.9042139 
C     2.9277629    1.9852796    0.8962674 
C     0.2071202    3.1155565   -3.3799378 
C    -0.7810031    0.8101238   -3.0176234 
C    -2.3257232    1.2273855    1.8149268 
C    -0.4197272    3.1632582   -0.2442563 
C    -5.1455263   -2.3539347    0.7378960 
C    -3.8247606   -2.3071357   -1.4174389 
C     0.9468937   -1.2932609    4.8199861 
C    -1.4473945   -1.8221788    5.4634668 
C     4.3074837    4.0237473   -0.7551974 
C     4.4393787    2.2346044    1.0358537 
C     0.0656916    2.9266839   -4.9028747 
C    -0.9760788    0.6524032   -4.5358229 
C    -5.2218523   -2.1940180   -0.7882635 
C    -0.0945608   -1.2801268    5.9508117 
C     4.8043054    3.6794539    0.6576780 
C    -1.1200834    2.0100137   -5.2404997 
C    -1.5890927    2.2549606    2.6876805 
C    -0.2043468    3.6588290    1.1938514 
H    -2.3920237   -2.4848885    0.9891731 
H    -0.7587969   -2.1359516    2.8261247 
H     2.9815563    1.6688951   -1.2343575 
H     1.3262823    1.2901571   -3.0610833 
H     2.3866877    2.6017253    1.6360816 
H    -0.7103760    3.6054302   -3.0012809 
H     1.0474950    3.7960546   -3.1640467 
H    -0.6083749   -0.1762590   -2.5488443 
H    -1.7108237    1.2103142   -2.5663855 
H     2.6760523    0.9360510    1.1389537 
H     2.4840285    4.0084195   -1.9384893 
H     2.2457232    4.4889468   -0.2483599 
H    -2.1856372   -0.0051409    4.5254531 
H    -2.9152387   -1.4934595    3.8945692 
H     1.1837890   -0.5611723    2.7666352 
H     0.3423921    0.5486892    3.8465046 
H    -3.1166564   -0.2856156   -1.0390829 
H    -1.8158872   -1.4769263   -1.2047634 
H    -4.1650209   -1.4376633    2.4538801 
H    -4.5724731   -0.3087416    1.1455140 
H    -2.6276862    1.6546256    0.8427480 
H    -3.2586860    0.9459296    2.3335234 
H    -0.2389695    4.0105918   -0.9283649 
H    -1.4619011    2.8423597   -0.4163573 
H     4.7609658    2.0097403    2.0687772 
H     4.8418599    3.3964910   -1.4960702 
H     4.5413591    5.0744154   -1.0034517 
H    -2.1984706   -1.7751948    6.2721617 
H    -1.3394527   -2.8912764    5.1928022 
H     1.1606227   -2.3418871    4.5320028 
H     1.9031794   -0.8618622    5.1667185 
H    -3.8713020   -2.1330393   -2.5079710 
H    -3.4479706   -3.3370974   -1.2734791 
H    -4.7949437   -3.3744553    0.9881808 
H    -6.1466543   -2.2401524    1.1907509 
H     4.9881257    1.5339418    0.3754076 
H    -0.0560059    3.9127407   -5.3858152 
H     1.0009195    2.4876553   -5.3023347 
H    -0.0994722    0.1219301   -4.9527643 
H    -1.8577714    0.0148177   -4.7303185 
H    -5.8995751   -2.9503259   -1.2227060 
H    -5.6564403   -1.2035472   -1.0290353 
H     0.2663106   -1.8685969    6.8130073 
H    -0.2263765   -0.2404127    6.3112577 
H     5.8959874    3.8317166    0.7281082 
H     4.3410065    4.3737465    1.3868060 
H    -1.1995960    1.8676438   -6.3329608 
H    -2.0607948    2.4971328   -4.9153650 
H    -0.9504770    4.4632744    1.3907776 
H     0.7883166    4.1344474    1.2536159 
H    -1.4808387    1.8365589    3.7018761 
H    -2.2461928    3.1499877    2.7857952 
H     0.3183758    2.8945931    3.0084154 
