113
Energy =
C     1.2946698   -2.5188079    0.5285538 
C     1.4340925   -2.1603586   -0.8245677 
C     2.1933065   -1.0246301   -1.2319933 
H     0.8905206   -2.7344311   -1.5846930 
Pd    0.4155725   -0.3553148   -0.0089654 
P     0.6679749    1.8979663   -0.7245709 
P    -1.4838320   -0.3168348    1.4039596 
H     1.9698859   -2.0318015    1.2477387 
H     2.9958104   -0.7009738   -0.5542512 
C    -0.5596741   -6.0721546    2.0889239 
C    -0.5965730   -5.8231352    0.7058552 
C     0.0032809   -4.6770478    0.1773668 
C     0.6532049   -3.7448066    1.0219926 
C     0.7197167   -4.0352415    2.4042597 
C     0.1123373   -5.1781639    2.9362057 
H    -1.0352536   -6.9688876    2.4987714 
H    -1.0955097   -6.5308037    0.0358740 
H    -0.0384221   -4.5079255   -0.9030243 
H     1.2613088   -3.3501158    3.0642168 
H     0.1713415   -5.3756095    4.0116259 
C     2.8848884    0.0130211   -5.3604064 
C     1.7516338   -0.7397463   -5.0097155 
C     1.5112738   -1.0782715   -3.6739335 
C     2.4091899   -0.6857257   -2.6535552 
C     3.5618651    0.0444116   -3.0279016 
C     3.7924447    0.3994688   -4.3629656 
H     3.0642766    0.2840806   -6.4056067 
H     1.0473108   -1.0595615   -5.7845452 
H     0.6041645   -1.6371033   -3.4207137 
H     4.2946555    0.3215526   -2.2614763 
H     4.6905506    0.9675692   -4.6264778 
N    -0.2286733    2.6129939    2.5051375 
C     2.4743431    2.3311614   -0.4734474 
C     0.2793245    2.0378268   -2.5593000 
C    -2.9236179   -1.2486709    0.6374542 
C    -1.2012985   -1.1622377    3.0530335 
C    -3.3973268   -0.5897212   -0.6764932 
C    -2.5721938   -2.7263300    0.3927334 
C     0.0634746   -0.6431666    3.7806627 
C    -2.4349809   -1.1749280    3.9835048 
C     2.9086277    3.7887436   -0.7431318 
C     2.9885256    1.8637456    0.9116631 
C     0.2008741    3.4597516   -3.1586937 
C    -1.0225358    1.2546076   -2.8496520 
C    -2.3270606    1.2956793    1.8101145 
C    -0.2823576    3.3154266    0.0156429 
C    -4.5801763   -1.3585727   -1.2936595 
C    -3.7502669   -3.4982181   -0.2245061 
C     0.3205200   -1.4121000    5.0913793 
C    -2.1416187   -1.9649164    5.2730459 
C     4.4432277    3.9126120   -0.6527069 
C     4.5207730    1.9800853    0.9910826 
C    -0.0987672    3.3969663   -4.6690703 
C    -1.3743376    1.2401614   -4.3471706 
C    -4.2311995   -2.8373528   -1.5256548 
C    -0.9149554   -1.3997523    6.0053933 
C     4.9812901    3.4180378    0.6994665 
C    -1.4163460    2.6557620   -4.9422283 
C    -1.5990470    2.2321620    2.8040825 
C    -0.0168982    3.6445775    1.5077856 
H    -3.7446313   -1.1862441    1.3796233 
H    -0.9929633   -2.2076865    2.7544444 
H     2.9579990    1.6971245   -1.2394803 
H     1.1185170    1.5032320   -3.0419748 
H     2.5422399    2.4867721    1.7092235 
H    -0.6072831    4.0314530   -2.6643485 
H     1.1389749    4.0128097   -2.9864932 
H    -0.9131655    0.2203603   -2.4729606 
H    -1.8573053    1.7106613   -2.2806934 
H     2.6611468    0.8242876    1.1093930 
H     2.5698620    4.1219036   -1.7374639 
H     2.4427406    4.4651069   -0.0016582 
H    -2.7134252   -0.1392164    4.2560528 
H    -3.3050184   -1.6147935    3.4644105 
H     0.9374014   -0.7203968    3.1052479 
H    -0.0454490    0.4272561    4.0296223 
H    -1.7104928   -2.7594637   -0.3004250 
H    -2.2460263   -3.2202216    1.3242608 
H    -3.6820244    0.4644704   -0.5124413 
H    -2.5510658   -0.5857565   -1.3881520 
H    -2.5030011    1.7997677    0.8455106 
H    -3.3224126    1.0361981    2.2176937 
H    -0.0135484    4.2037188   -0.5842608 
H    -1.3524169    3.1223556   -0.1742529 
H     4.8701955    1.6547467    1.9872741 
H     4.8975310    3.3174574   -1.4696860 
H     4.7390816    4.9626526   -0.8259033 
H    -3.0305230   -1.9448377    5.9284391 
H    -1.9601191   -3.0266087    5.0135456 
H     0.5813712   -2.4622980    4.8609577 
H     1.1934600   -0.9747837    5.6082100 
H    -3.4464390   -4.5452508   -0.4048239 
H    -4.5844574   -3.5325991    0.5033728 
H    -5.4530942   -1.2880566   -0.6155808 
H    -4.8777162   -0.8758914   -2.2421227 
H     4.9754670    1.2885313    0.2532796 
H    -0.1373518    4.4226226   -5.0773844 
H     0.7334378    2.8774463   -5.1831584 
H    -0.6102061    0.6474770   -4.8828145 
H    -2.3410049    0.7243111   -4.4921936 
H    -5.1024326   -3.3784030   -1.9354696 
H    -3.4283600   -2.9061630   -2.2873680 
H    -0.7142539   -1.9786347    6.9242202 
H    -1.1259824   -0.3602846    6.3260248 
H     6.0838564    3.4790779    0.7180571 
H     4.6141685    4.0848508    1.5044008 
H    -1.6147208    2.6077513   -6.0277299 
H    -2.2544439    3.2236645   -4.4916443 
H    -0.6604918    4.5037743    1.7738991 
H     1.0214578    4.0078306    1.6047908 
H    -1.6241727    1.7667167    3.8058961 
H    -2.1906000    3.1619961    2.8925817 
H     0.3843562    1.8042540    2.3676035 
