113
Energy =
C     2.2265668   -1.8194559    1.5659885 
C     2.2152096   -2.0751592    0.1815520 
C     2.6489237   -1.0642067   -0.7387902 
H     1.7709617   -3.0042970   -0.1967585 
Pd    0.8873042   -0.3383686    0.4181993 
P     0.7136948    1.8039241   -0.5673781 
P    -1.1867056   -0.4072224    1.5561699 
H     2.7869138   -0.9325497    1.9004711 
H     3.4838191   -0.4263243   -0.4223160 
C     1.3613287   -4.5161435    4.7978886 
C     1.5965147   -3.1535076    5.0423262 
C     1.8763495   -2.2921468    3.9766683 
C     1.9041934   -2.7655412    2.6420927 
C     1.6694818   -4.1406258    2.4131649 
C     1.4096556   -5.0054555    3.4823367 
H     1.1547109   -5.1969252    5.6297612 
H     1.5744666   -2.7672891    6.0665161 
H     2.0783666   -1.2322364    4.1688881 
H     1.7114028   -4.5427974    1.3963179 
H     1.2475690   -6.0707853    3.2894916 
C     2.1762721   -1.4540259   -5.0060743 
C     1.2912069   -2.1167096   -4.1387156 
C     1.4417627   -2.0003304   -2.7529565 
C     2.4906047   -1.2262756   -2.1979287 
C     3.3819564   -0.5803645   -3.0846285 
C     3.2227836   -0.6867542   -4.4723677 
H     2.0522849   -1.5392933   -6.0903867 
H     0.4708649   -2.7162141   -4.5469670 
H     0.7172394   -2.4875521   -2.0907848 
H     4.2153437    0.0028115   -2.6773754 
H     3.9247169   -0.1763062   -5.1400750 
N     0.9495670    1.7856152    2.6406055 
C     2.4058782    2.4005995   -1.1089558 
C    -0.4384580    1.9925080   -2.0407350 
C    -2.6001062   -0.0879317    0.3605156 
C    -1.5127165   -1.9940582    2.5200984 
C    -2.4868507   -0.8937030   -0.9561455 
C    -4.0241533   -0.1773099    0.9516874 
C    -2.5149294   -1.9074244    3.6931530 
C    -1.8599232   -3.1550064    1.5591315 
C     2.4727205    3.7751161   -1.8094887 
C     3.4498777    2.3483729    0.0319092 
C     0.1985004    1.3739941   -3.3047123 
C    -1.0375418    3.3896303   -2.3246830 
C    -1.4080141    0.9640303    2.7993817 
C     0.0769882    3.0785323    0.6346722 
C    -3.5491634   -0.4349177   -1.9714957 
C    -5.0740462    0.2806176   -0.0789880 
C    -2.6291546   -3.2635654    4.4167408 
C    -2.0132115   -4.4942781    2.3011176 
C     3.8937556    4.0276010   -2.3543996 
C     4.8694965    2.5683559   -0.5192536 
C    -0.8112383    1.3160351   -4.4628591 
C    -2.0343151    3.3166549   -3.4997154 
C    -4.9672053   -0.5238742   -1.3845268 
C    -3.0272388   -4.3880385    3.4493367 
C     4.9654448    3.9133668   -1.2586283 
C    -1.3992051    2.7047121   -4.7589587 
C    -0.1098507    1.3221496    3.5409319 
C     0.7409407    3.1048669    2.0291126 
H    -2.4152540    0.9772004    0.1004674 
H    -0.5205918   -2.2158199    2.9567472 
H     2.6835769    1.6288509   -1.8532372 
H    -1.2798354    1.3373000   -1.7501521 
H     3.2330462    3.1517884    0.7599962 
H     1.0695544    1.9789504   -3.6192270 
H     0.5786278    0.3646661   -3.0791392 
H    -1.5558688    3.7825635   -1.4326488 
H    -0.2363334    4.1093241   -2.5710447 
H     3.3767277    1.3960246    0.5866146 
H     1.7505793    3.8293032   -2.6398777 
H     2.2005716    4.5738024   -1.0919207 
H    -2.8145385   -2.9316228    1.0486706 
H    -1.0845705   -3.2341362    0.7729143 
H    -2.1917806   -1.1403470    4.4188321 
H    -3.5127172   -1.6040906    3.3267742 
H    -4.2350923   -1.2243721    1.2380936 
H    -4.1045500    0.4292892    1.8714820 
H    -1.4664286   -0.7916315   -1.3737053 
H    -2.6307850   -1.9682973   -0.7512736 
H    -1.7916054    1.8418165    2.2520439 
H    -2.1892455    0.6935495    3.5283622 
H     0.1770993    4.0759951    0.1707449 
H    -1.0073628    2.8840425    0.7142454 
H     5.6037587    2.5262696    0.3052684 
H     4.1016826    3.2856868   -3.1506228 
H     3.9350391    5.0226848   -2.8323371 
H    -2.3150702   -5.2776730    1.5825998 
H    -1.0333699   -4.7944545    2.7121688 
H    -1.6518733   -3.5071586    4.8782047 
H    -3.3608645   -3.1784476    5.2401449 
H    -6.0854504    0.1853068    0.3547788 
H    -4.9227216    1.3568801   -0.2965142 
H    -3.3456561    0.6137545   -2.2645791 
H    -3.4677491   -1.0388339   -2.8930884 
H     5.1248714    1.7427062   -1.2127599 
H    -0.3158895    0.8996268   -5.3581074 
H    -1.6275117    0.6161210   -4.1979141 
H    -2.9048524    2.7023423   -3.1950214 
H    -2.4241278    4.3280791   -3.7127051 
H    -5.7090210   -0.1630920   -2.1189645 
H    -5.2133037   -1.5848247   -1.1811928 
H    -3.0979694   -5.3502520    3.9872445 
H    -4.0355006   -4.1802068    3.0387284 
H     5.9723196    4.0430522   -1.6935238 
H     4.8291620    4.7354051   -0.5282749 
H    -2.1461540    2.6438124   -5.5704322 
H    -0.5924482    3.3722968   -5.1215593 
H     0.1303661    3.7639129    2.6854372 
H     1.7240167    3.5914636    1.9373161 
H     0.2667904    0.4305042    4.0732531 
H    -0.3574437    2.0827966    4.3162967 
H     1.8441359    1.7735683    3.1332146 
