113
Energy =
C     1.6603470   -2.4835688    0.9575849 
C     2.1054271   -2.0911915   -0.3320710 
C     2.9410451   -0.9595352   -0.4944652 
H     1.7365507   -2.6251671   -1.2174768 
Pd    0.9110269   -0.4024231    0.3790566 
P     0.7077732    1.6784680   -0.7539895 
P    -1.1154892   -0.3227713    1.6468087 
H     2.2854056   -2.1856224    1.8121972 
H     3.5197948   -0.6462079    0.3874608 
C    -0.7439884   -5.9919052    1.6367980 
C    -0.9171186   -5.2439967    0.4592792 
C    -0.1376602   -4.1068325    0.2270439 
C     0.8247653   -3.6805430    1.1720402 
C     0.9988456   -4.4516122    2.3421175 
C     0.2251231   -5.5973315    2.5708469 
H    -1.3553653   -6.8815182    1.8188687 
H    -1.6655831   -5.5495658   -0.2794231 
H    -0.2907516   -3.5255288   -0.6880246 
H     1.7544631   -4.1487971    3.0752338 
H     0.3788298   -6.1832041    3.4830117 
C     4.6536620    0.3778960   -4.2136006 
C     3.4114498   -0.2797783   -4.2184483 
C     2.8476119   -0.7322663   -3.0213890 
C     3.5050102   -0.5246330   -1.7868220 
C     4.7637601    0.1163471   -1.8008608 
C     5.3334701    0.5617761   -3.0006702 
H     5.0925786    0.7330398   -5.1514099 
H     2.8799477   -0.4412327   -5.1623001 
H     1.8771113   -1.2357435   -3.0446651 
H     5.2986371    0.2640948   -0.8565146 
H     6.3108720    1.0551013   -2.9877998 
N     0.7326655    2.4158357    2.2033113 
C     2.3098977    2.5991512   -1.1180602 
C     0.0073132    1.4160010   -2.4961570 
C    -2.5983420   -0.2973248    0.4846881 
C    -1.3589091   -1.7216262    2.8823515 
C    -2.7610465   -1.6699477   -0.2061841 
C    -3.9438154    0.2462657    1.0189237 
C    -0.3275425   -1.5811635    4.0286502 
C    -2.7886622   -1.8754344    3.4466060 
C     2.1052347    3.9600956   -1.8215919 
C     3.2649796    2.7351261    0.0884295 
C    -0.9777881    2.4896841   -3.0135320 
C    -0.6355106    0.0223024   -2.6586531 
C    -1.3800588    1.1962538    2.7054495 
C    -0.4093561    2.9454290    0.0309202 
C    -3.8509106   -1.6372120   -1.2933912 
C    -4.9903637    0.2865590   -0.1117314 
C    -0.4382219   -2.7212218    5.0583841 
C    -2.8671891   -3.0308562    4.4635957 
C     3.4569655    4.5810966   -2.2251612 
C     4.6050382    3.3720951   -0.3266426 
C    -1.3495287    2.2216779   -4.4854655 
C    -0.9926113   -0.2635438   -4.1260345 
C    -5.1824875   -1.0989164   -0.7482819 
C    -1.8654256   -2.8419925    5.6112318 
C     4.3919077    4.7288728   -1.0156068 
C    -1.9376201    0.8150912   -4.6804501 
C    -0.1259791    1.8870407    3.2588130 
C     0.1505865    3.4733572    1.3685893 
H    -2.2555885    0.4169108   -0.2916167 
H    -1.1175874   -2.6357532    2.3099927 
H     2.7981072    1.9202508   -1.8430731 
H     0.9169474    1.4417178   -3.1293276 
H     2.8067106    3.3811594    0.8578604 
H    -1.8966249    2.4671910   -2.3951913 
H    -0.5546461    3.5040832   -2.9177827 
H     0.0269679   -0.7606398   -2.2474519 
H    -1.5586346   -0.0126619   -2.0548722 
H     3.4226740    1.7483121    0.5584788 
H     1.4740374    3.8420196   -2.7186809 
H     1.5767403    4.6592285   -1.1444860 
H    -3.1063066   -0.9371902    3.9432266 
H    -3.5031234   -2.0642983    2.6291871 
H     0.6960272   -1.5304386    3.6125664 
H    -0.5045020   -0.6272243    4.5612438 
H    -4.3224426   -0.3901597    1.8359948 
H    -3.8161171    1.2588566    1.4394743 
H    -1.7934765   -1.9726352   -0.6428480 
H    -3.0179494   -2.4387215    0.5462059 
H    -1.9615345    1.9181941    2.1085984 
H    -2.0396571    0.9030462    3.5412113 
H    -0.5642302    3.7865433   -0.6653871 
H    -1.3920873    2.4594782    0.1598361 
H     5.2519285    3.4821564    0.5624584 
H     3.9367143    3.9320044   -2.9836428 
H     3.2825073    5.5600497   -2.7065661 
H    -3.8989076   -3.1047167    4.8517244 
H    -2.6520716   -3.9831761    3.9404882 
H    -0.1598670   -3.6751081    4.5775002 
H     0.2864759   -2.5472998    5.8742064 
H    -5.9471227    0.6685846    0.2865403 
H    -4.6607259    1.0052864   -0.8890820 
H    -3.5148351   -0.9899261   -2.1274684 
H    -3.9806297   -2.6499028   -1.7155658 
H     5.1309062    2.6955912   -1.0244605 
H    -2.0632369    2.9904588   -4.8318675 
H    -0.4401492    2.3303246   -5.1086975 
H    -0.0628581   -0.2889346   -4.7287077 
H    -1.4545446   -1.2640193   -4.2103641 
H    -5.9348447   -1.0507065   -1.5553778 
H    -5.5792982   -1.7987460    0.0134701 
H    -1.9299913   -3.6844901    6.3225327 
H    -2.1248353   -1.9265849    6.1796345 
H     5.3611757    5.1559086   -1.3287653 
H     3.9492354    5.4452514   -0.2947969 
H    -2.1493671    0.6320977   -5.7488091 
H    -2.9088405    0.7501662   -4.1502098 
H    -0.6484285    4.0325858    1.9030275 
H     0.9389128    4.2108201    1.1445448 
H     0.4740858    1.1793468    3.8542619 
H    -0.4761974    2.6846308    3.9552562 
H     1.6203340    2.7226358    2.6041589 
