113
Energy =
C     1.8590791   -1.2143039   -1.6027614 
C     1.5760226   -2.1626886   -0.5793112 
C     0.2997611   -2.7291807   -0.4156278 
H     2.3697390   -2.4278703    0.1289669 
Pd    0.3516641   -0.3382832   -0.1465539 
P    -1.4475006   -0.1733289    1.4192965 
P     0.5509528    1.8853211   -0.8975153 
H     1.1809132   -1.2202773   -2.4677097 
H    -0.4096714   -2.6025827   -1.2448898 
C     5.9026559   -0.1480732   -2.6493687 
C     4.8667705   -0.0412647   -3.5891188 
C     3.5525712   -0.3614426   -3.2263389 
C     3.2389131   -0.7847739   -1.9132998 
C     4.2934737   -0.8691299   -0.9737038 
C     5.6085136   -0.5657673   -1.3406584 
H     6.9325083    0.0912528   -2.9325977 
H     5.0847822    0.2759846   -4.6141240 
H     2.7576629   -0.3095811   -3.9775104 
H     4.0876888   -1.1779876    0.0565912 
H     6.4094299   -0.6461713   -0.5986973 
C    -0.6666135   -6.0657693    2.1281221 
C    -1.5709480   -5.6195791    1.1523543 
C    -1.2447949   -4.5257503    0.3434676 
C    -0.0177389   -3.8357225    0.5001127 
C     0.8877562   -4.3099247    1.4787655 
C     0.5682895   -5.4133025    2.2765976 
H    -0.9135499   -6.9264895    2.7577004 
H    -2.5257695   -6.1359034    1.0098195 
H    -1.9386844   -4.2102110   -0.4418241 
H     1.8557607   -3.8193926    1.6191463 
H     1.2885977   -5.7684549    3.0205941 
N     0.5108412    2.5190635    2.4096098 
C    -3.0986983   -0.3898987    0.5373459 
C    -1.2151819   -1.4378105    2.7955705 
C     2.3004053    2.4695307   -1.1935399 
C    -0.3464314    2.1025481   -2.5375581 
C     2.4012145    3.9092512   -1.7445570 
C     3.2025515    2.2697448    0.0477360 
C     0.3667810    1.4375458   -3.7300715 
C    -1.8053362    1.6046293   -2.4356542 
C    -3.0788902   -1.4970716   -0.5318587 
C    -4.3598785   -0.5301507    1.4185537 
C    -2.1654706   -1.2925302    4.0069364 
C     0.2671175   -1.4090952    3.2563076 
C    -0.2546440    3.2657295    0.0621341 
C    -1.8139684    1.4118662    2.3317296 
C     3.8669244    4.2737616   -2.0485846 
C     4.6569268    2.6670946   -0.2623009 
C    -0.4032065    1.6773372   -5.0422161 
C    -2.5749094    1.8333706   -3.7488086 
C    -4.3513920   -1.4628575   -1.3970421 
C    -5.6334845   -0.4742291    0.5518443 
C    -1.8678114   -2.3532554    5.0834487 
C     0.5506358   -2.4188021    4.3834085 
C     4.7510087    4.1022184   -0.8035663 
C    -1.8549084    1.1831865   -4.9404473 
C    -5.6211010   -1.5589601   -0.5365690 
C    -0.4140010   -2.2521580    5.5660093 
C     0.3417062    3.6006742    1.4534134 
C    -0.6695000    2.0835075    3.1322430 
H     2.6714544    1.7739136   -1.9702595 
H    -0.3617326    3.1975442   -2.7087745 
H    -3.1650464    0.5815941    0.0049072 
H    -1.4033330   -2.4147274    2.3085137 
H    -4.3261199   -1.5031067    1.9437728 
H    -2.0335540   -0.2941358    4.4648490 
H    -3.2179673   -1.3620346    3.6909181 
H     0.9268500   -1.6018931    2.3896209 
H     0.5209443   -0.3949097    3.6176158 
H    -4.3993488    0.2559696    2.1921178 
H    -2.1823973   -1.3886057   -1.1686637 
H    -3.0007133   -2.4761290   -0.0258884 
H    -1.7875225    0.5226677   -2.2007571 
H    -2.3318538    2.1041453   -1.6026241 
H     1.4010443    1.8109820   -3.8253431 
H     0.4312101    0.3491384   -3.5445019 
H     2.8415372    2.8862118    0.8897849 
H     3.1497530    1.2154399    0.3766326 
H     1.7872364    4.0232832   -2.6562910 
H     2.0049564    4.6243514   -0.9985308 
H    -0.1981823    4.1636082   -0.5813161 
H    -1.3223162    3.0022114    0.1336245 
H    -2.2225154    2.1099926    1.5819346 
H    -2.6472760    1.1874539    3.0212989 
H    -6.5232493   -0.5828721    1.1973294 
H    -4.3663630   -0.5163945   -1.9734106 
H    -4.3203506   -2.2824103   -2.1376703 
H    -3.6008864    1.4349210   -3.6494458 
H    -2.6739669    2.9220165   -3.9263171 
H    -0.3969212    2.7605866   -5.2728019 
H     0.1209017    1.1747278   -5.8747725 
H     5.2722819    2.5510277    0.6480033 
H     5.0651717    1.9691806   -1.0147673 
H     4.2417930    3.6184473   -2.8592569 
H     3.9184275    5.3108326   -2.4256787 
H    -5.7052508    0.5249221    0.0784303 
H    -2.5706924   -2.2240673    5.9257907 
H    -2.0506726   -3.3626887    4.6652343 
H     0.4426175   -3.4411873    3.9811734 
H     1.6002480   -2.3119839    4.7125403 
H     5.8003741    4.3507326   -1.0423197 
H     4.4261962    4.8179880   -0.0223134 
H    -2.3989040    1.3923495   -5.8783804 
H    -1.8575617    0.0821447   -4.8117305 
H    -6.5218929   -1.4788808   -1.1705452 
H    -5.6602241   -2.5564156   -0.0558395 
H    -0.2069731   -3.0163102    6.3361867 
H    -0.2546029   -1.2662250    6.0462314 
H    -0.3482761    1.4098021    3.9455147 
H    -1.1025747    2.9712522    3.6310250 
H    -0.3062216    4.3628984    1.9244055 
H     1.3178544    4.0942535    1.2992458 
H     1.0490771    1.7347952    2.0280577 
