113
Energy =
C     1.0947471   -2.6521712    0.7472076 
C     1.7467147   -2.1643947   -0.4121307 
C     2.6861261   -1.1087092   -0.3711755 
H     1.4531530   -2.5631858   -1.3909646 
Pd    0.6411077   -0.3979549    0.3578934 
P     0.6405757    1.6794177   -0.7734596 
P    -1.2482053   -0.1744760    1.8129177 
H     1.5990847   -2.5091662    1.7130862 
H     3.1643619   -0.9018683    0.5986564 
C    -1.7428661   -5.8975321    0.6554714 
C    -1.4852829   -5.1609576   -0.5133553 
C    -0.5696560   -4.1051416   -0.4957995 
C     0.1212023   -3.7593055    0.6905240 
C    -0.1284561   -4.5310630    1.8490887 
C    -1.0546441   -5.5815669    1.8360852 
H    -2.4668616   -6.7184045    0.6409722 
H    -2.0100596   -5.4072947   -1.4422282 
H    -0.4093895   -3.5274527   -1.4121674 
H     0.4230850   -4.3093851    2.7686596 
H    -1.2303384   -6.1613866    2.7481569 
C     4.9701655    0.2863044   -3.7447891 
C     3.6908910   -0.2593187   -3.9507462 
C     2.9407509   -0.7257735   -2.8673048 
C     3.4437203   -0.6409614   -1.5473078 
C     4.7360041   -0.1030901   -1.3578897 
C     5.4940700    0.3498725   -2.4456740 
H     5.5570007    0.6495794   -4.5943981 
H     3.2783597   -0.3231840   -4.9630911 
H     1.9460657   -1.1430351   -3.0482508 
H     5.1493151   -0.0433305   -0.3451598 
H     6.4961434    0.7571312   -2.2769952 
N     0.5532680    2.7632922    2.3023207 
C     2.2934981    2.5168001   -1.0885529 
C    -0.0105697    1.3573594   -2.5274767 
C    -2.9089531   -0.5405917    1.0175384 
C    -1.1077742   -1.4308540    3.1990604 
C    -3.3667171    0.5577879    0.0336314 
C    -2.8452625   -1.9164568    0.3257313 
C     0.1210707   -1.1407252    4.0916962 
C    -2.3708067   -1.6412086    4.0609034 
C     2.1698426    3.8709718   -1.8240162 
C     3.1785916    2.6277330    0.1750846 
C    -0.9724226    2.4275606   -3.0918803 
C    -0.6421326   -0.0448648   -2.6818048 
C    -1.6058776    1.4260530    2.7056909 
C    -0.4521090    3.0069080   -0.0610398 
C    -4.6800814    0.1777053   -0.6763697 
C    -4.1628769   -2.2784032   -0.3772271 
C     0.3478992   -2.2630449    5.1204842 
C    -2.1372568   -2.7725822    5.0829148 
C     3.5606816    4.4547419   -2.1384014 
C     4.5507137    3.2471386   -0.1517494 
C    -1.3227209    2.1267513   -4.5624714 
C    -0.9842683   -0.3490344   -4.1497088 
C    -4.5798996   -1.1875505   -1.3749344 
C    -0.9118135   -2.4993196    5.9691486 
C     4.4048024    4.6010659   -0.8633703 
C    -1.9216044    0.7216116   -4.7307865 
C    -0.4209092    2.2632275    3.2530824 
C     0.0883874    3.6489644    1.2445843 
H    -3.6396280   -0.5805384    1.8489324 
H    -0.9202394   -2.3740660    2.6565226 
H     2.7929731    1.8078832   -1.7762418 
H     0.9194704    1.3727042   -3.1303597 
H     2.6903102    3.2557996    0.9403618 
H    -1.9017321    2.4363438   -2.4900858 
H    -0.5327448    3.4367361   -3.0149871 
H     0.0302997   -0.8165158   -2.2667027 
H    -1.5658038   -0.0958383   -2.0792354 
H     3.3058852    1.6252914    0.6248518 
H     1.5972900    3.7496375   -2.7603491 
H     1.6137730    4.5931206   -1.1963851 
H    -2.6242297   -0.7080849    4.6012718 
H    -3.2390025   -1.8954472    3.4282836 
H     1.0232008   -0.9896013    3.4679196 
H    -0.0441648   -0.1961488    4.6423465 
H    -2.0274603   -1.8862031   -0.4188085 
H    -2.5744184   -2.7051500    1.0490358 
H    -3.5044829    1.5199203    0.5580216 
H    -2.5764237    0.7150781   -0.7237691 
H    -2.1980999    2.0483411    2.0144673 
H    -2.2874744    1.1617537    3.5362330 
H    -0.5840125    3.7989895   -0.8181468 
H    -1.4374970    2.5373434    0.0882782 
H     5.1345307    3.3556146    0.7798209 
H     4.0808485    3.7838441   -2.8500315 
H     3.4433775    5.4296594   -2.6446044 
H    -3.0422139   -2.9012317    5.7030705 
H    -1.9917835   -3.7232695    4.5329991 
H     0.6174275   -3.1984356    4.5928154 
H     1.2082068   -2.0075258    5.7644662 
H    -4.0484281   -3.2533906   -0.8839539 
H    -4.9596641   -2.4081033    0.3812479 
H    -5.4974030    0.1464660    0.0700952 
H    -4.9451207    0.9690376   -1.4008601 
H     5.1138725    2.5582262   -0.8070868 
H    -2.0230248    2.8943076   -4.9373502 
H    -0.4034712    2.2108481   -5.1749516 
H    -0.0485318   -0.3839655   -4.7429680 
H    -1.4450536   -1.3510196   -4.2237515 
H    -5.5430735   -1.4439702   -1.8504194 
H    -3.8307835   -1.1301838   -2.1904187 
H    -0.7502929   -3.3379537    6.6695355 
H    -1.1038234   -1.6021609    6.5902855 
H     5.4002456    5.0127468   -1.1071004 
H     3.9193573    5.3284555   -0.1826348 
H    -2.1281753    0.5170590   -5.7961363 
H    -2.8956751    0.6739326   -4.2041242 
H    -0.7041302    4.2934167    1.6673192 
H     0.9109321    4.3340537    0.9666810 
H     0.1269916    1.6903587    4.0185576 
H    -0.8630658    3.1312672    3.7789737 
H     1.1605520    2.0173357    1.9511552 
