113
Energy =
C     0.8131166   -2.5725405    0.4695459 
C     1.3154616   -2.2036528   -0.8038840 
C     2.3076964   -1.2112456   -0.9674515 
H     0.8620500   -2.6507322   -1.6961845 
Pd    0.3689454   -0.3713941   -0.0020398 
P     0.5397873    1.8562361   -0.8011984 
P    -1.4545413   -0.2949890    1.5186747 
H     1.4561721   -2.3720234    1.3383469 
H     2.9088896   -0.9515920   -0.0840715 
C    -2.0198510   -5.7600417    1.1091446 
C    -1.9427987   -5.1375771   -0.1481038 
C    -1.0324537   -4.0990650   -0.3699958 
C    -0.1668492   -3.6605780    0.6595189 
C    -0.2375055   -4.3180916    1.9103072 
C    -1.1578827   -5.3491043    2.1366234 
H    -2.7386106   -6.5675734    1.2808794 
H    -2.6024831   -5.4619242   -0.9595468 
H    -1.0120658   -3.6096121   -1.3490624 
H     0.4517913   -4.0244917    2.7096952 
H    -1.1934257   -5.8401988    3.1145894 
C     4.2395133   -0.2451536   -4.6945510 
C     3.0900616   -1.0532743   -4.6972158 
C     2.4441922   -1.3681987   -3.4974029 
C     2.9392601   -0.8914081   -2.2596042 
C     4.1156481   -0.1068261   -2.2730336 
C     4.7523905    0.2232279   -3.4753590 
H     4.7376418    0.0066290   -5.6361255 
H     2.6893869   -1.4321695   -5.6429291 
H     1.5376089   -1.9804586   -3.5303330 
H     4.5359480    0.2405363   -1.3231860 
H     5.6579849    0.8385405   -3.4596974 
N    -0.2639685    2.6292469    2.3144917 
C     2.2761968    2.5304190   -0.6380534 
C     0.0789005    2.0188194   -2.6316826 
C    -2.8436002   -1.3781825    0.8513865 
C    -0.8770459   -1.0688647    3.1242891 
C    -4.2207882   -1.2889472    1.5468318 
C    -3.0003252   -1.1286384   -0.6675851 
C     0.5060747   -0.5286682    3.5634867 
C    -1.8633634   -1.0826674    4.3128248 
C     2.4404517    4.0252342   -0.9953464 
C     2.9147745    2.2126078    0.7344380 
C    -0.9954873    0.9639073   -2.9785486 
C     1.2643399    1.9466798   -3.6153606 
C    -2.3528666    1.2615476    2.0038618 
C    -0.5717193    3.1953382   -0.1233541 
C    -5.2122783   -2.2865601    0.9166550 
C    -4.0295083   -2.0762315   -1.3083552 
C     1.0751092   -1.3606948    4.7255860 
C    -1.2845013   -1.9104406    5.4779854 
C     3.9298820    4.4177957   -0.9831150 
C     4.3957831    2.6328213    0.7611224 
C    -1.4629136    1.0785406   -4.4389137 
C     0.7859607    2.0471656   -5.0758648 
C    -5.3849756   -2.0230884   -0.5870923 
C     0.0983559   -1.3996703    5.9125499 
C     4.5738833    4.1116632    0.3789924 
C    -0.2742487    0.9855801   -5.4076501 
C    -1.5641442    2.2554805    2.8680708 
C    -0.2993949    3.6868018    1.3055236 
H    -2.4518334   -2.4032361    0.9913503 
H    -0.7363244   -2.1194439    2.8100641 
H     2.8248665    1.9394771   -1.3970426 
H    -0.3815715    3.0220731   -2.7265966 
H     2.3684184    2.7418144    1.5356577 
H    -0.5641414   -0.0432127   -2.8055022 
H    -1.8557097    1.0575361   -2.2918397 
H     1.9902270    2.7517809   -3.4148266 
H     1.7978409    0.9946952   -3.4756562 
H     2.8081833    1.1353754    0.9588964 
H     1.9936931    4.2471804   -1.9805211 
H     1.9027239    4.6499737   -0.2578092 
H    -2.0576306   -0.0498908    4.6601279 
H    -2.8350983   -1.5050374    4.0098595 
H     1.2006565   -0.5194023    2.7024393 
H     0.4126217    0.5246727    3.8822164 
H    -3.3198272   -0.0794601   -0.8299582 
H    -2.0171762   -1.2360146   -1.1623331 
H    -4.1340998   -1.4816801    2.6290569 
H    -4.6314251   -0.2675054    1.4325366 
H    -2.7243085    1.7275470    1.0748648 
H    -3.2464467    0.9465918    2.5705950 
H    -0.4728807    4.0559185   -0.8097110 
H    -1.6056032    2.8267973   -0.2407139 
H     4.8213044    2.4366971    1.7617648 
H     4.4579298    3.8552339   -1.7782815 
H     4.0346608    5.4895641   -1.2292525 
H    -1.9888209   -1.8936853    6.3288620 
H    -1.2019580   -2.9676661    5.1564011 
H     1.2686921   -2.3943824    4.3750049 
H     2.0508710   -0.9477727    5.0389160 
H    -4.1452113   -1.8256212   -2.3786779 
H    -3.6373297   -3.1091139   -1.2616855 
H    -4.8383142   -3.3174315    1.0734364 
H    -6.1842563   -2.2166726    1.4369321 
H     4.9656514    2.0047998    0.0482866 
H    -2.2063530    0.2889970   -4.6527856 
H    -1.9803709    2.0475937   -4.5816125 
H     0.3627093    3.0553908   -5.2554853 
H     1.6583857    1.9453030   -5.7463701 
H    -6.0830558   -2.7556735   -1.0299450 
H    -5.8412849   -1.0237234   -0.7313687 
H     0.5027614   -2.0313532    6.7233085 
H    -0.0049518   -0.3782877    6.3299615 
H     5.6460758    4.3761541    0.3652737 
H     4.1023433    4.7478868    1.1544575 
H    -0.6176480    1.0986414   -6.4513459 
H     0.1818956   -0.0209173   -5.3289094 
H    -1.0600085    4.4650255    1.5477230 
H     0.6783150    4.1953105    1.3200270 
H    -1.3882745    1.7985229    3.8556862 
H    -2.2137726    3.1443421    3.0433709 
H     0.3511978    2.9180406    3.0776294 
