113
Energy =
C     0.8876522   -2.5730128    0.4968517 
C     1.5322675   -2.0959461   -0.6746908 
C     2.5105222   -1.0779206   -0.6107024 
H     1.2155418   -2.4693404   -1.6563963 
Pd    0.4572021   -0.3475984    0.1352132 
P     0.4963244    1.8484534   -0.7791177 
P    -1.4597257   -0.4020126    1.5763977 
H     1.4291193   -2.4505815    1.4455368 
H     2.9925771   -0.9167588    0.3652711 
C    -2.0126628   -5.7597635    0.5383851 
C    -1.2821293   -5.4409827    1.6928210 
C    -0.3344811   -4.4104585    1.6611935 
C    -0.1088547   -3.6603124    0.4826829 
C    -0.8452282   -4.0035418   -0.6757944 
C    -1.7784341   -5.0448875   -0.6484071 
H    -2.7508813   -6.5677162    0.5577224 
H    -1.4406852   -6.0052128    2.6175868 
H     0.2546330   -4.1908183    2.5587661 
H    -0.7038232   -3.4390681   -1.6030924 
H    -2.3334379   -5.2989098   -1.5572577 
C     4.8968002    0.2368450   -3.9392676 
C     3.5804190   -0.2043715   -4.1608443 
C     2.7921820   -0.6373323   -3.0900310 
C     3.2973338   -0.6216966   -1.7696340 
C     4.6257060   -0.1851676   -1.5630215 
C     5.4202930    0.2335251   -2.6378883 
H     5.5114410    0.5755136   -4.7793054 
H     3.1675635   -0.2093110   -5.1751239 
H     1.7670103   -0.9724478   -3.2771733 
H     5.0362351   -0.1778148   -0.5473350 
H     6.4474938    0.5661041   -2.4574096 
N    -0.4209490    2.7113299    2.3642130 
C     2.0480907    2.9155348   -0.5874275 
C     0.1898500    1.7264086   -2.6280169 
C    -2.7986673   -1.5054035    0.8502715 
C    -0.8558596   -1.1888987    3.1680802 
C    -4.1648603   -1.5271121    1.5709913 
C    -2.9775066   -1.1462632   -0.6431365 
C     0.5057185   -0.5989015    3.6148404 
C    -1.8338104   -1.2437042    4.3619886 
C     2.8216314    2.5182337    0.6916871 
C     2.9863346    2.9565588   -1.8134737 
C    -0.2263977    3.0426687   -3.3211032 
C    -0.7950268    0.5968753   -2.9943054 
C    -2.4156860    1.1011069    2.1135193 
C    -0.8140326    3.0258321   -0.1724710 
C    -5.1351601   -2.4955043    0.8667962 
C    -3.9965005   -2.0600165   -1.3459113 
C     1.1130620   -1.4330772    4.7563600 
C    -1.2248991   -2.0708718    5.5123573 
C     4.0251535    3.4457480    0.9358284 
C     4.1943950    3.8769797   -1.5528780 
C    -0.2680617    2.8507870   -4.8493208 
C    -0.8717907    0.4074988   -4.5204148 
C    -5.3406891   -2.1024878   -0.6040043 
C     0.1452568   -1.5269476    5.9477883 
C     4.9606631    3.4791048   -0.2821620 
C    -1.2319452    1.7180911   -5.2391681 
C    -1.6349509    2.1576142    2.9333919 
C    -0.5588148    3.6195686    1.2384306 
H    -2.3599416   -2.5184688    0.9102163 
H    -0.6760588   -2.2297652    2.8412637 
H     1.6532863    3.9410611   -0.4436539 
H     1.1854646    1.4325536   -3.0114541 
H     3.3444671    1.9413761   -2.0454364 
H    -1.2343551    3.3372851   -2.9722240 
H     0.4580138    3.8688647   -3.0565978 
H    -0.4825395   -0.3447979   -2.5035474 
H    -1.8000182    0.8382738   -2.5988801 
H     2.4458169    3.3172449   -2.7037911 
H     2.1560425    2.5348156    1.5735647 
H     3.1712109    1.4745336    0.5798868 
H    -2.0470485   -0.2193334    4.7219181 
H    -2.7981018   -1.6839808    4.0605766 
H     1.2004640   -0.5460273    2.7529209 
H     0.3686377    0.4410361    3.9664764 
H    -3.3104666   -0.0916394   -0.7278374 
H    -1.9982617   -1.2079448   -1.1488884 
H    -4.0488270   -1.8179630    2.6282310 
H    -4.6111439   -0.5147684    1.5606322 
H    -2.8654410    1.5426333    1.2072041 
H    -3.2535336    0.7275512    2.7295547 
H    -0.8504171    3.8628816   -0.8927247 
H    -1.7824203    2.5010504   -0.2339843 
H     4.8627738    3.8507426   -2.4322774 
H     3.6557237    4.4687743    1.1460804 
H     4.5696932    3.1160322    1.8388856 
H    -1.9243630   -2.0851160    6.3671305 
H    -1.1146773   -3.1213602    5.1768423 
H     1.3376198   -2.4518790    4.3805601 
H     2.0758633   -0.9925730    5.0715535 
H    -4.1339757   -1.7231993   -2.3896785 
H    -3.5791304   -3.0826810   -1.3913531 
H    -4.7271156   -3.5237610    0.9233081 
H    -6.0994774   -2.5035819    1.4055487 
H     3.8410432    4.9225372   -1.4540313 
H    -0.5670365    3.7970262   -5.3344066 
H     0.7514853    2.6146861   -5.2128146 
H     0.1111663    0.0500842   -4.8870578 
H    -1.6060592   -0.3823748   -4.7617909 
H    -6.0287885   -2.8097243   -1.1003911 
H    -5.8226054   -1.1058238   -0.6511781 
H     0.5750144   -2.1628766    6.7418798 
H     0.0145347   -0.5182217    6.3867091 
H     5.7969346    4.1783543   -0.1044853 
H     5.4088294    2.4769464   -0.4260911 
H    -1.2267892    1.5679081   -6.3333477 
H    -2.2647333    2.0110287   -4.9653043 
H    -1.3889757    4.3122729    1.4696454 
H     0.3480594    4.2508543    1.1885654 
H    -1.3855869    1.7235967    3.9179020 
H    -2.3236646    2.9976415    3.1413366 
H     0.2868878    1.9900052    2.1961480 
