113
Energy =
C     1.4033758   -0.4370116   -2.1237616 
C     2.3462983    0.2907515   -1.3255540 
C     2.8868092   -0.2613963   -0.1529049 
H     2.6062552    1.3183023   -1.6078534 
Pd    0.4880082   -0.0157532   -0.1339084 
P     0.0658741    0.8903046    2.0037249 
P    -1.5737485   -1.0029207   -0.8054402 
H     1.5102858   -1.5296548   -2.1303945 
H     2.7385928   -1.3414217   -0.0031598 
C    -0.3031411    1.2189326   -5.7183524 
C     0.0455741    2.0661897   -4.6531377 
C     0.5928951    1.5347046   -3.4810726 
C     0.8127927    0.1426045   -3.3466525 
C     0.4500064   -0.6965295   -4.4246044 
C    -0.1014066   -0.1645264   -5.5972713 
H    -0.7315889    1.6348337   -6.6356904 
H    -0.1158571    3.1461682   -4.7353753 
H     0.8369209    2.2040580   -2.6500874 
H     0.6268832   -1.7758053   -4.3499838 
H    -0.3676105   -0.8317609   -6.4234801 
C     6.0142546    1.3280676    2.3311252 
C     5.6637061   -0.0284975    2.3900467 
C     4.6295546   -0.5210348    1.5853506 
C     3.9316995    0.3267564    0.6929534 
C     4.3221521    1.6858687    0.6215674 
C     5.3412110    2.1810960    1.4388636 
H     6.8173814    1.7177883    2.9647312 
H     6.1967116   -0.7054390    3.0653703 
H     4.3607237   -1.5818707    1.6371127 
H     3.8293721    2.3605162   -0.0809979 
H     5.6233511    3.2369022    1.3724887 
N    -1.5365882   -2.0619513    2.4473989 
C    -2.4360355    0.0422914   -2.1097856 
C    -1.1193328   -2.6645875   -1.5616427 
C     1.3841201    0.5196413    3.2909736 
C    -0.0808783    2.7814048    2.0350773 
C     1.1098498    1.1527611    4.6740997 
C     1.6632939   -0.9998676    3.4043002 
C     1.2274990    3.5417732    1.7182597 
C    -1.2515998    3.3253316    1.1782512 
C    -3.1932228   -0.6891770   -3.2382360 
C    -3.3579453    1.0921957   -1.4475575 
C    -2.2797797   -3.6425886   -1.8618675 
C    -0.0310399   -3.4036638   -0.7420634 
C    -1.5621838    0.4888409    2.8269259 
C    -2.9438491   -1.4140374    0.3864713 
C     2.2370210    0.8305518    5.6732452 
C     2.7694465   -1.3000138    4.4328288 
C     1.5122280    3.6649628    0.2142844 
C    -0.9241629    3.4263574   -0.3190743 
C    -3.7120634    0.3262161   -4.2772613 
C    -3.8297814    2.1213564   -2.4894879 
C    -1.7539650   -4.8555224   -2.6556208 
C     0.5093993   -4.6121077   -1.5267992 
C     2.4497692   -0.6847637    5.8034259 
C     0.3314656    4.2749410   -0.5505006 
C    -4.5765198    1.4250972   -3.6391117 
C    -0.6237979   -5.5801503   -1.9065729 
C    -1.7622311   -0.9515734    3.3591470 
C    -2.6039420   -2.4084345    1.5267896 
H     2.2968023    0.9837129    2.8660161 
H    -0.3316143    2.9644643    3.0963885 
H    -1.5932591    0.5833854   -2.5779779 
H    -0.6687145   -2.3652179   -2.5278732 
H    -4.2459354    0.5869361   -1.0224644 
H    -2.7176648   -3.9981206   -0.9105684 
H    -3.0901977   -3.1515930   -2.4208373 
H     0.7874458   -2.7107984   -0.4714004 
H    -0.4619493   -3.7569139    0.2136032 
H    -2.8419684    1.5925830   -0.6101873 
H    -2.5321376   -1.4156131   -3.7409860 
H    -4.0483956   -1.2510041   -2.8146765 
H    -2.1691443    2.7323605    1.3384691 
H    -1.4820295    4.3400644    1.5569477 
H     1.1190998    4.5583727    2.1438199 
H     2.0891950    3.0835713    2.2355771 
H     0.7518368   -1.5371734    3.7178542 
H     1.9362346   -1.3982888    2.4094083 
H     0.9970408    2.2475953    4.5842596 
H     0.1560152    0.7634709    5.0788631 
H    -1.6882560    1.2010742    3.6639423 
H    -2.3333505    0.7414475    2.0802124 
H    -3.3118419   -0.4633039    0.8043851 
H    -3.7682206   -1.8262521   -0.2265303 
H    -4.4764693    2.8749742   -2.0048598 
H    -2.8407400    0.7882901   -4.7773285 
H    -4.2817934   -0.2089530   -5.0581383 
H    -0.7475490    2.4076472   -0.7270397 
H    -1.7899917    3.8420416   -0.8631810 
H     2.4326084    4.2550224    0.0570301 
H     1.6972543    2.6517830   -0.1916458 
H     2.9057907   -2.3935309    4.5145911 
H     3.7253420   -0.8814959    4.0713446 
H     3.1758679    1.3052674    5.3261742 
H     1.9965505    1.2788273    6.6538057 
H    -2.9492799    2.6611302   -2.8897539 
H    -2.5870158   -5.5510243   -2.8617419 
H    -1.3831296   -4.5065437   -3.6399017 
H     1.0112642   -4.2488910   -2.4465044 
H     1.2797768   -5.1328030   -0.9301150 
H     3.2650674   -0.8989901    6.5170304 
H     1.5343227   -1.1513593    6.2185626 
H     0.1524933    5.3109527   -0.2024428 
H     0.5634050    4.3430001   -1.6290130 
H    -4.8798911    2.1625113   -4.4034819 
H    -5.5100851    0.9775896   -3.2444548 
H    -0.2293229   -6.4113019   -2.5175333 
H    -1.0339917   -6.0337496   -0.9829171 
H    -2.3722398   -3.3952948    1.0903313 
H    -3.5259385   -2.5521489    2.1208189 
H    -2.8010313   -1.0330668    3.7288482 
H    -1.1201319   -1.0849934    4.2486006 
H    -0.6226439   -2.0151557    1.9871205 
