113
Energy =
C     2.4531928    1.1678630   -0.4597435 
C     2.3909504    0.0636311   -1.3345930 
C     1.4204061   -0.0372866   -2.3634326 
H     3.0876650   -0.7695048   -1.1862653 
Pd    0.4143606   -0.0324734   -0.2917093 
P    -1.6181311   -1.0222474   -0.9788778 
P    -0.1088985    0.6736397    1.9241777 
H     1.9102797    2.0719225   -0.7640265 
H     0.9334025    0.8993749   -2.6702074 
C     5.7198260    2.0075686    2.2228544 
C     4.7317742    2.9711754    1.9699838 
C     3.6689250    2.6752788    1.1096660 
C     3.5511782    1.4052711    0.4945765 
C     4.5581799    0.4474876    0.7608295 
C     5.6311164    0.7490786    1.6060259 
H     6.5591875    2.2376894    2.8866928 
H     4.7983273    3.9618747    2.4312133 
H     2.9214798    3.4455546    0.8929920 
H     4.5137589   -0.5440445    0.2999308 
H     6.4029678   -0.0055288    1.7883704 
C     1.6759695   -2.9256030   -5.5532779 
C     0.9351753   -1.7448464   -5.7111438 
C     0.8442868   -0.8264336   -4.6584684 
C     1.4759842   -1.0714907   -3.4158823 
C     2.2167065   -2.2684951   -3.2739397 
C     2.3228021   -3.1770646   -4.3320518 
H     1.7568898   -3.6416795   -6.3771722 
H     0.4402430   -1.5292825   -6.6636906 
H     0.2960114    0.1089914   -4.8059738 
H     2.7187647   -2.4969415   -2.3283072 
H     2.9093229   -4.0921309   -4.2014807 
N    -1.3029629   -2.5476486    2.0629049 
C     1.3818726    0.5170677    3.0602611 
C    -0.7695034    2.4409783    1.8580173 
C    -2.6901712    0.1987043   -1.9275234 
C    -1.3846286   -2.4980942   -2.1044021 
C    -2.9144468    1.4862908   -1.1036909 
C    -2.1393272    0.5477909   -3.3218680 
C    -0.4512964   -3.5546925   -1.4644830 
C    -2.7041017   -3.1257590   -2.6048822 
C     1.1072814    0.7271071    4.5682904 
C     2.0671463   -0.8536466    2.8134841 
C    -0.1066796    3.3118294    0.7732383 
C    -0.8360241    3.2135326    3.1936469 
C    -2.8858173   -1.5860298    0.2693108 
C    -1.4900574   -0.1132531    2.8969773 
C    -3.8359095    2.4764295   -1.8379808 
C    -3.0658607    1.5328881   -4.0582423 
C    -0.2214118   -4.7475160   -2.4103359 
C    -2.4238906   -4.2974244   -3.5647811 
C     2.3968995    0.5666231    5.3957530 
C     3.3211086   -1.0374300    3.6869877 
C    -0.8536488    4.6451431    0.5936988 
C    -1.5936864    4.5440590    3.0143621 
C    -3.2943885    2.8114751   -3.2365413 
C    -1.5450804   -5.3622095   -2.8905579 
C     3.0242700   -0.8172104    5.1770360 
C    -0.9570813    5.4146925    1.9199459 
C    -2.4951602   -2.7188067    1.2516942 
C    -1.3904944   -1.6332892    3.1869354 
H    -3.6653555   -0.3127100   -2.0536920 
H    -0.8472299   -2.0782858   -2.9760392 
H     2.0749387    1.3073525    2.7136937 
H    -1.8111880    2.2494018    1.5282097 
H     1.3568090   -1.6710302    3.0385492 
H     0.9405039    3.5127579    1.0633115 
H    -0.0757573    2.7590515   -0.1842936 
H    -1.3250088    2.6108439    3.9786709 
H     0.1933535    3.4265509    3.5389902 
H     2.3261193   -0.9502456    1.7426826 
H     0.6654688    1.7178589    4.7544860 
H     0.3748176   -0.0221123    4.9227633 
H    -3.2878448   -3.5079382   -1.7458072 
H    -3.3302113   -2.3660780   -3.1070844 
H     0.5110447   -3.0796435   -1.1960847 
H    -0.8908733   -3.9318627   -0.5241667 
H    -1.1427356    1.0118314   -3.1998043 
H    -1.9990472   -0.3643842   -3.9268402 
H    -3.3362291    1.2501648   -0.1100447 
H    -1.9296838    1.9602811   -0.9301718 
H    -3.1959474   -0.6804414    0.8146721 
H    -3.7657370   -1.9056564   -0.3193075 
H    -1.5448464    0.4321755    3.8568368 
H    -2.4209784    0.1257920    2.3566950 
H     3.7414236   -2.0447962    3.5139450 
H     3.1205965    1.3519200    5.1011034 
H     2.1664776    0.7286172    6.4639934 
H    -3.3808658   -4.7347951   -3.9012400 
H    -1.9105540   -3.9129447   -4.4679440 
H     0.3516466   -4.4012328   -3.2885598 
H     0.3999712   -5.5054552   -1.9000483 
H    -2.6348350    1.7775128   -5.0456815 
H    -4.0382751    1.0393755   -4.2518164 
H    -4.8467970    2.0334818   -1.9287151 
H    -3.9465499    3.3948881   -1.2334143 
H     4.0876723   -0.3112807    3.3645776 
H    -0.3447206    5.2565864   -0.1731490 
H    -1.8711696    4.4355169    0.2077061 
H    -2.6464968    4.3258223    2.7472566 
H    -1.6176276    5.0863711    3.9763555 
H    -3.9876236    3.4896644   -3.7646808 
H    -2.3345067    3.3565362   -3.1341630 
H    -1.3457035   -6.1940290   -3.5893091 
H    -2.0913253   -5.7963492   -2.0295098 
H     3.9511330   -0.9197305    5.7689456 
H     2.3270800   -1.5977796    5.5414946 
H    -1.5381158    6.3434558    1.7808908 
H     0.0574312    5.7216153    2.2427221 
H    -2.2843527   -1.9142146    3.7748800 
H    -0.5272003   -1.8147623    3.8507526 
H    -2.4031681   -3.6611602    0.6835487 
H    -3.3471344   -2.8684803    1.9409299 
H    -0.4598460   -2.4009766    1.4985806 
