113
Energy =
C     1.7491008   -0.7796444   -1.9901366 
C     2.2564374    0.3818079   -1.3659096 
C     2.6945386    0.3944955   -0.0184154 
H     2.2420798    1.3275763   -1.9202661 
Pd    0.4569049   -0.1220270   -0.1693891 
P     0.0273139    0.6324908    2.0475545 
P    -1.6158699   -1.0067565   -0.9332695 
H     1.9885836   -1.7462817   -1.5237324 
H     2.9902701   -0.5688717    0.4211554 
C     0.7844433   -1.0907552   -6.1765606 
C     0.9913316    0.1755490   -5.6038634 
C     1.2923535    0.2957127   -4.2434932 
C     1.4066449   -0.8513619   -3.4213815 
C     1.2251373   -2.1192065   -4.0210597 
C     0.9068292   -2.2387521   -5.3791687 
H     0.5412825   -1.1806778   -7.2399927 
H     0.9074138    1.0757215   -6.2211829 
H     1.4250305    1.2953280   -3.8181335 
H     1.3458676   -3.0207198   -3.4108543 
H     0.7654573   -3.2314717   -5.8188257 
C     4.5241416    3.8021618    1.8866608 
C     3.6897688    3.9916374    0.7721896 
C     3.0847928    2.8969795    0.1460086 
C     3.3047199    1.5805249    0.6147135 
C     4.1705449    1.4055635    1.7199170 
C     4.7670555    2.5022291    2.3543289 
H     4.9905381    4.6619367    2.3780080 
H     3.5064219    5.0020381    0.3924292 
H     2.4174642    3.0722942   -0.7038795 
H     4.3895991    0.3921964    2.0740419 
H     5.4318675    2.3395365    3.2089243 
N    -1.8770588   -2.1427255    2.2830838 
C    -2.4122339    0.0434035   -2.2919251 
C    -1.4151826   -2.7307665   -1.6304603 
C     1.3449875   -0.0897295    3.1674089 
C     0.2208342    2.5042089    2.0944301 
C     1.2428775    0.2131437    4.6784467 
C     1.5483849   -1.6064016    2.9239888 
C    -0.4101858    3.1220723    0.8246453 
C    -0.2990592    3.2368123    3.3517363 
C    -2.0170699    1.5229575   -2.0894450 
C    -2.1214751   -0.4175778   -3.7346050 
C    -2.7296952   -3.4528000   -2.0046761 
C    -0.5278378   -3.6345450   -0.7405634 
C    -1.5861468    0.3415439    2.9242200 
C    -3.0684146   -1.1231578    0.2325823 
C     2.4937519   -0.3094079    5.4134616 
C     2.7994061   -2.1178137    3.6605191 
C    -0.1678039    4.6392274    0.7396715 
C     0.0002620    4.7460587    3.2611954 
C    -2.6928885    2.4414927   -3.1209911 
C    -2.7911526    0.5157938   -4.7608667 
C    -2.4211735   -4.7805373   -2.7226073 
C    -0.2361313   -4.9748914   -1.4413848 
C     2.7207017   -1.8089102    5.1646756 
C    -0.6390212    5.3656375    2.0089291 
C    -2.3847253    1.9834100   -4.5546977 
C    -1.5334308   -5.6891332   -1.8561695 
C    -1.8925566   -1.1258130    3.3176225 
C    -2.9957917   -2.1816712    1.3600238 
H     2.2476671    0.4271035    2.7936129 
H     1.3169179    2.6439884    2.0374337 
H    -3.5023313   -0.0485674   -2.1174896 
H    -0.8534098   -2.5397170   -2.5651918 
H    -1.0348162   -0.4225349   -3.9059470 
H    -3.3113074   -3.6683311   -1.0892856 
H    -3.3663336   -2.8122917   -2.6399354 
H     0.4151331   -3.1122669   -0.4905232 
H    -1.0362454   -3.8406261    0.2198784 
H    -2.4751627   -1.4490127   -3.8956197 
H    -2.2697189    1.8460029   -1.0638505 
H    -0.9151801    1.6068225   -2.1831428 
H    -1.3939727    3.0992697    3.4352130 
H     0.1480763    2.8207592    4.2697600 
H    -0.0098425    2.6153385   -0.0733814 
H    -1.5011486    2.9267946    0.8340806 
H     0.6717514   -2.1720671    3.2901464 
H     1.6221257   -1.8099990    1.8378510 
H     1.1411340    1.2968316    4.8522739 
H     0.3410478   -0.2672404    5.1028926 
H    -1.5515703    0.9469094    3.8478700 
H    -2.3815727    0.7733128    2.2921391 
H    -3.2247886   -0.1063034    0.6333406 
H    -3.9457922   -1.3485674   -0.4021096 
H    -2.5231768    0.1798079   -5.7788350 
H    -3.7883638    2.4295774   -2.9570228 
H    -2.3610818    3.4837711   -2.9621263 
H    -0.3678687    5.2483412    4.1735576 
H     1.0972551    4.8972533    3.2328377 
H     0.9148626    4.8187564    0.6021728 
H    -0.6757080    5.0443548   -0.1545188 
H     2.9135398   -3.2036146    3.4920069 
H     3.6996021   -1.6344468    3.2312361 
H     3.3769256    0.2602906    5.0621559 
H     2.3972623   -0.1069101    6.4950367 
H    -3.8922485    0.4255619   -4.6758002 
H    -3.3655204   -5.2932031   -2.9784124 
H    -1.9078095   -4.5622710   -3.6800086 
H     0.3799312   -4.7874243   -2.3427219 
H     0.3659256   -5.6196106   -0.7763721 
H     3.6404196   -2.1469031    5.6742205 
H     1.8840462   -2.3836767    5.6086190 
H    -0.3991646    6.4419223    1.9451569 
H    -1.7416774    5.2912471    2.0885709 
H    -2.9013545    2.6309146   -5.2852792 
H    -1.2987556    2.0901993   -4.7452909 
H    -1.2979110   -6.6234141   -2.3959252 
H    -2.0932419   -5.9828063   -0.9462835 
H    -3.0262042   -3.1837534    0.8962346 
H    -3.9231948   -2.1010875    1.9570490 
H    -2.8921260   -1.1454746    3.7900765 
H    -1.1822029   -1.4259549    4.1084702 
H    -0.9730553   -2.2061886    1.8065141 
