113
Energy =
C     2.7809101    0.7957183   -0.2396783 
C     2.5197625   -0.1166242   -1.2914777 
C     1.5160923    0.1434211   -2.2526719 
H     3.0638368   -1.0681235   -1.3197987 
Pd    0.6145235   -0.0381187   -0.1452786 
P    -1.4715158   -0.8552563   -0.9304017 
P     0.1261931    0.6009101    2.1068834 
H     2.4409941    1.8308668   -0.3869978 
H     1.1914583    1.1900405   -2.3400213 
C     6.3218471    0.5157802    2.1850751 
C     5.6986845    1.7533675    1.9654780 
C     4.5171603    1.8205271    1.2165559 
C     3.9337117    0.6533362    0.6688037 
C     4.5550399   -0.5905271    0.9311569 
C     5.7398390   -0.6558888    1.6710071 
H     7.2500680    0.4606203    2.7624297 
H     6.1403295    2.6707272    2.3678410 
H     4.0509609    2.7937901    1.0231605 
H     4.1102119   -1.5158439    0.5494543 
H     6.2111667   -1.6266345    1.8551213 
C     0.6770731   -2.1501078   -5.7982257 
C     0.0928647   -0.8892438   -5.6006195 
C     0.3865922   -0.1550401   -4.4463740 
C     1.2499197   -0.6712731   -3.4504225 
C     1.8443139   -1.9347296   -3.6732231 
C     1.5651721   -2.6598215   -4.8368217 
H     0.4562876   -2.7252978   -6.7029414 
H    -0.5825503   -0.4713701   -6.3542414 
H    -0.0536172    0.8380839   -4.3107164 
H     2.5294611   -2.3605878   -2.9339206 
H     2.0431191   -3.6317609   -4.9959317 
N    -1.1172981   -2.5910234    1.8767518 
C     1.6310014    0.8252711    3.2119425 
C    -0.6585521    2.3096647    2.0730057 
C    -2.3558905    0.2998232   -2.1542820 
C    -1.2604702   -2.4258857   -1.9442547 
C    -3.8977344    0.3325920   -2.0391414 
C    -1.8062278    1.7423496   -2.1513367 
C    -0.2979845   -3.4476278   -1.2938093 
C    -2.5907727   -3.0775035   -2.3839899 
C     1.4239990    1.7412254    4.4391680 
C     2.2026367   -0.5452612    3.6390870 
C    -2.1253930    2.3168259    1.5985272 
C     0.2081645    3.2618755    1.2182848 
C    -2.7468844   -1.2710041    0.3628566 
C    -1.0489843   -0.3741531    3.1787370 
C    -4.5154531    1.1730405   -3.1737097 
C    -2.4177980    2.5826386   -3.2855394 
C    -0.0829617   -4.6756053   -2.1981884 
C    -2.3307201   -4.2964122   -3.2903322 
C     2.7288742    1.8779470    5.2495062 
C     3.4985838   -0.3881071    4.4523632 
C    -2.6952079    3.7477765    1.5401135 
C    -0.3673482    4.6883697    1.1976498 
C    -3.9515147    2.6017649   -3.1958499 
C    -1.4178147   -5.3215310   -2.6005417 
C     3.2803910    0.5105503    5.6781572 
C    -1.8205996    4.6912662    0.6984306 
C    -2.4194303   -2.5115048    1.2353922 
C    -0.9375422   -1.9231170    3.1500472 
H    -2.0933953   -0.1556378   -3.1296093 
H    -0.7607425   -2.0482248   -2.8561395 
H     2.3775765    1.3045103    2.5540617 
H    -0.6454330    2.6631467    3.1213632 
H     1.4608568   -1.0662188    4.2722834 
H    -2.1822598    1.8522676    0.5977794 
H    -2.7548326    1.7078106    2.2706910 
H     1.2490891    3.2735788    1.5917986 
H     0.2443428    2.8632743    0.1837340 
H     2.3752553   -1.1780884    2.7484728 
H     1.0902401    2.7454687    4.1258204 
H     0.6314663    1.3265488    5.0931222 
H    -3.1652880   -3.4069285   -1.4974957 
H    -3.2186719   -2.3446428   -2.9204453 
H     0.6690614   -2.9516589   -1.0791685 
H    -0.6954180   -3.7993952   -0.3256390 
H    -2.0472345    2.2201691   -1.1867601 
H    -0.7067007    1.7380918   -2.2210753 
H    -4.3196697   -0.6866643   -2.0647306 
H    -4.1808321    0.7734923   -1.0638806 
H    -2.8770385   -0.3610403    0.9713171 
H    -3.7069089   -1.4536028   -0.1493917 
H    -0.9072785   -0.0080020    4.2132822 
H    -2.0693079   -0.0785272    2.8853041 
H     3.8645928   -1.3853388    4.7560904 
H     3.4836417    2.3958785    4.6254676 
H     2.5465204    2.5215533    6.1286969 
H    -3.2946251   -4.7572650   -3.5712305 
H    -1.8536718   -3.9514375   -4.2287956 
H     0.4538609   -4.3631096   -3.1119089 
H     0.5629860   -5.4051227   -1.6774447 
H    -2.0118614    3.6097739   -3.2452660 
H    -2.1120461    2.1587465   -4.2629395 
H    -4.3053328    0.6785386   -4.1425823 
H    -5.6140795    1.1903732   -3.0601237 
H     4.2776850    0.0552360    3.8091173 
H    -3.7255460    3.7150062    1.1415886 
H    -2.7690848    4.1445530    2.5712431 
H    -0.3271080    5.1113815    2.2204131 
H     0.2637300    5.3357337    0.5626775 
H    -4.3808026    3.1723789   -4.0382079 
H    -4.2538985    3.1288305   -2.2689694 
H    -1.2383467   -6.1843530   -3.2663515 
H    -1.9256638   -5.7178095   -1.6988120 
H     4.2261281    0.6370150    6.2345830 
H     2.5658614    0.0268217    6.3735833 
H    -2.2343495    5.7147412    0.7238007 
H    -1.8422447    4.3705377   -0.3619252 
H    -1.7002964   -2.3128689    3.8506976 
H     0.0378664   -2.2365658    3.5546352 
H    -2.5583050   -3.4100317    0.6060097 
H    -3.1875124   -2.5824131    2.0275079 
H    -0.3459527   -2.3956961    1.2315029 
