113
Energy =
C     1.7490627   -1.1220965   -2.1145517 
C     2.4584299   -0.1646630   -1.3488835 
C     2.8939696   -0.4165848   -0.0274656 
H     2.6061815    0.8400216   -1.7639390 
Pd    0.6172569   -0.5317546   -0.1594796 
P     0.1582310    0.6317408    1.8470896 
P    -1.5378950   -1.4020121   -0.7374011 
H     1.8847108   -2.1817496   -1.8567482 
H     2.9849357   -1.4708156    0.2764128 
C     0.4577474   -0.4017778   -6.1647101 
C     0.7232568    0.6836324   -5.3123857 
C     1.1390442    0.4633347   -3.9963381 
C     1.3084312   -0.8501616   -3.4959520 
C     1.0645522   -1.9293446   -4.3769145 
C     0.6365278   -1.7102819   -5.6923013 
H     0.1248814   -0.2264648   -7.1926493 
H     0.5965796    1.7086663   -5.6759126 
H     1.3111060    1.3253891   -3.3433929 
H     1.2262361   -2.9536990   -4.0255683 
H     0.4532913   -2.5642341   -6.3526749 
C     5.3171339    2.2605189    2.3189047 
C     4.4349365    2.7849978    1.3581499 
C     3.6491143    1.9290388    0.5810195 
C     3.7117722    0.5265792    0.7585637 
C     4.6135823    0.0140378    1.7172147 
C     5.4125206    0.8714421    2.4850516 
H     5.9329722    2.9320323    2.9255847 
H     4.3623205    3.8680483    1.2135187 
H     2.9661984    2.3569921   -0.1583666 
H     4.6886214   -1.0697582    1.8578641 
H     6.1099411    0.4526724    3.2177280 
N    -1.1529947   -2.2574308    2.6143511 
C    -2.6649337   -0.1954987   -1.6312223 
C    -1.3222405   -2.8207572   -1.9456903 
C     1.4066297    0.5061060    3.2464369 
C     0.1739310    2.4840650    1.4325221 
C     0.9993253    1.2944989    4.5121540 
C     1.8122231   -0.9484667    3.5809696 
C     0.1609702    2.7559419   -0.0889313 
C    -0.9155186    3.3351998    2.1236213 
C    -3.2137567    0.9186345   -0.7141662 
C    -1.9125464    0.3974039   -2.8389075 
C    -2.5986780   -3.3060967   -2.6647885 
C    -0.5819787   -4.0070015   -1.2851410 
C    -1.4952113    0.3001118    2.6337252 
C    -2.6886082   -2.0991103    0.5574217 
C     2.1090992    1.2317020    5.5791706 
C     2.8952848   -0.9931184    4.6756220 
C     0.3704155    4.2482264   -0.3949082 
C    -0.7132872    4.8325455    1.8186361 
C    -4.0503512    1.9454085   -1.5012781 
C    -2.7613090    1.4192926   -3.6114099 
C    -2.2467548   -4.3957587   -3.6981594 
C    -0.2421249   -5.1018479   -2.3124310 
C     2.4618860   -0.2212565    5.9314440 
C    -0.6915965    5.1095100    0.3071950 
C    -3.2684553    2.5352112   -2.6858390 
C    -1.5026005   -5.5759898   -3.0536599 
C    -1.6040979   -1.0784774    3.3391157 
C    -2.0935203   -2.9195291    1.7312391 
H     2.2971775    1.0027815    2.8164581 
H     1.1622077    2.8026521    1.8201612 
H    -3.5237361   -0.7949846   -1.9913745 
H    -0.6571773   -2.3889907   -2.7140736 
H    -0.9965778    0.8905423   -2.4617220 
H    -3.3176396   -3.7182405   -1.9299581 
H    -3.1028944   -2.4680100   -3.1766153 
H     0.3318772   -3.6523117   -0.7701342 
H    -1.2299764   -4.4526970   -0.5077820 
H    -1.5740177   -0.4032036   -3.5193357 
H    -3.8331063    0.4906198    0.0939337 
H    -2.3654513    1.4361966   -0.2290747 
H    -1.9116131    3.0197400    1.7576710 
H    -0.9109996    3.1757339    3.2154515 
H     0.9243901    2.1391803   -0.5959795 
H    -0.8092629    2.4359594   -0.5072280 
H     0.9404154   -1.5260168    3.9349758 
H     2.1713287   -1.4506492    2.6632749 
H     0.7875850    2.3479220    4.2580457 
H     0.0699421    0.8716328    4.9386127 
H    -1.6992380    1.0939389    3.3728100 
H    -2.2391351    0.4107657    1.8286380 
H    -3.2590038   -1.2479235    0.9650295 
H    -3.4204320   -2.7193094    0.0062982 
H    -2.1624373    1.8365569   -4.4407793 
H    -4.9662132    1.4506076   -1.8789181 
H    -4.3842050    2.7457194   -0.8161726 
H    -1.5112898    5.4183091    2.3087576 
H     0.2437473    5.1640283    2.2674615 
H     1.3799221    4.5525026   -0.0525958 
H     0.3429544    4.4110071   -1.4878825 
H     3.1230597   -2.0456602    4.9221939 
H     3.8263395   -0.5444074    4.2846184 
H     3.0103605    1.7466785    5.1924228 
H     1.7850064    1.7851634    6.4786642 
H    -3.6252211    0.9030888   -4.0738997 
H    -3.1697791   -4.7448222   -4.1944581 
H    -1.6130756   -3.9450467   -4.4872087 
H     0.4890009   -4.7071977   -3.0441689 
H     0.2506581   -5.9486961   -1.8024204 
H     3.2631757   -0.2484881    6.6910572 
H     1.5789670   -0.7143893    6.3845026 
H    -0.5078803    6.1814245    0.1157073 
H    -1.6868743    4.8769185   -0.1214793 
H    -3.9028110    3.2452249   -3.2452668 
H    -2.4047036    3.1165423   -2.3045099 
H    -1.2373022   -6.3264195   -3.8193909 
H    -2.1764076   -6.0832452   -2.3350984 
H    -1.6038659   -3.8295266    1.3485482 
H    -2.9499545   -3.2662419    2.3410949 
H    -2.6605504   -1.2395375    3.6220327 
H    -1.0481904   -1.0130295    4.2930212 
H    -0.2419428   -2.1196575    2.1675252 
