113
Energy =
C     2.0829905   -1.4726446   -1.6159516 
C     2.5129071   -0.1768447   -1.2597839 
C     2.8796389    0.1530705    0.0740705 
H     2.4916251    0.6143216   -2.0196254 
Pd    0.6958793   -0.4605789   -0.0336643 
P     0.1816892    0.6002042    2.0275161 
P    -1.4590579   -1.1546080   -0.7916211 
H     2.3363836   -2.2928985   -0.9275042 
H     3.2324701   -0.6712419    0.7096905 
C     1.3991784   -2.7616402   -5.6640050 
C     1.1772561   -1.4171533   -5.3180864 
C     1.3874666   -0.9828897   -4.0063659 
C     1.8089034   -1.8876395   -3.0021181 
C     2.0262728   -3.2356026   -3.3652884 
C     1.8340253   -3.6658775   -4.6846596 
H     1.2393640   -3.0983448   -6.6932366 
H     0.8418164   -0.7041401   -6.0783730 
H     1.2055894    0.0659520   -3.7551033 
H     2.3597671   -3.9491826   -2.6036558 
H     2.0200967   -4.7123376   -4.9469023 
C     4.3750710    4.0204473    1.2602021 
C     3.5750504    3.9040782    0.1112251 
C     3.0741102    2.6579988   -0.2807015 
C     3.3741014    1.4906880    0.4596086 
C     4.2062472    1.6212704    1.5964827 
C     4.6931758    2.8711053    1.9989225 
H     4.7584704    4.9984969    1.5677245 
H     3.3383671    4.7935490   -0.4816957 
H     2.4317735    2.5966806   -1.1651630 
H     4.4886883    0.7249724    2.1597092 
H     5.3344621    2.9449756    2.8832950 
N    -1.3344280   -2.3031535    2.4660502 
C    -2.2145005    0.4354760   -1.4553576 
C    -1.4522003   -2.4531682   -2.1476718 
C     1.4933906    0.1354030    3.2879872 
C     0.2489326    2.4757558    1.8653290 
C     1.2803951    0.6151210    4.7410416 
C     1.8402685   -1.3740680    3.2642426 
C    -0.3396440    2.9222516    0.5082456 
C    -0.3995943    3.2962200    3.0040132 
C    -1.4013559    0.9691650   -2.6549270 
C    -3.7357369    0.4794287   -1.7284325 
C    -2.7387318   -2.5456995   -2.9966253 
C    -1.0754310   -3.8302712   -1.5496286 
C    -1.4557177    0.2552118    2.8345903 
C    -2.7668487   -1.7354502    0.4037305 
C     2.5289834    0.3133208    5.5946603 
C     3.0941520   -1.6620117    4.1094515 
C    -0.1652620    4.4330813    0.2771193 
C    -0.1834718    4.8052813    2.7778930 
C    -1.8649460    2.3765262   -3.0716628 
C    -4.1618255    1.9103889   -2.1121853 
C    -2.6235201   -3.6524252   -4.0632204 
C    -1.0013794   -4.9335968   -2.6204883 
C     2.9076189   -1.1752913    5.5555825 
C    -0.7626266    5.2561555    1.4283843 
C    -3.3787759    2.4212532   -3.3321885 
C    -2.3017062   -5.0146739   -3.4330967 
C    -1.6280578   -1.1964003    3.3598308 
C    -2.3561066   -2.7234333    1.5290304 
H     2.3680678    0.6806798    2.8872298 
H     1.3368784    2.6829248    1.8524240 
H    -2.0257657    1.1203228   -0.6060119 
H    -0.6311180   -2.1345410   -2.8152677 
H    -4.0015655   -0.2058196   -2.5504955 
H    -3.6113298   -2.7565929   -2.3478573 
H    -2.9330129   -1.5822127   -3.4953321 
H    -0.1162785   -3.7535989   -1.0020414 
H    -1.8440729   -4.1266037   -0.8124083 
H    -4.3025079    0.1473729   -0.8417603 
H    -0.3277455    0.9848553   -2.3870033 
H    -1.5048191    0.2757891   -3.5114939 
H    -1.4874403    3.0933850    3.0282376 
H     0.0016739    3.0056076    3.9882936 
H     0.1281193    2.3453227   -0.3110655 
H    -1.4211471    2.6806553    0.4913734 
H     1.0007233   -1.9656876    3.6724833 
H     1.9878609   -1.7153031    2.2215369 
H     1.0729066    1.6966508    4.7705540 
H     0.4018018    0.1063267    5.1812362 
H    -1.5597997    0.9507538    3.6865887 
H    -2.2330566    0.5294124    2.0996063 
H    -3.1939133   -0.8229373    0.8541483 
H    -3.5747113   -2.1855377   -0.2033057 
H    -5.2479668    1.9298562   -2.3119864 
H    -1.6136724    3.0907660   -2.2637390 
H    -1.3050947    2.7021325   -3.9670115 
H    -0.6458356    5.3701093    3.6069592 
H     0.9019430    5.0236720    2.8080099 
H     0.9141440    4.6557713    0.1917719 
H    -0.6275917    4.7160199   -0.6861750 
H     3.3159705   -2.7439245    4.0887227 
H     3.9671291   -1.1505227    3.6569218 
H     3.3750328    0.9187176    5.2129047 
H     2.3509575    0.6406075    6.6345307 
H    -3.9854187    2.5873780   -1.2521921 
H    -3.5636269   -3.6999127   -4.6415133 
H    -1.8210250   -3.3794420   -4.7764697 
H    -0.1632339   -4.7202953   -3.3061129 
H    -0.7817632   -5.9002162   -2.1323496 
H     3.8263019   -1.3524144    6.1423777 
H     2.1056666   -1.7695009    6.0362230 
H    -0.5743904    6.3325387    1.2676824 
H    -1.8630233    5.1257153    1.4424166 
H    -3.6920796    3.4489921   -3.5879122 
H    -3.6193623    1.7894321   -4.2099592 
H    -2.2159750   -5.7900575   -4.2150076 
H    -3.1369863   -5.3216345   -2.7725947 
H    -2.0302693   -3.6784413    1.0859283 
H    -3.2725689   -2.9504404    2.1062039 
H    -2.6705519   -1.3139858    3.7083224 
H    -0.9983124   -1.2996581    4.2627580 
H    -0.4137988   -2.2270699    2.0249815 
