113
Energy =
C     1.6064601   -0.8269460   -2.0945330 
C     2.3207842    0.1394941   -1.3386280 
C     2.7954592   -0.1506209   -0.0393607 
H     2.4440720    1.1543033   -1.7367655 
Pd    0.4985901   -0.2693895   -0.1638287 
P    -0.0304398    0.6834278    1.9508726 
P    -1.5762647   -1.1222375   -1.0138524 
H     1.7846429   -1.8823874   -1.8442319 
H     2.8996136   -1.2142401    0.2224315 
C     0.2054141   -0.1993752   -6.1208712 
C     0.4680882    0.9054899   -5.2934112 
C     0.9162238    0.7177309   -3.9819070 
C     1.1289117   -0.5835664   -3.4686178 
C     0.8886111   -1.6842928   -4.3248328 
C     0.4225663   -1.4962376   -5.6319025 
H    -0.1539423   -0.0481305   -7.1436569 
H     0.3160817    1.9207832   -5.6737479 
H     1.0827117    1.5926815   -3.3452390 
H     1.0866783   -2.6996351   -3.9630532 
H     0.2416032   -2.3640274   -6.2744607 
C     5.3296456    2.4410890    2.2766309 
C     4.3832401    2.9990991    1.3994506 
C     3.5536785    2.1705955    0.6373143 
C     3.6396566    0.7638529    0.7490666 
C     4.6028860    0.2167139    1.6268631 
C     5.4445071    1.0467445    2.3783637 
H     5.9774381    3.0920391    2.8723140 
H     4.2924718    4.0868753    1.3111240 
H     2.8174989    2.6192168   -0.0373300 
H     4.6904177   -0.8717013    1.7163211 
H     6.1855244    0.6035499    3.0513178 
N    -2.0200694   -2.0455221    2.2017785 
C    -2.1591677   -0.0985710   -2.4799618 
C    -1.1821616   -2.8493316   -1.6291803 
C     0.9012403    0.1106725    3.4956293 
C     0.2435615    2.5386855    1.8497707 
C     1.3884079   -1.3469955    3.3225924 
C     2.0520312    1.0291171    3.9610754 
C    -0.1152962    3.1162798    0.4649873 
C    -0.4263492    3.3714689    2.9651849 
C    -3.5613868   -0.4111871   -3.0478530 
C    -2.0423661    1.3994070   -2.1137205 
C    -2.3554901   -3.7260415   -2.1183735 
C    -0.3132125   -3.6313302   -0.6119108 
C    -1.7948090    0.5104330    2.5238463 
C    -3.1277680   -1.3121443   -0.0048292 
C     2.0471201   -1.8791758    4.6072774 
C     2.7131764    0.4796152    5.2396721 
C     0.2976208    4.5959951    0.3619309 
C     0.0191171    4.8434865    2.8725991 
C    -3.8724485    0.4941347   -4.2556537 
C    -2.4175466    2.3191753   -3.2886914 
C    -1.8214841   -5.0333873   -2.7380655 
C     0.2239733   -4.9299909   -1.2383869 
C     3.1962763   -0.9680871    5.0641011 
C    -0.3142031    5.4374012    1.4941452 
C    -3.7985262    1.9790585   -3.8687736 
C    -0.9257747   -5.8086874   -1.7586577 
C    -2.1712152   -0.8917292    3.0718105 
C    -3.0488648   -2.2751269    1.2052360 
H     0.1317901    0.1213658    4.2929693 
H     1.3409333    2.6206850    1.9671561 
H    -1.4112997   -0.3202018   -3.2636031 
H    -0.5480254   -2.6278773   -2.5073030 
H    -2.7046707    1.6170680   -1.2510922 
H    -3.0233200   -3.9700996   -1.2705898 
H    -2.9658047   -3.1873697   -2.8614663 
H     0.5187684   -2.9941124   -0.2514600 
H    -0.9158526   -3.8880106    0.2794907 
H    -1.0115149    1.6100539   -1.7792278 
H    -3.6396494   -1.4701449   -3.3448365 
H    -4.3292289   -0.2351555   -2.2709069 
H    -1.5256838    3.3248976    2.8471111 
H    -0.1943081    2.9619083    3.9647360 
H     0.3786270    2.5214954   -0.3271509 
H    -1.2048170    3.0219982    0.2949181 
H     2.8094555    1.1133872    3.1660757 
H     1.6800606    2.0477495    4.1586841 
H     0.5517592   -2.0085645    3.0334519 
H     2.1162123   -1.3768032    2.4898812 
H    -1.9402524    1.2439726    3.3371526 
H    -2.4447227    0.8184010    1.6873770 
H    -3.4428597   -0.2997673    0.3022284 
H    -3.9017552   -1.6844500   -0.6999600 
H    -2.3789424    3.3731172   -2.9577690 
H    -3.1451851    0.2838826   -5.0643116 
H    -4.8729680    0.2449683   -4.6520753 
H    -0.4660897    5.4293267    3.6734744 
H     1.1109521    4.9036642    3.0506629 
H     1.4026534    4.6643908    0.4142700 
H     0.0019496    4.9978939   -0.6241409 
H     3.5552777    1.1375781    5.5204877 
H     1.9850542    0.5231095    6.0738035 
H     1.2827030   -1.9388773    5.4068804 
H     2.4075862   -2.9099781    4.4391620 
H    -1.6563858    2.2042688   -4.0822107 
H    -2.6699654   -5.6606208   -3.0648637 
H    -1.2422797   -4.7853401   -3.6496714 
H     0.9029967   -4.6739656   -2.0767930 
H     0.8298283   -5.4814914   -0.4972703 
H     3.6319269   -1.3436564    6.0070131 
H     4.0048213   -0.9928578    4.3080228 
H     0.0400866    6.4814298    1.4289172 
H    -1.4147049    5.4687811    1.3699208 
H    -4.0127868    2.6176348   -4.7441346 
H    -4.5819177    2.1992622   -3.1165882 
H    -0.5256757   -6.7171005   -2.2427449 
H    -1.5355741   -6.1509203   -0.8993761 
H    -2.9356951   -3.3063280    0.8263183 
H    -4.0278400   -2.2500379    1.7192655 
H    -3.2274901   -0.8561499    3.3963570 
H    -1.5845349   -1.0717063    3.9920743 
H    -1.0788569   -2.1092246    1.8022657 
