113
Energy =
C     1.4353380   -0.5048032   -2.2175382 
C     2.2823433    0.3389516   -1.4344187 
C     2.8765380   -0.1090435   -0.2420317 
H     2.4180461    1.3844326   -1.7375980 
Pd    0.4776704   -0.1280817   -0.2195454 
P     0.0461028    0.7225605    1.9389935 
P    -1.5730368   -1.1153713   -0.9138026 
H     1.6278526   -1.5850205   -2.1629552 
H     2.8382643   -1.1899806   -0.0397791 
C    -0.3631407    0.7869113   -5.9149048 
C    -0.0834769   -0.5698802   -5.6922551 
C     0.5092289   -0.9783067   -4.4905015 
C     0.8260519   -0.0418237   -3.4797212 
C     0.5321535    1.3229095   -3.7181029 
C    -0.0479321    1.7313741   -4.9234305 
H    -0.8230601    1.1079621   -6.8548143 
H    -0.3190771   -1.3122393   -6.4617389 
H     0.7468487   -2.0370524   -4.3354529 
H     0.7316508    2.0679222   -2.9398957 
H    -0.2659689    2.7915457   -5.0885535 
C     5.7891861    1.9369211    2.1696634 
C     5.2278185    2.5927711    1.0601566 
C     4.2823273    1.9454818    0.2605059 
C     3.8645329    0.6254554    0.5578637 
C     4.4695109   -0.0325429    1.6540456 
C     5.4147488    0.6155291    2.4567667 
H     6.5292393    2.4482439    2.7935292 
H     5.5359597    3.6142764    0.8147756 
H     3.8703785    2.4731649   -0.6051307 
H     4.1910993   -1.0692860    1.8697225 
H     5.8661336    0.0863175    3.3022992 
N    -1.7196091   -2.0850963    2.3822569 
C    -2.3634544   -0.1183353   -2.2899533 
C    -1.1179220   -2.8083656   -1.5905664 
C     1.2925092    0.2459022    3.2539189 
C     0.1070320    2.6002552    1.8797911 
C     1.0195111    0.8769955    4.6375425 
C     1.5080541   -1.2842320    3.3504157 
C     1.5263009    3.1119580    1.5769941 
C    -0.8876081    3.1558384    0.8368659 
C    -3.3996052   -0.8252958   -3.1875539 
C    -2.9246589    1.2024364   -1.7157984 
C    -2.2725781   -3.8019031   -1.8617928 
C    -0.0376835   -3.5023710   -0.7221594 
C    -1.6322084    0.4690724    2.7088634 
C    -2.9992124   -1.4282189    0.2404729 
C     2.1307228    0.5097783    5.6391712 
C     2.5966656   -1.6355757    4.3831713 
C     1.5788336    4.6476762    1.5118927 
C    -0.8420349    4.6930320    0.7731183 
C    -3.8931725    0.1268528   -4.2967081 
C    -3.3964773    2.1378869   -2.8423212 
C    -1.7342024   -5.0547835   -2.5815234 
C     0.5103188   -4.7533115   -1.4312441 
C     2.2942183   -1.0135182    5.7556345 
C     0.5794787    5.2002705    0.4836885 
C    -4.4419954    1.4454223   -3.7305030 
C    -0.6191025   -5.7391375   -1.7742543 
C    -1.9283451   -0.9466265    3.2626080 
C    -2.7586337   -2.4035975    1.4216365 
H     2.2352150    0.6746216    2.8617497 
H    -0.2018069    2.9476253    2.8858372 
H    -1.5011272    0.1414511   -2.9274611 
H    -0.6549602   -2.5485573   -2.5631520 
H    -3.7828527    0.9880524   -1.0495995 
H    -2.7288995   -4.1077737   -0.9022001 
H    -3.0730047   -3.3401069   -2.4593490 
H     0.7797079   -2.7944945   -0.4851811 
H    -0.4787665   -3.7998442    0.2485680 
H    -2.1535960    1.6965053   -1.1004892 
H    -2.9504500   -1.7163424   -3.6570658 
H    -4.2630180   -1.1672404   -2.5839071 
H    -0.6137455    2.7393896   -0.1538680 
H    -1.9168046    2.8190543    1.0524879 
H     2.2541168    2.7424696    2.3193423 
H     1.8332378    2.6947906    0.6001000 
H     0.5744341   -1.7901157    3.6536910 
H     1.7723010   -1.6835903    2.3519905 
H     0.9395227    1.9754265    4.5517080 
H     0.0506581    0.5146028    5.0310108 
H    -1.7266759    1.2065369    3.5280287 
H    -2.3627161    0.7588821    1.9347948 
H    -3.3372117   -0.4461793    0.6106671 
H    -3.8173999   -1.8221073   -0.3917929 
H    -3.8070132    3.0666469   -2.4064027 
H    -3.0449122    0.3445070   -4.9734719 
H    -4.6624005   -0.3858482   -4.9017674 
H    -1.5481693    5.0506438    0.0021185 
H    -1.1920112    5.1068935    1.7389328 
H     1.3473291    5.0626126    2.5123523 
H     2.6081117    4.9682901    1.2687444 
H     2.6865655   -2.7337726    4.4626439 
H     3.5748592   -1.2586554    4.0315909 
H     3.0855469    0.9581537    5.3005443 
H     1.9013508    0.9542966    6.6240298 
H    -2.5235798    2.4285775   -3.4580570 
H    -2.5645441   -5.7595878   -2.7657957 
H    -1.3444638   -4.7586197   -3.5757071 
H     1.0255301   -4.4412821   -2.3621397 
H     1.2713150   -5.2414620   -0.7962477 
H     3.0986840   -1.2605200    6.4708979 
H     1.3623290   -1.4528702    6.1634862 
H     0.6008548    6.3044604    0.4782588 
H     0.8825018    4.8724209   -0.5313735 
H    -4.7513051    2.1142121   -4.5534796 
H    -5.3514221    1.2399892   -3.1316364 
H    -0.2169020   -6.6037806   -2.3312846 
H    -1.0458967   -6.1397203   -0.8337400 
H    -2.5531114   -3.4112962    1.0208351 
H    -3.7127382   -2.4892479    1.9748604 
H    -2.9822551   -0.9723768    3.5954369 
H    -1.3238352   -1.0923573    4.1765449 
H    -0.7850493   -2.0956703    1.9641013 
