113
Energy =
C     2.3268047    1.3730877   -0.4885931 
C     2.2510049    0.2958829   -1.3999935 
C     1.2684371    0.2126912   -2.4142138 
H     2.9620016   -0.5316051   -1.2910795 
Pd    0.3210942    0.1865526   -0.2877440 
P    -1.6770652   -0.9227978   -0.9397075 
P    -0.0656013    0.7441662    1.9927693 
H     1.8074533    2.3007959   -0.7697639 
H     0.7633047    1.1482823   -2.6945429 
C     5.7315388    1.9894778    2.0836468 
C     4.9322456    3.0690987    1.6799956 
C     3.8191062    2.8512704    0.8599790 
C     3.4657020    1.5487849    0.4349487 
C     4.2902882    0.4734553    0.8420888 
C     5.4108405    0.6928466    1.6496648 
H     6.6062494    2.1569429    2.7200879 
H     5.1844529    4.0876195    1.9925156 
H     3.2254145    3.7066124    0.5228109 
H     4.0529000   -0.5489722    0.5316477 
H     6.0393056   -0.1536364    1.9448153 
C     1.5064279   -2.6710606   -5.6118147 
C     0.8257402   -1.4575775   -5.7896209 
C     0.7413898   -0.5381898   -4.7374481 
C     1.3177866   -0.8143910   -3.4750336 
C     2.0085740   -2.0391719   -3.3170513 
C     2.1080994   -2.9499152   -4.3738115 
H     1.5805780   -3.3889864   -6.4347706 
H     0.3719656   -1.2178976   -6.7567528 
H     0.2420752    0.4213194   -4.9024319 
H     2.4710543   -2.2896240   -2.3570687 
H     2.6569771   -3.8862932   -4.2308034 
N    -1.4487720   -2.4045785    2.1515247 
C     1.4292779    0.3290647    3.0422603 
C    -0.4146251    2.5681573    2.3033600 
C    -2.7905879    0.1077900   -2.0550508 
C    -1.3157863   -2.4920839   -1.8952615 
C    -3.1214492    1.4683318   -1.4055059 
C    -2.2401776    0.3225513   -3.4738240 
C    -0.3351715   -3.4147967   -1.1294648 
C    -2.5761688   -3.2517996   -2.3648286 
C     1.2662039    0.6657390    4.5409720 
C     1.8891778   -1.1342684    2.8241609 
C    -1.6085396    3.0595928    1.4573268 
C     0.7977413    3.4860195    2.0823377 
C    -2.9686418   -1.4190300    0.3167676 
C    -1.5170425    0.0476272    2.9429036 
C    -4.1119350    2.2750064   -2.2643338 
C    -3.2344588    1.1170612   -4.3405834 
C     0.0004888   -4.6793943   -1.9413584 
C    -2.1914028   -4.4961797   -3.1871714 
C     2.5554869    0.3416415    5.3190777 
C     3.1483745   -1.4607277    3.6480959 
C    -1.9596570    4.5234821    1.7790299 
C     0.4555937    4.9497609    2.4154470 
C    -3.5867543    2.4671599   -3.6959814 
C    -1.2679548   -5.4252621   -2.3840242 
C     2.9558811   -1.1305884    5.1365631 
C    -0.7445771    5.4462832    1.5937580 
C    -2.6265541   -2.5514852    1.3147014 
C    -1.5357937   -1.4675798    3.2572996 
H    -3.7262627   -0.4817376   -2.1296656 
H    -0.7792357   -2.1260766   -2.7920879 
H     2.2215497    0.9814068    2.6266828 
H    -0.6995910    2.6159443    3.3734579 
H     1.0898820   -1.8360543    3.1209476 
H    -1.3333343    2.9717514    0.3889479 
H    -2.4950818    2.4192370    1.6104042 
H     1.6642998    3.1540423    2.6789319 
H     1.0932044    3.4189224    1.0202789 
H     2.0712091   -1.3043130    1.7454693 
H     1.0043000    1.7312004    4.6715369 
H     0.4359082    0.0755308    4.9730591 
H    -3.1694612   -3.5770510   -1.4893062 
H    -3.2263493   -2.5894956   -2.9643235 
H     0.5848886   -2.8495376   -0.8862708 
H    -0.7748598   -3.7285709   -0.1664520 
H    -1.2960668    0.8907621   -3.3981486 
H    -1.9992514   -0.6390416   -3.9579067 
H    -3.5293155    1.3342278   -0.3882708 
H    -2.1776824    2.0366830   -1.2968604 
H    -3.2525740   -0.4949266    0.8461530 
H    -3.8547451   -1.7217576   -0.2718984 
H    -1.5418344    0.6075183    3.8964238 
H    -2.4206897    0.3478442    2.3877579 
H     3.4085165   -2.5262518    3.5141472 
H     3.3730413    0.9945620    4.9551498 
H     2.4094970    0.5772060    6.3883896 
H    -3.1073778   -5.0291396   -3.4988963 
H    -1.6760347   -4.1742462   -4.1133893 
H     0.5740591   -4.3887841   -2.8390861 
H     0.6525679   -5.3387297   -1.3405003 
H    -2.8070093    1.2676399   -5.3484229 
H    -4.1563832    0.5183293   -4.4753528 
H    -5.0820270    1.7415023   -2.2950116 
H    -4.3041893    3.2525226   -1.7861694 
H     3.9966225   -0.8698905    3.2597149 
H    -2.7981595    4.8513742    1.1382415 
H    -2.3169151    4.5884488    2.8253708 
H     0.2251025    5.0313019    3.4956972 
H     1.3407401    5.5859732    2.2339367 
H    -4.3312278    3.0045935   -4.3095516 
H    -2.6801434    3.1043308   -3.6684893 
H    -0.9969543   -6.3108888   -2.9857523 
H    -1.8103004   -5.8014715   -1.4937477 
H     3.8823526   -1.3489522    5.6967067 
H     2.1668765   -1.7809604    5.5640983 
H    -1.0024267    6.4825256    1.8753073 
H    -0.4659068    5.4697206    0.5212116 
H    -2.4757240   -1.6809928    3.7995800 
H    -0.7237160   -1.6907439    3.9715315 
H    -2.5446710   -3.5002193    0.7555405 
H    -3.4965210   -2.6760619    1.9860863 
H    -0.5909167   -2.2854685    1.6038765 
