113
Energy =
C     1.5752070   -0.8722960   -2.0607709 
C     2.3795386   -0.0076975   -1.2614948 
C     2.8915215   -0.4009009   -0.0130105 
H     2.5592535    1.0174573   -1.6076757 
Pd    0.5054206   -0.3979895   -0.1305460 
P    -0.1676893    0.6132834    1.9152627 
P    -1.5412638   -1.2650972   -0.9875264 
H     1.7353789   -1.9521433   -1.9385447 
H     2.8631707   -1.4744508    0.2270477 
C     0.1089408    0.2792995   -5.9498035 
C     0.3710681    1.2625832   -4.9810098 
C     0.8399203    0.9004181   -3.7138657 
C     1.0754155   -0.4564333   -3.3878004 
C     0.8314957   -1.4312919   -4.3832974 
C     0.3449461   -1.0698344   -5.6460498 
H    -0.2660366    0.5653232   -6.9375838 
H     0.2020264    2.3187456   -5.2148036 
H     1.0023662    1.6801213   -2.9618870 
H     1.0446089   -2.4844558   -4.1678479 
H     0.1629692   -1.8430675   -6.3995609 
C     5.7750465    1.7937485    2.3010457 
C     4.9954746    2.4690257    1.3452411 
C     4.0515460    1.7733817    0.5855538 
C     3.8483962    0.3853107    0.7778793 
C     4.6494050   -0.2815909    1.7340280 
C     5.6077236    0.4132351    2.4818945 
H     6.5166308    2.3409781    2.8916321 
H     5.1302364    3.5444560    1.1901905 
H     3.4593268    2.3175224   -0.1553233 
H     4.5211361   -1.3594670    1.8835055 
H     6.2239709   -0.1237837    3.2099088 
N    -1.8150634   -2.3581196    2.2131742 
C    -2.2030392   -0.0930020   -2.2966919 
C    -1.1412166   -2.9106530   -1.7921237 
C     0.8667863    0.4271998    3.4762508 
C    -0.4470883    2.4296754    1.5110365 
C     1.4143058   -1.0164320    3.5873142 
C     2.0134368    1.4382019    3.6866683 
C    -0.8767331    3.3476399    2.6775619 
C     0.7214740    3.0443196    0.7123609 
C    -3.6169741   -0.3753416   -2.8504926 
C    -2.1103347    1.3541978   -1.7545962 
C    -2.3233439   -3.7558640   -2.3150999 
C    -0.2245431   -3.7781064   -0.8925450 
C    -1.8527543    0.1892317    2.5917148 
C    -3.0363301   -1.6199725    0.0598723 
C     2.0568624   -1.2483452    4.9671329 
C     2.6650872    1.2203034    5.0666307 
C    -1.2268854    4.7542884    2.1521488 
C     0.3652753    4.4516697    0.2033286 
C    -3.9930432    0.6595961   -3.9288411 
C    -2.5389642    2.3946702   -2.8033287 
C    -1.7978206   -4.9799660   -3.0921532 
C     0.3064202   -4.9946173   -1.6711676 
C     3.1645952   -0.2218123    5.2521084 
C    -0.0642663    5.3711189    1.3579214 
C    -3.9328689    2.0910209   -3.3735320 
C    -0.8489306   -5.8362553   -2.2383345 
C    -2.0462142   -1.2511014    3.1264395 
C    -2.8427582   -2.6276642    1.2240368 
H     0.1317497    0.5825685    4.2931069 
H    -1.3091517    2.3524335    0.8177426 
H    -1.4781643   -0.1949569   -3.1254619 
H    -0.5487011   -2.5933834   -2.6695689 
H    -2.7594303    1.4491408   -0.8600126 
H    -2.9431540   -4.1023039   -1.4662862 
H    -2.9790485   -3.1564308   -2.9676886 
H     0.6108126   -3.1700741   -0.4950157 
H    -0.7918756   -4.1355068   -0.0129572 
H    -1.0746427    1.5521507   -1.4197514 
H    -3.6775883   -1.3923540   -3.2721934 
H    -4.3589595   -0.3195445   -2.0316183 
H     1.6204988    3.0969937    1.3524460 
H     0.9726960    2.3784812   -0.1353525 
H    -1.7453745    2.9268369    3.2129154 
H    -0.0566231    3.4283141    3.4139181 
H     2.7687584    1.3143791    2.8939954 
H     1.6427148    2.4737312    3.6180195 
H     0.6224995   -1.7660282    3.4149132 
H     2.1650549   -1.1641134    2.7885943 
H    -2.0423348    0.8980441    3.4187682 
H    -2.5783033    0.4286671    1.7963848 
H    -3.4213837   -0.6518419    0.4219767 
H    -3.8013386   -2.0197155   -0.6305257 
H    -2.5093452    3.4043753   -2.3541917 
H    -3.2939410    0.5632399   -4.7825140 
H    -5.0031907    0.4356706   -4.3155935 
H     1.2275454    4.8830067   -0.3371850 
H    -0.4615953    4.3708950   -0.5306800 
H    -2.1198453    4.6832866    1.4997917 
H    -1.5059065    5.4051552    2.9998667 
H     3.5001797    1.9330407    5.1911814 
H     1.9242068    1.4580636    5.8556756 
H     1.2703328   -1.1742100    5.7438896 
H     2.4580752   -2.2763468    5.0233439 
H    -1.8015246    2.3882302   -3.6270883 
H    -2.6506141   -5.5856693   -3.4470642 
H    -1.2632359   -4.6260752   -3.9959553 
H     0.9491760   -4.6402120   -2.5022313 
H     0.9481997   -5.6087955   -1.0145247 
H     3.5592820   -0.3596741    6.2745608 
H     4.0067409   -0.4006937    4.5591404 
H    -0.3498819    6.3655153    0.9714136 
H     0.7972258    5.5303485    2.0361241 
H    -4.1907899    2.8213748   -4.1608955 
H    -4.6925729    2.2048902   -2.5748162 
H    -0.4538277   -6.6787415   -2.8331777 
H    -1.4169182   -6.2817994   -1.3980204 
H    -2.6536273   -3.6270318    0.7940982 
H    -3.8086334   -2.7078226    1.7567875 
H    -3.0850237   -1.3376400    3.4955052 
H    -1.4037824   -1.3855964    4.0159043 
H    -0.8776408   -2.3325429    1.7987238 
