87
Energy =
C    -2.3921233   -1.3524441   -0.3920612 
C    -2.5980708   -0.3235769    0.5682459 
C    -2.5528432    1.0434705    0.1902348 
H    -2.6487361   -0.5930337    1.6307627 
Pd   -0.5983044   -0.0073058   -0.2869655 
P     0.8158323    1.8203849    0.0452305 
P     0.9760239   -1.5132338   -1.1268762 
H    -2.6616403   -1.1281102   -1.4357462 
H    -2.7589058    1.2657563   -0.8678763 
C    -2.3841340   -5.5443235    0.5792974 
C    -1.7925449   -4.6246406    1.4617140 
C    -1.7843471   -3.2608367    1.1529136 
C    -2.3611497   -2.7884160   -0.0479645 
C    -2.9364789   -3.7245221   -0.9328081 
C    -2.9559513   -5.0887180   -0.6171532 
H    -2.3926128   -6.6118005    0.8226011 
H    -1.3334295   -4.9740218    2.3924490 
H    -1.3082490   -2.5532932    1.8403673 
H    -3.3727765   -3.3769634   -1.8750283 
H    -3.4111656   -5.7992636   -1.3144635 
C    -3.2518886    4.4154766    2.7609095 
C    -3.2411074    4.5665160    1.3666945 
C    -2.9817308    3.4633876    0.5445704 
C    -2.7324454    2.1866546    1.0991556 
C    -2.7131480    2.0579563    2.5078011 
C    -2.9782193    3.1586854    3.3265346 
H    -3.4651144    5.2735892    3.4065368 
H    -3.4453749    5.5436159    0.9168997 
H    -2.9860816    3.5836867   -0.5444750 
H    -2.4929515    1.0907573    2.9698990 
H    -2.9666008    3.0386547    4.4143526 
C     3.2910998    1.3354186   -1.3981687 
C     3.4532702   -0.1083965   -1.8965362 
C     2.6619166    1.5269302   -0.0004595 
C     2.1998439   -0.8534036   -2.3904014 
C     0.5717572    3.1958977   -1.1424569 
C     0.6190639    2.5290931    1.7285068 
C     0.2463269   -2.9071313   -2.0777203 
C     2.0076379   -2.2824549    0.1771848 
C     1.3656578    4.3629356   -1.0899080 
C     0.9033200    1.6856532    2.8255425 
C    -0.4570646   -2.5940731   -3.2612849 
C     3.1108720   -3.1046501   -0.1402254 
C    -0.3955881    3.0676147   -2.1585217 
C     0.2057938    3.8534570    1.9656660 
C     0.3607041   -4.2502001   -1.6745284 
C     1.6953381   -2.0402885    1.5291729 
C     1.1753922    5.3864846   -2.0269338 
C     0.8026032    2.1698192    4.1355139 
C    -1.0040133   -3.6154127   -4.0481393 
C     3.8859368   -3.6661957    0.8830239 
C    -0.5829630    4.0932484   -3.0964885 
C     0.1067886    4.3315544    3.2802274 
C    -0.1929245   -5.2678562   -2.4656245 
C     2.4718966   -2.6039596    2.5514013 
C     0.1997489    5.2546995   -3.0285211 
C     0.4088367    3.4974023    4.3650723 
C    -0.8655535   -4.9561687   -3.6547579 
C     3.5690537   -3.4156755    2.2281503 
H     4.3042407    1.7726706   -1.3508451 
H     2.7461978    1.9372527   -2.1501663 
H     4.1434724   -0.0784708   -2.7596489 
H     3.9662959   -0.7105197   -1.1238285 
H     3.1049840    2.4064519    0.4990440 
H     2.8628869    0.6604642    0.6561035 
H     1.6105623   -0.2165983   -3.0754419 
H     2.5105794   -1.7385439   -2.9736431 
H     2.1301614    4.4784173   -0.3138027 
H     1.2151037    0.6491785    2.6551973 
H    -0.5760729   -1.5489083   -3.5726099 
H     3.3621020   -3.3146913   -1.1856140 
H    -0.9973078    2.1531049   -2.2148369 
H    -0.0523430    4.5111544    1.1314999 
H     0.8678415   -4.5060647   -0.7398696 
H     0.8338034   -1.4060486    1.7701289 
H     1.7919280    6.2898704   -1.9766565 
H     1.0346938    1.5105175    4.9784841 
H    -1.5388341   -3.3646081   -4.9701735 
H     4.7403324   -4.3023496    0.6300641 
H    -1.3377144    3.9831722   -3.8819742 
H    -0.2195944    5.3619844    3.4527057 
H    -0.1038425   -6.3093235   -2.1406637 
H     2.2197867   -2.4101209    3.5991544 
H     0.0552093    6.0567412   -3.7596772 
H     0.3306567    3.8772765    5.3888969 
H    -1.2923168   -5.7546301   -4.2703169 
H     4.1787055   -3.8558091    3.0239526 
