87
Energy =
C    -2.4726466   -1.1924484   -1.0033512 
C    -2.7701538   -0.1581743   -0.0866774 
C    -2.5807428    1.2165879   -0.4305517 
H    -3.0095750   -0.4105027    0.9547617 
Pd   -0.6506211    0.1373943   -0.5945534 
P     0.8025491    1.9819762   -0.5596743 
P     1.0507526   -1.4880206   -0.5308603 
H    -2.4426232   -0.9176645   -2.0695233 
H    -2.7337993    1.5037677   -1.4817298 
C    -2.7498447   -5.4375336   -0.3820065 
C    -2.6020325   -4.9053373   -1.6708305 
C    -2.5129457   -3.5210447   -1.8509446 
C    -2.5735571   -2.6374337   -0.7489216 
C    -2.7387574   -3.1895917    0.5431907 
C    -2.8206672   -4.5730734    0.7235284 
H    -2.8165084   -6.5206696   -0.2370392 
H    -2.5520639   -5.5693195   -2.5391669 
H    -2.3959092   -3.1116286   -2.8593597 
H    -2.8138934   -2.5360963    1.4178314 
H    -2.9471079   -4.9814783    1.7314538 
C    -3.1511883    4.3663592    2.4495332 
C    -3.5458989    4.5417424    1.1156018 
C    -3.3434039    3.5199880    0.1793174 
C    -2.7528752    2.2979579    0.5630189 
C    -2.3475457    2.1390526    1.9089757 
C    -2.5446876    3.1615808    2.8421462 
H    -3.3064257    5.1671974    3.1797654 
H    -4.0094253    5.4814833    0.7989535 
H    -3.6530874    3.6648662   -0.8607718 
H    -1.8536046    1.2104935    2.2191786 
H    -2.2198924    3.0226610    3.8786556 
C     1.9945189    0.7204130   -2.8995365 
C     2.9504326   -0.3797081   -2.4090832 
C     1.9491988    2.0060146   -2.0520015 
C     2.7596046   -0.8841245   -0.9676121 
C     0.0568783    3.6613230   -0.6132473 
C     1.8758741    2.0065774    0.9303230 
C     0.8338167   -2.9869880   -1.5688194 
C     1.2443592   -2.0918304    1.1961375 
C    -0.5866075    4.0841150   -1.7968714 
C     3.0550901    2.7805948    0.9892360 
C     0.5590790   -2.8154607   -2.9430078 
C     0.1489400   -1.9678807    2.0748115 
C     0.0805731    4.5181130    0.5034083 
C     1.5004894    1.2376180    2.0486151 
C     0.9421044   -4.2896741   -1.0446463 
C     2.4438002   -2.6570206    1.6762367 
C    -1.1488264    5.3640424   -1.8771295 
C     3.8524365    2.7576232    2.1408795 
C     0.4442411   -3.9278277   -3.7866792 
C     0.2453979   -2.3943573    3.4050731 
C    -0.4941306    5.7946213    0.4199599 
C     2.3018371    1.2129010    3.1981994 
C     0.8077166   -5.3998149   -1.8905913 
C     2.5410973   -3.0805193    3.0095222 
C    -1.0960481    6.2252794   -0.7701177 
C     3.4815933    1.9689777    3.2428324 
C     0.5723624   -5.2228793   -3.2615433 
C     1.4451655   -2.9497444    3.8757847 
H     2.3089242    1.0013904   -3.9208640 
H     0.9643788    0.3222960   -2.9991755 
H     2.8874251   -1.2359931   -3.1047064 
H     3.9889267   -0.0051398   -2.4837743 
H     1.5873102    2.8431856   -2.6709985 
H     2.9582132    2.2897558   -1.7037566 
H     3.4682267   -1.7094168   -0.7816234 
H     2.9806843   -0.0912384   -0.2285844 
H    -0.6489580    3.4151433   -2.6641887 
H     3.3498311    3.4121815    0.1440537 
H     0.4210922   -1.8089155   -3.3536287 
H    -0.7773333   -1.5145920    1.7072192 
H     0.5505284    4.1941007    1.4367239 
H     0.5808979    0.6468979    2.0097201 
H     1.1219742   -4.4404511    0.0241608 
H     3.3099221   -2.7735473    1.0179083 
H    -1.6316829    5.6880294   -2.8049253 
H     4.7668142    3.3586717    2.1791039 
H     0.2432326   -3.7831756   -4.8533194 
H    -0.6143264   -2.2895792    4.0752007 
H    -0.4693076    6.4538283    1.2935319 
H     2.0043737    0.5948292    4.0513020 
H     0.8860625   -6.4085799   -1.4723895 
H     3.4785199   -3.5148859    3.3717722 
H    -1.5345476    7.2264251   -0.8329928 
H     4.1133894    1.9491515    4.1368924 
H     0.4761957   -6.0930509   -3.9190320 
H     1.5264208   -3.2807957    4.9162873 
