87
Energy =
C    -1.8603543   -2.0327438    0.2939991 
C    -2.4502816   -0.7610959    0.4962186 
C    -2.6223824    0.1448421   -0.5892466 
H    -2.6538803   -0.4223639    1.5201948 
Pd   -0.4490055   -0.3691803   -0.3466777 
P     0.3732972    1.4179570   -1.6395910 
P     1.5326446   -1.3843099    0.3873342 
H    -1.8981954   -2.4390051   -0.7291666 
H    -2.7454691   -0.2885144   -1.5929251 
C    -1.2478972   -5.0619879    3.2808107 
C    -1.2674851   -3.7099274    3.6633168 
C    -1.4566904   -2.7095025    2.7053216 
C    -1.6214865   -3.0404372    1.3403775 
C    -1.5796103   -4.4028187    0.9681530 
C    -1.4051192   -5.4041808    1.9299831 
H    -1.1057428   -5.8436722    4.0341651 
H    -1.1368878   -3.4351202    4.7150955 
H    -1.4666712   -1.6625424    3.0220940 
H    -1.6894620   -4.6750557   -0.0868787 
H    -1.3824071   -6.4540348    1.6216284 
C    -4.1572760    4.1470410   -0.2078658 
C    -4.2877460    3.4412736   -1.4120228 
C    -3.7786192    2.1414972   -1.5255779 
C    -3.1358172    1.5184185   -0.4335707 
C    -3.0137707    2.2422785    0.7761656 
C    -3.5171612    3.5410113    0.8871110 
H    -4.5515140    5.1645301   -0.1191293 
H    -4.7839809    3.9046991   -2.2709331 
H    -3.8749784    1.5983287   -2.4718476 
H    -2.5074638    1.7887973    1.6357420 
H    -3.4081430    4.0879770    1.8293575 
C     3.2727792    1.3047160   -1.7991769 
C     3.3577985    0.6134644   -0.4294253 
C     1.9631267    1.0907629   -2.5791363 
C     3.1180196   -0.9144755   -0.4661632 
C    -0.7733485    1.7784492   -3.0332100 
C     0.6733304    2.9973006   -0.7665951 
C     1.5740373   -3.2166733    0.3154750 
C     1.8574979   -0.8933326    2.1286782 
C    -1.1478243    0.6925418   -3.8552978 
C     1.2529583    4.1064573   -1.4218911 
C     1.3705421   -3.8105444   -0.9495798 
C     3.0572066   -1.2387130    2.7873815 
C    -1.2912276    3.0584351   -3.3034169 
C     0.3521122    3.0930824    0.6005929 
C     1.7959669   -4.0366271    1.4370827 
C     0.9037370   -0.1113139    2.8095127 
C    -2.0082485    0.8902425   -4.9422441 
C     1.4934756    5.2918420   -0.7150774 
C     1.4262368   -5.2021629   -1.0946759 
C     3.2831689   -0.8208468    4.1056187 
C    -2.1494041    3.2521958   -4.3973206 
C     0.5944128    4.2802640    1.3046942 
C     1.8472818   -5.4302070    1.2858574 
C     1.1321115    0.3089800    4.1267730 
C    -2.5078521    2.1744120   -5.2178356 
C     1.1628848    5.3804763    0.6470805 
C     1.6722478   -6.0144733    0.0240310 
C     2.3219261   -0.0485896    4.7771444 
H     3.4293657    2.3875015   -1.6498703 
H     4.1023930    0.9563682   -2.4433261 
H     4.3522793    0.8138114    0.0041986 
H     2.6386882    1.0941760    0.2642825 
H     1.8721606    0.0513330   -2.9447781 
H     1.9463330    1.7362462   -3.4749461 
H     3.0555078   -1.3069880   -1.4969729 
H     3.9322849   -1.4749649    0.0240792 
H    -0.7684899   -0.3146146   -3.6398306 
H     1.5147543    4.0486547   -2.4842316 
H     1.1659567   -3.1807366   -1.8247700 
H     3.8183197   -1.8391938    2.2774617 
H    -1.0467648    3.9029068   -2.6529859 
H    -0.0827027    2.2271074    1.1085033 
H     1.9092086   -3.5956553    2.4314432 
H    -0.0208105    0.1691983    2.2895009 
H    -2.2900736    0.0426062   -5.5754864 
H     1.9425518    6.1484846   -1.2281135 
H     1.2765246   -5.6538164   -2.0808798 
H     4.2152489   -1.0963403    4.6096652 
H    -2.5493225    4.2517542   -4.5965010 
H     0.3409967    4.3442592    2.3678739 
H     2.0141380   -6.0606199    2.1651286 
H     0.3826536    0.9171427    4.6439926 
H    -3.1804340    2.3297724   -6.0675885 
H     1.3536878    6.3085887    1.1956684 
H     1.7157073   -7.1027223   -0.0881622 
H     2.5044406    0.2779193    5.8061333 
