87
Energy =
C    -2.0212459   -1.1146113    1.3693157 
C    -2.3289642    0.2635691    1.3791503 
C    -2.5737143    0.9902418    0.1755142 
H    -2.2581596    0.8191490    2.3221281 
Pd   -0.5059450    0.1228169    0.1454814 
P     0.3686288    1.3538877   -1.6612311 
P     1.3933866   -1.0892852    0.7976176 
H    -2.3078548   -1.6791680    0.4686208 
H    -2.9942858    0.4359826   -0.6766556 
C    -1.3545664   -3.6207609    4.7964508 
C    -1.4150322   -2.2263900    4.9579050 
C    -1.6055170   -1.3946347    3.8521020 
C    -1.7553221   -1.9412299    2.5554966 
C    -1.6856120   -3.3463764    2.4087196 
C    -1.4847603   -4.1779714    3.5161822 
H    -1.2057953   -4.2683691    5.6665518 
H    -1.3073266   -1.7850266    5.9534302 
H    -1.6418781   -0.3118169    4.0017913 
H    -1.8053898   -3.7903293    1.4152807 
H    -1.4408450   -5.2634454    3.3803158 
C    -3.5791447    5.1705907    0.3085720 
C    -2.6732566    4.6423786    1.2430088 
C    -2.3090356    3.2938903    1.1829123 
C    -2.8545867    2.4387965    0.1953779 
C    -3.7385971    2.9919469   -0.7559587 
C    -4.1010396    4.3427105   -0.6959157 
H    -3.8671107    6.2257208    0.3573686 
H    -2.2470255    5.2871901    2.0187640 
H    -1.5852429    2.8980908    1.9048469 
H    -4.1579931    2.3494149   -1.5373343 
H    -4.7944372    4.7506347   -1.4381770 
C     3.2812730    1.1829031   -1.7143191 
C     3.2701719   -0.2518269   -1.1610386 
C     2.0760060    2.0753300   -1.3565688 
C     3.0466800   -0.3533209    0.3646838 
C     0.5436862    0.3356698   -3.1807436 
C    -0.5746181    2.8183864   -2.2457270 
C     1.5108705   -2.8115011    0.1712978 
C     1.5207763   -1.1748977    2.6280807 
C     1.1165197    0.8804574   -4.3508418 
C    -1.4370975    2.7261586   -3.3577730 
C     2.7033819   -3.5604926    0.2721895 
C     1.4354630    0.0466151    3.3322167 
C     0.1185661   -1.0058479   -3.1803514 
C    -0.4419270    4.0533275   -1.5761451 
C     0.3854512   -3.4008330   -0.4371251 
C     1.7382780   -2.3704572    3.3367666 
C     1.2739597    0.0824814   -5.4911659 
C    -2.1113361    3.8640259   -3.8227728 
C     2.7589543   -4.8710108   -0.2209784 
C     1.6050380    0.0742181    4.7219427 
C     0.2757248   -1.8022115   -4.3235918 
C    -1.1208060    5.1849387   -2.0446452 
C     0.4413343   -4.7114267   -0.9302319 
C     1.8987068   -2.3369074    4.7296435 
C     0.8573000   -1.2591940   -5.4780402 
C    -1.9460646    5.0963318   -3.1755091 
C     1.6296065   -5.4484936   -0.8222430 
C     1.8436349   -1.1189896    5.4219770 
H     4.1863972    1.7082952   -1.3546596 
H     3.3734078    1.1252560   -2.8126926 
H     2.5028718   -0.8440457   -1.6954103 
H     4.2316407   -0.7282752   -1.4185129 
H     2.1360070    3.0170436   -1.9288106 
H     2.0912781    2.3525042   -0.2870707 
H     3.8168713   -0.9690191    0.8602269 
H     3.0853187    0.6312545    0.8642399 
H     1.4281347    1.9306748   -4.3749463 
H    -1.5638268    1.7716094   -3.8787698 
H     3.5935104   -3.1282359    0.7408986 
H     1.2349939    0.9781437    2.7872645 
H    -0.3285005   -1.4247818   -2.2729589 
H     0.1956811    4.1407219   -0.6902132 
H    -0.5399034   -2.8222144   -0.5239319 
H     1.7725466   -3.3276214    2.8082489 
H     1.7212418    0.5093301   -6.3947602 
H    -2.7638099    3.7850373   -4.6985998 
H     3.6887998   -5.4428173   -0.1367628 
H     1.5482483    1.0264031    5.2596323 
H    -0.0535377   -2.8462312   -4.3088849 
H    -1.0076608    6.1382747   -1.5192697 
H    -0.4421305   -5.1554641   -1.4007604 
H     2.0622406   -3.2718010    5.2753216 
H     0.9835705   -1.8788596   -6.3718346 
H    -2.4689402    5.9849471   -3.5434416 
H     1.6781806   -6.4716396   -1.2088618 
H     1.9755034   -1.0995192    6.5087007 
