87
Energy =
C    -2.4642473   -1.2370456   -0.9550569 
C    -2.7645504   -0.2048077   -0.0368069 
C    -2.6048840    1.1715704   -0.3889165 
H    -2.9821953   -0.4572871    1.0093696 
Pd   -0.6592825    0.1241123   -0.5808468 
P     0.7622044    1.9940243   -0.5734134 
P     1.0672245   -1.4750425   -0.5403326 
H    -2.4574590   -0.9653737   -2.0224437 
H    -2.7798158    1.4516592   -1.4385887 
C    -2.6550699   -5.4844161   -0.3174638 
C    -2.5400548   -4.9535336   -1.6101782 
C    -2.4791967   -3.5684174   -1.7955376 
C    -2.5355008   -2.6827814   -0.6948959 
C    -2.6674893   -3.2338683    0.6014387 
C    -2.7216020   -4.6180533    0.7868468 
H    -2.6995933   -6.5681356   -0.1683978 
H    -2.4936000   -5.6190840   -2.4775097 
H    -2.3877224   -3.1599784   -2.8070011 
H    -2.7379076   -2.5792131    1.4755429 
H    -2.8227461   -5.0256256    1.7979634 
C    -3.1820556    4.3233648    2.4875421 
C    -2.5462253    3.1318754    2.8742734 
C    -2.3468300    2.1089186    1.9420484 
C    -2.7792202    2.2541006    0.6030126 
C    -3.3992273    3.4631625    0.2247866 
C    -3.6038691    4.4852758    1.1602120 
H    -3.3390550    5.1245178    3.2170578 
H    -2.2001993    3.0037981    3.9052932 
H    -1.8297173    1.1913332    2.2470777 
H    -3.7301147    3.5974953   -0.8101729 
H    -4.0904197    5.4148140    0.8479837 
C     1.9468023    0.7449373   -2.9237802 
C     2.9255555   -0.3391730   -2.4427184 
C     1.8924369    2.0315435   -2.0783856 
C     2.7604325   -0.8426903   -0.9977951 
C    -0.0164579    3.6582732   -0.6296140 
C     1.8527767    2.0491028    0.9030360 
C     0.8595094   -2.9742575   -1.5800806 
C     1.2938049   -2.0800611    1.1822245 
C     0.0065612    4.5258950    0.4786105 
C     3.0099704    2.8567983    0.9460382 
C     0.5581319   -2.8021732   -2.9486170 
C     2.5031886   -2.6441705    1.6383493 
C    -0.6851792    4.0571446   -1.8075751 
C     1.5145584    1.2704214    2.0263641 
C     0.9992811   -4.2770272   -1.0635926 
C     0.2152488   -1.9596119    2.0818989 
C    -0.5943591    5.7900923    0.3918128 
C     3.8222006    2.8585338    2.0874377 
C     0.4478977   -3.9129136   -3.7950325 
C     2.6264930   -3.0704978    2.9685422 
C    -1.2739577    5.3248358   -1.8912587 
C     2.3311309    1.2700975    3.1654833 
C     0.8698668   -5.3859257   -1.9119629 
C     0.3377967   -2.3883961    3.4093099 
C    -1.2220853    6.1974428   -0.7931039 
C     3.4885606    2.0606658    3.1946709 
C     0.6077700   -5.2076591   -3.2778790 
C     1.5470266   -2.9431513    3.8557956 
H     2.2441491    1.0281551   -3.9495883 
H     0.9217838    0.3308546   -3.0096759 
H     2.8670145   -1.1981730   -3.1354036 
H     3.9570989    0.0512330   -2.5313009 
H     1.5125815    2.8625226   -2.6949869 
H     2.9009162    2.3295742   -1.7407060 
H     3.4857865   -1.6546384   -0.8175473 
H     2.9758005   -0.0440350   -0.2632410 
H     0.4958291    4.2199265    1.4080964 
H     3.2752102    3.4956338    0.0965118 
H     0.3956702   -1.7965181   -3.3524157 
H     3.3566915   -2.7580714    0.9631531 
H    -0.7464013    3.3788651   -2.6677502 
H     0.6121091    0.6532530    1.9997339 
H     1.1991021   -4.4293335    0.0014087 
H    -0.7187662   -1.5072483    1.7328584 
H    -0.5699173    6.4578959    1.2588398 
H     4.7190721    3.4860317    2.1135229 
H     0.2258338   -3.7674459   -4.8573726 
H     3.5712529   -3.5042909    3.3119314 
H    -1.7767241    5.6304090   -2.8147163 
H     2.0628459    0.6444357    4.0227334 
H     0.9728503   -6.3948301   -1.4994886 
H    -0.5090826   -2.2861046    4.0959735 
H    -1.6812247    7.1891162   -0.8587174 
H     4.1319051    2.0604025    4.0806761 
H     0.5155285   -6.0767067   -3.9374168 
H     1.6485439   -3.2763480    4.8938237 
