87
Energy =
C    -1.8526602   -2.0295226    0.3018315 
C    -2.4451836   -0.7587222    0.5036869 
C    -2.6214475    0.1457494   -0.5818555 
H    -2.6473820   -0.4201214    1.5279777 
Pd   -0.4450639   -0.3666401   -0.3401081 
P     0.3750694    1.4209870   -1.6362034 
P     1.5365173   -1.3860991    0.3859998 
H    -1.8936215   -2.4390092   -0.7199227 
H    -2.7422058   -0.2884640   -1.5854026 
C    -1.2404782   -5.0496082    3.2982933 
C    -1.4126727   -5.3971493    1.9506677 
C    -1.5863007   -4.3991317    0.9851065 
C    -1.6127602   -3.0347131    1.3508236 
C    -1.4326248   -2.6983166    2.7124175 
C    -1.2440458   -3.6954874    3.6739466 
H    -1.0988453   -5.8287677    4.0543579 
H    -1.4020945   -6.4487367    1.6475523 
H    -1.7075425   -4.6757377   -0.0675604 
H    -1.4291568   -1.6495611    3.0233295 
H    -1.1010548   -3.4164170    4.7229899 
C    -4.1685313    4.1437802   -0.2070907 
C    -3.5369688    3.5373559    0.8926226 
C    -3.0291417    2.2401614    0.7840585 
C    -3.1386570    1.5179286   -0.4278919 
C    -3.7737506    2.1411563   -1.5244049 
C    -4.2865975    3.4396592   -1.4134825 
H    -4.5658422    5.1602315   -0.1202557 
H    -3.4382086    4.0828309    1.8368654 
H    -2.5299268    1.7866489    1.6477460 
H    -3.8614687    1.5988557   -2.4720101 
H    -4.7763379    3.9032202   -2.2760347 
C     3.2749811    1.3102044   -1.7945178 
C     3.3588112    0.6140857   -0.4272420 
C     1.9657768    1.0982245   -2.5755742 
C     3.1196361   -0.9138805   -0.4703667 
C    -0.7718437    1.7740826   -3.0316343 
C     0.6672373    3.0037707   -0.7669722 
C     1.5723339   -3.2181379    0.3053409 
C     1.8698775   -0.9023183    2.1275925 
C    -1.2877771    3.0531921   -3.3096455 
C     0.3298628    3.1059325    0.5958491 
C     1.7875552   -4.0449798    1.4231946 
C     0.9306599   -0.1034298    2.8090127 
C    -1.1475321    0.6838362   -3.8473325 
C     1.2521100    4.1108501   -1.4211349 
C     1.3669421   -3.8047045   -0.9628627 
C     3.0646525   -1.2674529    2.7846625 
C    -2.1459675    3.2414967   -4.4044801 
C     0.5616412    4.2971101    1.2966932 
C     1.8305048   -5.4381046    1.2652516 
C     1.1681433    0.3137640    4.1256783 
C    -2.0075052    0.8762023   -4.9356257 
C     1.4824732    5.3001308   -0.7175088 
C     1.4137480   -5.1959272   -1.1145623 
C     3.2992604   -0.8532590    4.1025071 
C    -2.5057623    2.1592801   -5.2186074 
C     1.1359841    5.3949701    0.6402642 
C     1.6531581   -6.0152080    0.0005042 
C     2.3522878   -0.0642030    4.7748222 
H     3.4310440    2.3925340   -1.6413644 
H     4.1051638    0.9643829   -2.4392839 
H     4.3524674    0.8132884    0.0087282 
H     2.6382398    1.0919202    0.2670457 
H     1.8750979    0.0600066   -2.9447304 
H     1.9488066    1.7464223   -3.4694310 
H     3.0545215   -1.3017304   -1.5027615 
H     3.9350730   -1.4762167    0.0157757 
H    -1.0415145    3.9013368   -2.6646757 
H    -0.1106063    2.2421391    1.1025939 
H     1.9011043   -3.6098461    2.4200510 
H     0.0103534    0.1926160    2.2900678 
H    -0.7697111   -0.3225479   -3.6255950 
H     1.5254018    4.0486741   -2.4803155 
H     1.1674835   -3.1695610   -1.8353728 
H     3.8149841   -1.8805282    2.2736847 
H    -2.5446286    4.2403470   -4.6096586 
H     0.2951564    4.3662769    2.3563412 
H     1.9921548   -6.0736887    2.1417517 
H     0.4302161    0.9354839    4.6433331 
H    -2.2901630    0.0252433   -5.5640145 
H     1.9356077    6.1551313   -1.2297085 
H     1.2624257   -5.6418371   -2.1031291 
H     4.2269575   -1.1447668    4.6056304 
H    -3.1782395    2.3104025   -6.0692007 
H     1.3188731    6.3261142    1.1863947 
H     1.6897202   -7.1031560   -0.1168979 
H     2.5417460    0.2596721    5.8033857 
