87
Energy =
C    -2.4563187   -1.3043160   -0.8472911 
C    -2.7516768   -0.2606314    0.0600052 
C    -2.6321196    1.1110163   -0.3245882 
H    -2.9325563   -0.4962417    1.1171048 
Pd   -0.6714522    0.0983609   -0.5543022 
P     0.7089163    1.9980482   -0.6277806 
P     1.0814068   -1.4710370   -0.5360302 
H    -2.4898612   -1.0534855   -1.9192996 
H    -2.8435124    1.3651511   -1.3741658 
C    -2.5350713   -5.5418950   -0.1274120 
C    -2.4820797   -5.0328471   -1.4328920 
C    -2.4561668   -3.6504791   -1.6449752 
C    -2.4870719   -2.7460784   -0.5586583 
C    -2.5553099   -3.2754362    0.7514681 
C    -2.5740605   -4.6567901    0.9632584 
H    -2.5521781   -6.6233396    0.0424034 
H    -2.4566476   -5.7132660   -2.2895003 
H    -2.4125433   -3.2590256   -2.6663528 
H    -2.6021967   -2.6061394    1.6158327 
H    -2.6255568   -5.0475217    1.9847330 
C    -3.1939100    4.3092474    2.5030730 
C    -2.5116736    3.1443739    2.8918001 
C    -2.3173291    2.1066546    1.9749518 
C    -2.8006476    2.2105182    0.6496291 
C    -3.4667770    3.3937115    0.2682218 
C    -3.6668759    4.4302113    1.1886791 
H    -3.3473581    5.1217500    3.2207056 
H    -2.1255674    3.0487233    3.9120556 
H    -1.7638583    1.2106063    2.2801778 
H    -3.8368809    3.4963760   -0.7570443 
H    -4.1900323    5.3390444    0.8746277 
C     1.8635660    0.7224196   -2.9793343 
C     2.8734502   -0.3336176   -2.4998364 
C     1.8047521    2.0248457   -2.1589348 
C     2.7506201   -0.8121190   -1.0423303 
C     1.8341668    2.1238890    0.8177567 
C    -0.1161114    3.6387960   -0.7110748 
C     0.8722772   -2.9845296   -1.5551121 
C     1.3638633   -2.0528820    1.1863043 
C     2.9547444    2.9829908    0.8143672 
C    -0.8259221    3.9826394   -1.8823566 
C     0.5279321   -2.8303919   -2.9156932 
C     2.5823633   -2.6281333    1.6032231 
C     1.5630265    1.3503829    1.9624692 
C    -0.0901281    4.5399478    0.3699659 
C     1.0485097   -4.2801916   -1.0318986 
C     0.3230892   -1.9047108    2.1253373 
C     3.7968388    3.0420736    1.9323059 
C    -1.4540108    5.2296712   -1.9877735 
C     0.4113907   -3.9504304   -3.7488669 
C     2.7513107   -3.0388924    2.9332123 
C     2.4100467    1.4069395    3.0778415 
C    -0.7294106    5.7835531    0.2614449 
C     0.9139528   -5.3987769   -1.8666944 
C     0.4915398   -2.3168229    3.4531246 
C     3.5302885    2.2497917    3.0615769 
C    -1.3992955    6.1365126   -0.9177868 
C     0.6089071   -5.2375817   -3.2257450 
C     1.7090700   -2.8836458    3.8598056 
H     2.1318336    0.9898275   -4.0173379 
H     0.8447952    0.2881486   -3.0330097 
H     2.8157849   -1.2069367   -3.1744901 
H     3.8949901    0.0744269   -2.6194556 
H     1.3976019    2.8368106   -2.7834524 
H     2.8148707    2.3459838   -1.8484188 
H     3.4979581   -1.6037739   -0.8614689 
H     2.9632756    0.0053227   -0.3278406 
H     3.1669612    3.6175543   -0.0531322 
H    -0.8885249    3.2771892   -2.7203243 
H     0.3365904   -1.8314079   -3.3232896 
H     3.4068142   -2.7638991    0.8964291 
H     0.6893901    0.6928540    1.9714777 
H     0.4306642    4.2762319    1.2952611 
H     1.2796888   -4.4203156    0.0283176 
H    -0.6177455   -1.4437841    1.8061968 
H     4.6643435    3.7100079    1.9228114 
H    -1.9892765    5.4924994   -2.9061131 
H     0.1554103   -3.8182931   -4.8052910 
H     3.7023770   -3.4821466    3.2457290 
H     2.1943397    0.7852009    3.9526644 
H    -0.7021714    6.4778146    1.1073262 
H     1.0459781   -6.4019373   -1.4485479 
H    -0.3262228   -2.1926266    4.1707627 
H     4.1967777    2.2944918    3.9291450 
H    -1.8889416    7.1121772   -1.0005306 
H     0.5123349   -6.1140212   -3.8747965 
H     1.8462422   -3.2043895    4.8976458 
