87
Energy =
C    -1.9173919   -1.7958351    0.8935338 
C    -2.5467011   -0.5484145    0.6270685 
C    -2.6722652   -0.0661859   -0.7016925 
H    -2.8050894    0.1050364    1.4699215 
Pd   -0.4968102   -0.4085537   -0.1522278 
P     0.4149437    1.2980493   -1.4585390 
P     1.4945238   -1.4020546    0.5532937 
H    -1.9587882   -2.5600250    0.1019468 
H    -2.6516089   -0.8225674   -1.5009764 
C    -1.3562156   -3.3695042    4.8588796 
C    -1.6933505   -4.2174746    3.7942901 
C    -1.8544984   -3.6984245    2.5036612 
C    -1.6996451   -2.3179269    2.2579230 
C    -1.3545417   -1.4744496    3.3384637 
C    -1.1814930   -1.9951039    4.6246876 
H    -1.2234516   -3.7763805    5.8666467 
H    -1.8223488   -5.2909041    3.9660258 
H    -2.1051363   -4.3681822    1.6744630 
H    -1.2016191   -0.4041092    3.1627304 
H    -0.9060301   -1.3283081    5.4484582 
C    -4.6159717    3.5715961   -1.9077046 
C    -4.2478213    3.3961341   -0.5630538 
C    -3.5827055    2.2360298   -0.1582039 
C    -3.2851628    1.2139813   -1.0898907 
C    -3.6361553    1.4168100   -2.4446562 
C    -4.2970495    2.5827409   -2.8495890 
H    -5.1426266    4.4795758   -2.2189047 
H    -4.4768011    4.1728999    0.1732070 
H    -3.2959393    2.1249661    0.8920367 
H    -3.3997363    0.6415583   -3.1819783 
H    -4.5725825    2.7141607   -3.9010754 
C     3.2136899    0.6846377   -1.9466162 
C     3.7652591   -0.4520890   -1.0732325 
C     2.2373988    1.6743626   -1.2734980 
C     2.8352056   -1.6336545   -0.7424511 
C     0.2079407    1.0606969   -3.2648285 
C    -0.3200795    2.9302232   -1.0464978 
C     1.3024480   -3.1342798    1.1380609 
C     2.3088549   -0.5003066    1.9243854 
C    -0.4358757   -0.0992909   -3.7386032 
C    -0.1568881    3.4002925    0.2756096 
C     0.8688030   -4.0979609    0.2016334 
C     3.5946551   -0.8589018    2.3848856 
C     0.7226433    1.9917596   -4.1939559 
C    -1.0251327    3.7172117   -1.9763363 
C     1.5647424   -3.5257738    2.4638648 
C     1.6374704    0.5807060    2.5284021 
C    -0.5821863   -0.3199452   -5.1157955 
C    -0.6662070    4.6494859    0.6506346 
C     0.7377733   -5.4401531    0.5796162 
C     4.1935595   -0.1394145    3.4273528 
C     0.5737861    1.7697379   -5.5689210 
C    -1.5333155    4.9668510   -1.5935338 
C     1.4273061   -4.8712107    2.8364877 
C     2.2385244    1.2987627    3.5719484 
C    -0.0809175    0.6164913   -6.0312914 
C    -1.3516012    5.4383880   -0.2864254 
C     1.0247887   -5.8303620    1.8975189 
C     3.5181392    0.9399343    4.0201989 
H     4.0818850    1.2781395   -2.2843183 
H     2.7643287    0.2702998   -2.8689946 
H     4.6243226   -0.8895665   -1.6143553 
H     4.1824265   -0.0312574   -0.1395962 
H     2.3665889    2.6851352   -1.6991672 
H     2.4354723    1.7642861   -0.1894111 
H     2.3166788   -1.9899314   -1.6515823 
H     3.4417483   -2.4802653   -0.3746315 
H    -0.8152531   -0.8340422   -3.0192355 
H     0.3794938    2.7922133    1.0126057 
H     0.6354860   -3.8013415   -0.8283788 
H     4.1271143   -1.7050723    1.9369143 
H     1.2355459    2.8953710   -3.8467560 
H    -1.1920977    3.3557197   -2.9944303 
H     1.8634944   -2.7847435    3.2107919 
H     0.6358916    0.8505283    2.1724047 
H    -1.0844570   -1.2248077   -5.4731455 
H    -0.5258196    5.0088584    1.6754770 
H     0.4118601   -6.1830187   -0.1559701 
H     5.1909000   -0.4224490    3.7792535 
H     0.9717603    2.4983720   -6.2826815 
H    -2.0840666    5.5681418   -2.3237069 
H     1.6280224   -5.1648476    3.8716943 
H     1.7073879    2.1368109    4.0350274 
H    -0.1939323    0.4463651   -7.1069506 
H    -1.7495965    6.4156223    0.0055384 
H     0.9229819   -6.8796744    2.1927165 
H     3.9911176    1.4998206    4.8335301 
