87
Energy =
C    -1.7240503   -2.4662668    0.2976965 
C    -2.4944798   -1.2772002    0.3707121 
C    -2.6952983   -0.4508974   -0.7657949 
H    -2.8300137   -0.9359136    1.3578597 
Pd   -0.4836245   -0.6523989   -0.2666860 
P     0.3580936    1.1643389   -1.5262297 
P     1.6629571   -1.2035784    0.5137699 
H    -1.6401673   -2.9458141   -0.6901857 
H    -2.6104613   -0.9198145   -1.7566023 
C    -1.2514797   -5.1349014    3.6286840 
C    -1.4230065   -5.6372530    2.3306694 
C    -1.5325069   -4.7572079    1.2472684 
C    -1.5015189   -3.3587332    1.4477157 
C    -1.3085433   -2.8669669    2.7593767 
C    -1.1848740   -3.7467478    3.8374515 
H    -1.1564856   -5.8216291    4.4759392 
H    -1.4690203   -6.7179598    2.1609083 
H    -1.6719028   -5.1528375    0.2347066 
H    -1.2277302   -1.7867412    2.9255944 
H    -1.0218836   -3.3518849    4.8451002 
C    -4.8106989    3.3020083   -0.7742190 
C    -4.5206045    2.6706759    0.4474483 
C    -3.8396703    1.4492003    0.4664946 
C    -3.4382453    0.8227888   -0.7394700 
C    -3.7596827    1.4595703   -1.9602632 
C    -4.4305026    2.6880380   -1.9765825 
H    -5.3380679    4.2612967   -0.7863624 
H    -4.8257608    3.1351585    1.3909823 
H    -3.6104646    0.9867246    1.4318334 
H    -3.4708818    0.9874276   -2.9045970 
H    -4.6583422    3.1652207   -2.9351428 
C     2.4304788   -0.2707263   -2.9664492 
C     2.1731371   -1.6306553   -2.2954563 
C     2.1094500    0.9825357   -2.1350162 
C     2.7653356   -1.8033210   -0.8812652 
C    -0.5885788    1.4146193   -3.0800902 
C     0.3642804    2.7896342   -0.6783120 
C     1.9062576   -2.4723930    1.8191560 
C     2.4054024    0.3025622    1.2633986 
C    -0.9324628    0.2781939   -3.8437432 
C     1.4943871    3.6291919   -0.6135043 
C     2.2471206   -2.1139413    3.1397175 
C     3.7926653    0.5555835    1.2716624 
C    -0.9721112    2.6928372   -3.5290027 
C    -0.8277168    3.1861894   -0.0359700 
C     1.7159821   -3.8349194    1.5012570 
C     1.5360741    1.2045083    1.9124882 
C    -1.6411325    0.4198542   -5.0439408 
C     1.4271528    4.8437346    0.0846830 
C     2.4269992   -3.1060417    4.1136209 
C     4.2938706    1.7049481    1.8983672 
C    -1.6911840    2.8286312   -4.7259847 
C    -0.8908862    4.4018790    0.6542203 
C     1.9061692   -4.8203637    2.4759451 
C     2.0420717    2.3438536    2.5521665 
C    -2.0257601    1.6970567   -5.4842892 
C     0.2387783    5.2333610    0.7190038 
C     2.2640149   -4.4586064    3.7837667 
C     3.4205466    2.5989543    2.5385758 
H     3.5019839   -0.2049010   -3.2338891 
H     1.8769623   -0.2336933   -3.9220452 
H     1.0836391   -1.8349292   -2.2478197 
H     2.6006429   -2.4134863   -2.9472075 
H     2.3222319    1.8826753   -2.7383715 
H     2.7485045    1.0317242   -1.2348118 
H     2.9213680   -2.8740072   -0.6703252 
H     3.7577540   -1.3259220   -0.7937094 
H    -0.6581722   -0.7228319   -3.4892642 
H     2.4378635    3.3469993   -1.0871211 
H     2.3877566   -1.0621809    3.4066584 
H     4.4900452   -0.1445755    0.7997180 
H    -0.7228003    3.5797865   -2.9381070 
H    -1.7107617    2.5430673   -0.0806468 
H     1.4136903   -4.1332553    0.4910891 
H     0.4556177    1.0166012    1.9034550 
H    -1.9015295   -0.4664466   -5.6316446 
H     2.3123544    5.4862317    0.1332463 
H     2.7041457   -2.8176561    5.1328806 
H     5.3717341    1.8975065    1.8949117 
H    -1.9935914    3.8251536   -5.0641861 
H    -1.8267084    4.6961060    1.1406482 
H     1.7598212   -5.8731550    2.2163881 
H     1.3547222    3.0413113    3.0406225 
H    -2.5884136    1.8079983   -6.4168427 
H     0.1926697    6.1834596    1.2613849 
H     2.4097962   -5.2315243    4.5451909 
H     3.8172493    3.4950817    3.0267178 
