87
Energy =
C    -2.4156961   -1.3289166   -0.6252003 
C    -2.6698908   -0.2717150    0.2936183 
C    -2.5883556    1.0875293   -0.0952438 
H    -2.7888127   -0.5208371    1.3555516 
Pd   -0.6150414   -0.0040663   -0.4469706 
P     0.8772192    1.7580570   -0.0160297 
P     1.0035021   -1.5460444   -1.1596887 
H    -2.6295073   -1.1421106   -1.6885668 
H    -2.6988037    1.3063735   -1.1682886 
C    -2.5562776   -5.4644207    0.5586410 
C    -2.0195405   -4.5069751    1.4353184 
C    -1.9527171   -3.1636810    1.0526445 
C    -2.4215702   -2.7482317   -0.2152503 
C    -2.9373845   -3.7242003   -1.0939212 
C    -3.0107636   -5.0680485   -0.7072102 
H    -2.6109551   -6.5157821    0.8591880 
H    -1.6486950   -4.8106334    2.4198791 
H    -1.5166923   -2.4284976    1.7380467 
H    -3.2930270   -3.4224326   -2.0845584 
H    -3.4199386   -5.8091748   -1.4011520 
C    -3.3080300    4.5074385    2.4162564 
C    -3.2250015    3.2292249    2.9922060 
C    -2.9690429    2.1094276    2.1946434 
C    -2.8154843    2.2390659    0.7940775 
C    -2.9125032    3.5319382    0.2273766 
C    -3.1457450    4.6547422    1.0293363 
H    -3.5035184    5.3826617    3.0443007 
H    -3.3502837    3.1054429    4.0726808 
H    -2.8892902    1.1271960    2.6700310 
H    -2.8015015    3.6542251   -0.8543378 
H    -3.2117560    5.6457625    0.5689267 
C     2.9421831    1.5008655   -1.9831200 
C     2.1064281    0.5595970   -2.8649228 
C     2.6586474    1.4417492   -0.4733223 
C     2.1793357   -0.9348185   -2.5005920 
C     0.5037660    3.3323259   -0.8813985 
C     0.9824482    2.1657207    1.7689045 
C     0.3998880   -3.1189674   -1.8983329 
C     2.0468015   -2.0790512    0.2553855 
C     1.0788922    4.5522049   -0.4674201 
C     1.8840622    1.4631245    2.5997527 
C    -0.2308840   -3.0659962   -3.1607394 
C     3.2556404   -2.7840472    0.0674280 
C    -0.3085002    3.3067198   -2.0321156 
C     0.1333439    3.1365414    2.3400798 
C     0.5303823   -4.3576329   -1.2432561 
C     1.6010753   -1.8129890    1.5654873 
C     0.8266847    5.7269550   -1.1883003 
C     1.9338947    1.7306818    3.9735769 
C    -0.6748253   -4.2412583   -3.7790760 
C     4.0070179   -3.1995398    1.1743032 
C    -0.5505078    4.4817778   -2.7573978 
C     0.1955208    3.4030526    3.7149562 
C     0.0764264   -5.5301680   -1.8649358 
C     2.3534447   -2.2342082    2.6717109 
C     0.0129310    5.6939280   -2.3322295 
C     1.0900142    2.7016566    4.5352694 
C    -0.5125979   -5.4780170   -3.1353101 
C     3.5579633   -2.9248700    2.4767781 
H     4.0150297    1.2721172   -2.1277074 
H     2.7952941    2.5370850   -2.3376860 
H     1.0475999    0.8831538   -2.8733345 
H     2.4620588    0.6700356   -3.9051553 
H     3.2689565    2.1927955    0.0591892 
H     2.9231177    0.4521873   -0.0566197 
H     1.9321216   -1.5444554   -3.3848471 
H     3.2037968   -1.2206126   -2.2019563 
H     1.7150390    4.5865187    0.4236722 
H     2.5540344    0.7059537    2.1827484 
H    -0.3727950   -2.1042363   -3.6692688 
H     3.6066378   -3.0252160   -0.9418535 
H    -0.7585059    2.3603049   -2.3549234 
H    -0.5664479    3.6965553    1.7130017 
H     0.9872615   -4.4124278   -0.2510766 
H     0.6657586   -1.2594239    1.7129630 
H     1.2694810    6.6719459   -0.8570953 
H     2.6418165    1.1832439    4.6048787 
H    -1.1492720   -4.1909512   -4.7646452 
H     4.9441124   -3.7443310    1.0203678 
H    -1.1831517    4.4515023   -3.6505429 
H    -0.4656448    4.1642884    4.1411748 
H     0.1836541   -6.4885928   -1.3471947 
H     1.9991766   -2.0143597    3.6840989 
H    -0.1797858    6.6142186   -2.8932119 
H     1.1346641    2.9138294    5.6084590 
H    -0.8571020   -6.3974684   -3.6194224 
H     4.1487219   -3.2523148    3.3385192 
