87
Energy =
C    -2.0766548   -1.3134865    1.2388657 
C    -2.4726905    0.0428901    1.2129329 
C    -2.7175764    0.7198756   -0.0192485 
H    -2.4726020    0.6200788    2.1469743 
Pd   -0.6077943   -0.0135332    0.0465574 
P     0.2719794    1.2889999   -1.6794667 
P     1.3987675   -1.0720466    0.6568257 
H    -2.3170706   -1.9203516    0.3519248 
H    -3.0752702    0.1148845   -0.8659874 
C    -1.3264852   -3.6556569    4.7640816 
C    -1.0827841   -2.2706457    4.7875124 
C    -1.3273971   -1.4935165    3.6519719 
C    -1.7986333   -2.0884799    2.4583601 
C    -2.0268847   -3.4833090    2.4453229 
C    -1.8091202   -4.2565926    3.5923794 
H    -1.1418003   -4.2607277    5.6576500 
H    -0.6999242   -1.7951907    5.6962996 
H    -1.1272894   -0.4191880    3.6861624 
H    -2.3826631   -3.9613008    1.5262517 
H    -2.0044783   -5.3334768    3.5663269 
C    -3.9303651    4.8472776   -0.0722549 
C    -2.9586279    4.4187468    0.8473115 
C    -2.5356599    3.0856215    0.8511862 
C    -3.0805967    2.1505375   -0.0601389 
C    -4.0341472    2.6021510   -0.9969512 
C    -4.4597944    3.9360663   -0.9975489 
H    -4.2650504    5.8897118   -0.0724092 
H    -2.5291796    5.1286969    1.5620644 
H    -1.7636133    2.7635091    1.5603354 
H    -4.4536199    1.8957754   -1.7209049 
H    -5.2065417    4.2655469   -1.7269972 
C     3.1386882    1.7763946   -1.2149585 
C     3.4972584    0.7795078   -0.1017902 
C     1.7236427    2.3840691   -1.2291392 
C     2.9695066   -0.6634496   -0.2713897 
C     0.8469432    0.2243859   -3.0628621 
C    -0.8611421    2.4591738   -2.5322358 
C     1.4034410   -2.9068628    0.6226829 
C     1.8383750   -0.5784300    2.3716409 
C     1.5493963    0.7726935   -4.1574584 
C    -0.9603310    3.8072581   -2.1308511 
C     1.6992599   -3.5751294   -0.5875962 
C     2.7969645   -1.2823634    3.1295263 
C     0.5476646   -1.1518328   -3.0530240 
C    -1.6590387    1.9957885   -3.5996324 
C     1.0743426   -3.6675861    1.7636205 
C     1.2628394    0.5933541    2.9038189 
C     1.9692714   -0.0539262   -5.2073677 
C    -1.8110593    4.6843519   -2.8169828 
C     1.6739224   -4.9739604   -0.6488071 
C     3.1462178   -0.8337597    4.4102544 
C     0.9624797   -1.9760934   -4.1101675 
C    -2.5093802    2.8782837   -4.2791646 
C     1.0591496   -5.0682854    1.6955285 
C     1.6210784    1.0451116    4.1816404 
C     1.6795042   -1.4284964   -5.1836874 
C    -2.5786767    4.2260615   -3.8969125 
C     1.3560118   -5.7250151    0.4937855 
C     2.5576045    0.3262559    4.9390849 
H     3.8273428    2.6360573   -1.1203986 
H     3.3584652    1.3228197   -2.1990079 
H     4.5989827    0.7110868   -0.0773616 
H     3.2080231    1.1881676    0.8849575 
H     1.7048517    3.2152709   -1.9560090 
H     1.4793429    2.8148391   -0.2408721 
H     2.8057987   -0.9007173   -1.3375414 
H     3.7105105   -1.3881390    0.1100494 
H     1.7590312    1.8473765   -4.1963348 
H    -0.3796954    4.1849888   -1.2839603 
H     1.9594039   -3.0090054   -1.4872792 
H     3.2651531   -2.1861583    2.7250088 
H    -0.0146779   -1.5752506   -2.2108212 
H    -1.5969401    0.9494991   -3.9183642 
H     0.8373702   -3.1723095    2.7097247 
H     0.5254265    1.1460402    2.3063981 
H     2.5191308    0.3761890   -6.0507340 
H    -1.8770905    5.7291984   -2.4982729 
H     1.9122705   -5.4788557   -1.5908629 
H     3.8840961   -1.3906327    4.9969749 
H     0.7216539   -3.0441913   -4.0942198 
H    -3.1113669    2.5119188   -5.1172491 
H     0.8081096   -5.6436591    2.5922925 
H     1.1667754    1.9552272    4.5868761 
H     2.0066033   -2.0699575   -6.0084618 
H    -3.2371326    4.9162250   -4.4341480 
H     1.3436741   -6.8187726    0.4464136 
H     2.8345210    0.6723784    5.9402578 
