87
Energy =
C    -2.1468035   -1.4569520   -0.1153238 
C    -2.4291618   -0.2920977    0.6542873 
C    -2.4003081    0.9911327    0.0538767 
H    -2.5367743   -0.3778815    1.7421699 
Pd   -0.3825141   -0.0621787   -0.1189204 
P     0.9205296    1.8835696    0.0071720 
P     1.1908726   -1.7159035   -0.6296371 
H    -2.3611443   -1.3960884   -1.1918033 
H    -2.5275462    1.0238057   -1.0389198 
C    -2.2279344   -5.4835481    1.3885419 
C    -2.3626448   -5.2286479    0.0161719 
C    -2.3022162   -3.9138667   -0.4627587 
C    -2.1161141   -2.8282020    0.4231339 
C    -1.9431127   -3.1045188    1.7997047 
C    -2.0071522   -4.4166588    2.2759590 
H    -2.2835234   -6.5096243    1.7663764 
H    -2.5242442   -6.0549121   -0.6839005 
H    -2.4167130   -3.7178689   -1.5347868 
H    -1.7512672   -2.2880984    2.5036476 
H    -1.8756435   -4.6116567    3.3449015 
C    -3.3080019    4.7463735    1.9350067 
C    -3.1629349    4.6577582    0.5429467 
C    -2.8453646    3.4307293   -0.0510597 
C    -2.6672279    2.2677255    0.7337816 
C    -2.7913843    2.3791278    2.1384487 
C    -3.1153737    3.6031972    2.7289455 
H    -3.5654711    5.7023078    2.4024791 
H    -3.3070867    5.5439340   -0.0837063 
H    -2.7430982    3.3647623   -1.1396870 
H    -2.6378866    1.5040109    2.7769126 
H    -3.2137691    3.6690230    3.8169570 
C     3.5341318    1.3433163   -1.1212577 
C     3.0403117    0.0614530   -1.8140585 
C     2.7781234    1.7346354    0.1594874 
C     2.9528704   -1.1631949   -0.8722957 
C     0.7015658    3.0555855   -1.3843346 
C     0.5423113    2.7615514    1.5771456 
C     0.8408159   -2.5620709   -2.2219925 
C     1.3192832   -2.9849738    0.6866145 
C     1.4246910    4.2666900   -1.4565842 
C     0.2122567    4.1261637    1.6605166 
C     1.6216665   -3.6546214   -2.6599554 
C     1.0383840   -4.3514743    0.5036970 
C    -0.1630759    2.7080692   -2.4412345 
C     0.6229694    1.9933037    2.7600506 
C    -0.1728379   -2.0644975   -3.0644700 
C     1.6864346   -2.5201288    1.9700725 
C     1.2572594    5.1225712   -2.5532836 
C    -0.0000810    4.7186476    2.9139778 
C     1.3628073   -4.2551848   -3.8987093 
C     1.1568069   -5.2412619    1.5812084 
C    -0.3264672    3.5646209   -3.5388231 
C     0.4171340    2.5925556    4.0087834 
C    -0.4248872   -2.6619764   -4.3076990 
C     1.8053180   -3.4133265    3.0409217 
C     0.3787661    4.7757338   -3.5920749 
C     0.1124337    3.9604216    4.0874822 
C     0.3367404   -3.7638785   -4.7216709 
C     1.5457420   -4.7793573    2.8456347 
H     4.6018310    1.2301616   -0.8536306 
H     3.4808230    2.1788244   -1.8422309 
H     2.0496638    0.2563652   -2.2736241 
H     3.7130011   -0.1682321   -2.6574624 
H     3.1443020    2.7050595    0.5389916 
H     2.9446372    1.0065289    0.9748130 
H     3.5123828   -2.0302257   -1.2625708 
H     3.3682435   -0.9525512    0.1287815 
H     2.1201279    4.5467166   -0.6578824 
H     0.0991407    4.7260926    0.7534542 
H     2.4327508   -4.0431306   -2.0342465 
H     0.7068707   -4.7243473   -0.4686590 
H    -0.7002106    1.7533415   -2.4020556 
H     0.8412816    0.9193644    2.7002497 
H    -0.7563962   -1.1932503   -2.7458748 
H     1.8767917   -1.4516379    2.1325337 
H     1.8180860    6.0617650   -2.5991607 
H    -0.2648098    5.7794536    2.9684000 
H     1.9681182   -5.1071308   -4.2250973 
H     0.9310037   -6.3013067    1.4285912 
H    -1.0009784    3.2841915   -4.3544083 
H     0.4904017    1.9907984    4.9206964 
H    -1.2140848   -2.2640052   -4.9538869 
H     2.0986099   -3.0438297    4.0290348 
H     0.2518830    5.4468767   -4.4477508 
H    -0.0500120    4.4308403    5.0626457 
H     0.1388431   -4.2351370   -5.6898704 
H     1.6372390   -5.4797212    3.6821540 
