87
Energy =
C    -1.7726269   -1.9961627    0.9340673 
C    -2.5101355   -0.8517698    0.5182112 
C    -2.6321541   -0.5002461   -0.8481341 
H    -2.8657649   -0.1537731    1.2865000 
Pd   -0.4460032   -0.5862393   -0.1978173 
P     0.4233020    1.1209559   -1.5570317 
P     1.6139308   -1.3006745    0.6695312 
H    -1.7125812   -2.8449626    0.2359216 
H    -2.4806355   -1.3032887   -1.5855926 
C    -1.3025259   -3.0173659    5.0885685 
C    -1.2682677   -1.6694002    4.6945382 
C    -1.4013905   -1.3287600    3.3448604 
C    -1.5725516   -2.3288245    2.3595378 
C    -1.5823635   -3.6794867    2.7672966 
C    -1.4559589   -4.0194792    4.1198498 
H    -1.2010208   -3.2838583    6.1456136 
H    -1.1336287   -0.8816553    5.4432082 
H    -1.3559835   -0.2753479    3.0472131 
H    -1.7009197   -4.4674767    2.0163501 
H    -1.4719416   -5.0730014    4.4166455 
C    -4.7891281    2.8715447   -2.4300467 
C    -4.5873507    2.7655331   -1.0441572 
C    -3.8695273    1.6886116   -0.5143276 
C    -3.3571390    0.6755319   -1.3589126 
C    -3.5780984    0.7908176   -2.7518083 
C    -4.2767398    1.8808062   -3.2830297 
H    -5.3473542    3.7185000   -2.8419875 
H    -4.9837715    3.5332193   -0.3719293 
H    -3.7095826    1.6391593    0.5669937 
H    -3.1947588    0.0160525   -3.4227847 
H    -4.4307441    1.9512428   -4.3646227 
C     2.9598429    0.1480307   -2.4627445 
C     2.6445575   -1.3035472   -2.0681422 
C     2.2846385    1.2400913   -1.6172432 
C     2.9499948   -1.6780493   -0.6060529 
C    -0.0396950    1.0275895   -3.3301363 
C    -0.0722069    2.7910538   -0.9843436 
C     1.6185595   -2.8475319    1.6653873 
C     2.3061077   -0.0297075    1.8014637 
C     0.0966753    2.1420492   -4.1842551 
C     0.6974884    3.4577414   -0.0046227 
C     1.3764461   -4.0707068    1.0022833 
C     3.6470079   -0.0728627    2.2417249 
C    -0.4618798   -0.2053746   -3.8650475 
C    -1.2474892    3.4017241   -1.4697348 
C     1.8361362   -2.8472885    3.0558269 
C     1.4576618    0.9903372    2.2763416 
C    -0.2034462    2.0219414   -5.5476305 
C     0.2979774    4.7115300    0.4749592 
C     1.4052441   -5.2773592    1.7120968 
C     4.1274990    0.8985328    3.1294141 
C    -0.7506370   -0.3252997   -5.2316698 
C    -1.6357408    4.6600991   -0.9893184 
C     1.8556358   -4.0589877    3.7621427 
C     1.9403780    1.9583689    3.1690673 
C    -0.6269550    0.7904510   -6.0727347 
C    -0.8693984    5.3167467   -0.0163517 
C     1.6548650   -5.2739158    3.0934240 
C     3.2759556    1.9148638    3.5936363 
H     4.0527065    0.3090123   -2.3996119 
H     2.6858103    0.2914510   -3.5235598 
H     1.5865048   -1.5399484   -2.2929997 
H     3.2444488   -1.9659864   -2.7177628 
H     2.5333068    2.2397731   -2.0157777 
H     2.6395600    1.2093882   -0.5702150 
H     3.1089975   -2.7658824   -0.5274077 
H     3.8852075   -1.2012680   -0.2616327 
H     0.4270251    3.1060862   -3.7826416 
H     1.6126324    3.0068182    0.3891692 
H     1.1698436   -4.0855137   -0.0751405 
H     4.3162622   -0.8729121    1.9068540 
H    -0.5712702   -1.0725247   -3.2030059 
H    -1.8532724    2.9052996   -2.2333788 
H     1.9932911   -1.9060293    3.5902328 
H     0.4180645    1.0290745    1.9295070 
H    -0.1037989    2.8929572   -6.2035450 
H     0.9074152    5.2201774    1.2294417 
H     1.2312122   -6.2216324    1.1857466 
H     5.1690462    0.8594086    3.4645658 
H    -1.0774231   -1.2880222   -5.6380932 
H    -2.5468130    5.1230220   -1.3815447 
H     2.0264115   -4.0478030    4.8432740 
H     1.2721343    2.7494666    3.5245770 
H    -0.8585214    0.7011422   -7.1391338 
H    -1.1765593    6.2998464    0.3549857 
H     1.6798136   -6.2172168    3.6484532 
H     3.6561562    2.6710942    4.2881789 
