87
Energy =
C    -2.3479727   -1.7136899   -0.4253686 
C    -2.7453263   -0.4614236    0.0956598 
C    -2.7123070    0.7229723   -0.7042475 
H    -2.9431187   -0.3618116    1.1710484 
Pd   -0.6766148   -0.1491379   -0.5860600 
P     0.5645059    1.7300265   -1.2482612 
P     1.2065299   -1.4612807   -0.0578228 
H    -2.3561414   -1.8221125   -1.5214182 
H    -2.9076418    0.6154043   -1.7818128 
C    -2.1588860   -5.4868308    1.6273245 
C    -2.0549301   -5.4196168    0.2306145 
C    -2.1199649   -4.1818885   -0.4178304 
C    -2.2919083   -2.9841330    0.3133604 
C    -2.4129703   -3.0710644    1.7204364 
C    -2.3422274   -4.3072276    2.3685915 
H    -2.1057586   -6.4535209    2.1384110 
H    -1.9199310   -6.3327912   -0.3569546 
H    -2.0380034   -4.1358385   -1.5083028 
H    -2.5755831   -2.1684878    2.3180291 
H    -2.4376207   -4.3540303    3.4583069 
C    -3.5897239    4.5980851    0.9559136 
C    -2.8650197    3.6616003    1.7116799 
C    -2.5685720    2.4052529    1.1742984 
C    -2.9905277    2.0567299   -0.1302371 
C    -3.7020609    3.0136544   -0.8835866 
C    -4.0034454    4.2699735   -0.3429110 
H    -3.8226405    5.5817666    1.3763358 
H    -2.5257565    3.9153475    2.7214595 
H    -1.9845737    1.6886536    1.7639721 
H    -4.0278397    2.7652775   -1.8988951 
H    -4.5600081    4.9973571   -0.9423862 
C     1.8438785   -0.1282314   -3.0898314 
C     2.9262818   -0.8968320   -2.3140448 
C     1.6756570    1.3579984   -2.7203058 
C     2.8268791   -0.8869330   -0.7782578 
C    -0.3518081    3.2183114   -1.8180420 
C     1.6491442    2.3495022    0.0980926 
C     1.1514586   -3.2466424   -0.4807586 
C     1.4963545   -1.3814785    1.7570866 
C    -1.0553238    3.1601667   -3.0409799 
C     2.7632909    3.1780527   -0.1565722 
C     1.4228401   -4.2519129    0.4675178 
C     2.7742542   -1.5212854    2.3358708 
C    -0.3951233    4.3986775   -1.0522016 
C     1.3457637    1.9924662    1.4263318 
C     0.8419260   -3.6126520   -1.8086546 
C     0.3879541   -1.1494436    2.5971499 
C    -1.7448961    4.2834357   -3.5136828 
C     3.5707458    3.6132174    0.9024073 
C     1.4110717   -5.6001944    0.0828697 
C     2.9347007   -1.4217418    3.7255207 
C    -1.0977849    5.5161726   -1.5256297 
C     2.1563380    2.4271143    2.4838852 
C     0.8515103   -4.9601674   -2.1916957 
C     0.5481031   -1.0563296    3.9849477 
C    -1.7605926    5.4670486   -2.7594779 
C     3.2733068    3.2327846    2.2216853 
C     1.1392508   -5.9563004   -1.2459921 
C     1.8252240   -1.1889106    4.5518796 
H     2.1028366   -0.1818337   -4.1626579 
H     0.8623820   -0.6343793   -2.9895100 
H     2.9406466   -1.9425090   -2.6708987 
H     3.9155081   -0.4750515   -2.5745245 
H     1.2141124    1.8978976   -3.5631116 
H     2.6541967    1.8382380   -2.5423716 
H     3.6241123   -1.5289481   -0.3657060 
H     2.9803344    0.1296121   -0.3698401 
H    -1.0655542    2.2361369   -3.6322081 
H     2.9997350    3.4955541   -1.1779664 
H     1.6367623   -3.9845778    1.5069508 
H     3.6539544   -1.7070527    1.7129876 
H     0.1228678    4.4502872   -0.0899303 
H     0.4762420    1.3599828    1.6273611 
H     0.5792395   -2.8430147   -2.5432378 
H    -0.6023087   -1.0260229    2.1479278 
H    -2.2741403    4.2328694   -4.4709108 
H     4.4352182    4.2531140    0.6974130 
H     1.6156226   -6.3754229    0.8284489 
H     3.9326996   -1.5274493    4.1631526 
H    -1.1243597    6.4296057   -0.9229750 
H     1.9164695    2.1250435    3.5083677 
H     0.6225135   -5.2330672   -3.2271087 
H    -0.3229226   -0.8759033    4.6235668 
H    -2.2992929    6.3454882   -3.1291253 
H     3.9128168    3.5697713    3.0440935 
H     1.1400731   -7.0101480   -1.5428908 
H     1.9558689   -1.1113285    5.6362389 
