87
Energy =
C    -2.3727168   -1.2843016   -0.6105314 
C    -2.5603187   -0.3051706    0.3956100 
C    -2.4591804    1.0825711    0.0922617 
H    -2.6532531   -0.6246669    1.4414802 
Pd   -0.5332313    0.0354177   -0.4062957 
P     0.7809748    1.9839111   -0.5434437 
P     1.0571961   -1.6468269   -0.7715104 
H    -2.5309589   -0.9614777   -1.6516877 
H    -2.7032769    1.3929544   -0.9345181 
C    -2.6809310   -5.5415709   -0.1078694 
C    -2.2933809   -4.7443194    0.9825011 
C    -2.1788582   -3.3587256    0.8364649 
C    -2.4413624   -2.7410550   -0.4081427 
C    -2.8104200   -3.5575164   -1.5005704 
C    -2.9392366   -4.9427219   -1.3492907 
H    -2.7756986   -6.6258615    0.0110154 
H    -2.0816782   -5.2061857    1.9524023 
H    -1.8730733   -2.7549346    1.6957358 
H    -3.0011697   -3.0966141   -2.4754897 
H    -3.2327733   -5.5567006   -2.2064113 
C    -2.7486802    4.2499709    2.9909521 
C    -2.3335540    2.9705628    3.3992390 
C    -2.2343322    1.9333366    2.4682903 
C    -2.5460104    2.1506108    1.1051756 
C    -2.9600035    3.4415334    0.7098953 
C    -3.0635157    4.4795261    1.6443482 
H    -2.8259949    5.0613771    3.7218907 
H    -2.0832725    2.7850502    4.4489414 
H    -1.8986892    0.9450401    2.8017773 
H    -3.1996299    3.6286346   -0.3423893 
H    -3.3876402    5.4724584    1.3160954 
C     3.5204075    1.3115747   -1.2434483 
C     3.3911053   -0.0657548   -0.5749364 
C     2.2096614    1.9337353   -1.7571378 
C     2.7137061   -1.1438311   -1.4539025 
C    -0.2060386    3.3702096   -1.2443487 
C     1.5226007    2.5863999    1.0165332 
C     0.5538852   -2.9967888   -1.9066193 
C     1.5087839   -2.4152682    0.8361759 
C    -0.8852860    3.1267078   -2.4587020 
C     2.4109917    3.6845694    1.0393306 
C     0.1853958   -2.6229270   -3.2176850 
C     2.5430294   -3.3705262    0.9389458 
C    -0.3193688    4.6317604   -0.6317909 
C     1.2242224    1.9144188    2.2169112 
C     0.5189795   -4.3544144   -1.5388302 
C     0.8386811   -2.0039051    2.0052306 
C    -1.6469909    4.1365895   -3.0594857 
C     2.9786860    4.1026524    2.2499321 
C    -0.1760528   -3.5975270   -4.1559044 
C     2.8814974   -3.9119351    2.1862505 
C    -1.0804948    5.6421244   -1.2404639 
C     1.7937276    2.3353206    3.4261380 
C     0.1534592   -5.3258208   -2.4824040 
C     1.1807852   -2.5429443    3.2528513 
C    -1.7424242    5.3998877   -2.4515608 
C     2.6694378    3.4302652    3.4435968 
C    -0.1852773   -4.9533341   -3.7903530 
C     2.2010742   -3.5007272    3.3435415 
H     3.9878162    2.0034563   -0.5209567 
H     4.2142903    1.2438877   -2.1028576 
H     4.3979531   -0.4128803   -0.2870904 
H     2.8404353    0.0459884    0.3810742 
H     1.8186817    1.3914543   -2.6377581 
H     2.3876672    2.9721514   -2.0876703 
H     2.5428373   -0.7980035   -2.4891636 
H     3.3253284   -2.0585616   -1.5352895 
H    -0.8227362    2.1389907   -2.9333666 
H     2.6591908    4.2169559    0.1144828 
H     0.1791149   -1.5636455   -3.5048323 
H     3.0856975   -3.7006231    0.0464342 
H     0.1651632    4.8256532    0.3292668 
H     0.5463258    1.0559458    2.1932953 
H     0.7551524   -4.6567471   -0.5147384 
H     0.0465236   -1.2490663    1.9248005 
H    -2.1671828    3.9389982   -4.0024726 
H     3.6663925    4.9544838    2.2617910 
H    -0.4520234   -3.2994837   -5.1727565 
H     3.6821274   -4.6555389    2.2554184 
H    -1.1650201    6.6190827   -0.7534569 
H     1.5545062    1.8060190    4.3541624 
H     0.1232444   -6.3790652   -2.1855399 
H     0.6526264   -2.2134727    4.1537049 
H    -2.3378261    6.1898652   -2.9206093 
H     3.1165763    3.7598315    4.3871022 
H    -0.4677340   -5.7162483   -4.5230896 
H     2.4713580   -3.9242450    4.3163248 
