87
Energy =
C    -2.3848544   -1.3717039   -0.3576127 
C    -2.5864256   -0.3461926    0.6072756 
C    -2.5574303    1.0217877    0.2310448 
H    -2.6204051   -0.6178966    1.6698863 
Pd   -0.6016783   -0.0126598   -0.2749951 
P     0.8020099    1.8266331    0.0369534 
P     0.9720850   -1.5035360   -1.1417852 
H    -2.6711054   -1.1481737   -1.3970296 
H    -2.7797364    1.2441841   -0.8237415 
C    -2.3303231   -5.5644240    0.6085511 
C    -2.9253470   -5.1117823   -0.5776721 
C    -2.9211222   -3.7471484   -0.8920304 
C    -2.3376211   -2.8078880   -0.0159803 
C    -1.7369957   -3.2773001    1.1743291 
C    -1.7303867   -4.6414278    1.4818170 
H    -2.3273004   -6.6321506    0.8508851 
H    -3.3868533   -5.8249406   -1.2681516 
H    -3.3759051   -3.4017676   -1.8262930 
H    -1.2539220   -2.5669870    1.8540508 
H    -1.2530342   -4.9884444    2.4042300 
C    -3.2510527    4.3827536    2.8173862 
C    -3.2623630    4.5360907    1.4234237 
C    -3.0041116    3.4369066    0.5956708 
C    -2.7341211    2.1618500    1.1443980 
C    -2.6924445    2.0311858    2.5523686 
C    -2.9562798    3.1279438    3.3767972 
H    -3.4634119    5.2376459    3.4675559 
H    -3.4831071    5.5117894    0.9783959 
H    -3.0255768    3.5587613   -0.4930116 
H    -2.4557619    1.0654761    3.0094220 
H    -2.9270123    3.0064560    4.4641205 
C     3.2612338    1.3645975   -1.4417639 
C     3.4257022   -0.0769225   -1.9459878 
C     2.6498903    1.5492664   -0.0353211 
C     2.1701246   -0.8295787   -2.4226136 
C     0.5283188    3.1988655   -1.1479670 
C     0.6235877    2.5346435    1.7226290 
C     0.2393214   -2.9014489   -2.0843231 
C     2.0308163   -2.2666155    0.1439267 
C    -0.4500819    3.0591360   -2.1518505 
C     0.1995638    3.8546042    1.9652784 
C    -0.4833702   -2.5919164   -3.2571531 
C     3.1335789   -3.0816263   -0.1930840 
C     1.3102167    4.3744002   -1.1061911 
C     0.9337261    1.6951947    2.8157061 
C     0.3686089   -4.2441470   -1.6843981 
C     1.7410010   -2.0263027    1.5012337 
C    -0.6601925    4.0818079   -3.0882000 
C     0.1151134    4.3325040    3.2809214 
C    -1.0349951   -3.6160888   -4.0370281 
C     3.9301938   -3.6381872    0.8162267 
C     1.0972453    5.3949344   -2.0416066 
C     0.8478670    2.1792934    4.1267655 
C    -0.1896632   -5.2646794   -2.4684870 
C     2.5394131   -2.5846118    2.5094840 
C     0.1106389    5.2517361   -3.0307975 
C     0.4430721    3.5026360    4.3615142 
C    -0.8818182   -4.9562859   -3.6472240 
C     3.6357119   -3.3894650    2.1667703 
H     4.2721921    1.8080662   -1.4070869 
H     2.7024477    1.9648487   -2.1847844 
H     4.1025663   -0.0401667   -2.8193305 
H     3.9544784   -0.6773181   -1.1826110 
H     3.0920750    2.4323558    0.4586463 
H     2.8677926    0.6840936    0.6175393 
H     1.5650818   -0.1946939   -3.0956314 
H     2.4781372   -1.7101234   -3.0141924 
H    -1.0422638    2.1379649   -2.1999877 
H    -0.0785300    4.5088203    1.1348010 
H    -0.6140430   -1.5472696   -3.5654943 
H     3.3676520   -3.2899572   -1.2427957 
H     2.0830367    4.4987456   -0.3397448 
H     1.2542994    0.6620906    2.6413090 
H     0.8911767   -4.4975790   -0.7576193 
H     0.8797319   -1.3977083    1.7575119 
H    -1.4234182    3.9629074   -3.8641604 
H    -0.2201212    5.3593465    3.4577346 
H    -1.5848443   -3.3679544   -4.9509105 
H     4.7839328   -4.2689978    0.5481288 
H     1.7047070    6.3048800   -1.9999187 
H     1.0996878    1.5231368    4.9665160 
H    -0.0888607   -6.3058504   -2.1460299 
H     2.3049999   -2.3919111    3.5615447 
H    -0.0517479    6.0515579   -3.7606400 
H     0.3767878    3.8825542    5.3861601 
H    -1.3123269   -5.7569437   -4.2572961 
H     4.2621421   -3.8256796    2.9516237 
