87
Energy =
C    -1.8184274   -1.2132390    1.4757439 
C    -2.4074748    0.0618188    1.2902426 
C    -2.7108534    0.5530360   -0.0088426 
H    -2.5229835    0.7273441    2.1543263 
Pd   -0.4994343    0.1082107    0.1707310 
P     0.3195748    1.3444476   -1.6499261 
P     1.5128313   -1.0155318    0.6361863 
H    -1.9480364   -1.9473879    0.6654520 
H    -2.8752133   -0.1987874   -0.7956361 
C    -0.8468104   -3.0353572    5.2485330 
C    -0.9698020   -1.6373147    5.1673930 
C    -1.2800248   -1.0269277    3.9496821 
C    -1.4682677   -1.8002154    2.7798939 
C    -1.3443369   -3.2046742    2.8780890 
C    -1.0411393   -3.8163247    4.1007396 
H    -0.6056344   -3.5106132    6.2048386 
H    -0.8207549   -1.0217411    6.0604137 
H    -1.3697489    0.0633628    3.9075154 
H    -1.4916471   -3.8191739    1.9838574 
H    -0.9540911   -4.9064923    4.1544047 
C    -4.7205850    4.2704146   -0.7928925 
C    -4.0205235    4.1039796    0.4136232 
C    -3.3278585    2.9165179    0.6679050 
C    -3.3336337    1.8601751   -0.2738433 
C    -4.0170547    2.0555306   -1.4955150 
C    -4.7065939    3.2457233   -1.7506501 
H    -5.2659783    5.1993626   -0.9882384 
H    -4.0158386    4.9055278    1.1596675 
H    -2.7799585    2.8085913    1.6102677 
H    -4.0169556    1.2556160   -2.2439094 
H    -5.2349419    3.3739280   -2.7004978 
C     2.7760216    1.8882027   -0.1481856 
C     3.6550279    0.6398358   -0.3239892 
C     1.8938331    2.3084404   -1.3346420 
C     2.9281141   -0.7002759   -0.5403242 
C     0.6281726    0.1587584   -3.0260241 
C    -0.7284333    2.6357568   -2.4336462 
C     1.3116126   -2.8355530    0.5019380 
C     2.2376195   -0.6723396    2.2827470 
C    -0.2891449   -0.9022490   -3.1885341 
C    -1.0378009    3.7908245   -1.6823753 
C     0.9607847   -3.3606659   -0.7619616 
C     3.4264390   -1.3051479    2.7076431 
C     1.6957526    0.2837442   -3.9378748 
C    -1.2099903    2.5196024   -3.7524526 
C     1.4599376   -3.7088828    1.5964141 
C     1.6303359    0.2877859    3.1135402 
C    -0.1391033   -1.8216342   -4.2358095 
C    -1.7727191    4.8313477   -2.2601858 
C     0.7797649   -4.7387232   -0.9284702 
C     3.9812584   -0.9898987    3.9545484 
C     1.8514441   -0.6450913   -4.9768336 
C    -1.9559275    3.5626964   -4.3217633 
C     1.2806475   -5.0901054    1.4206703 
C     2.1897009    0.6032220    4.3594547 
C     0.9367202   -1.6981513   -5.1279111 
C    -2.2286003    4.7218932   -3.5832759 
C     0.9420235   -5.6079072    0.1634485 
C     3.3623399   -0.0385110    4.7820358 
H     2.1409818    1.7758909    0.7517033 
H     3.4487468    2.7381690    0.0677943 
H     4.3477637    0.7909593   -1.1738403 
H     4.2872508    0.5508641    0.5775143 
H     2.4691008    2.3564498   -2.2764869 
H     1.5271363    3.3335833   -1.1571733 
H     2.5002814   -0.7771696   -1.5554199 
H     3.6379279   -1.5394889   -0.4340921 
H    -1.1233580   -1.0073982   -2.4846872 
H    -0.7054066    3.8804099   -0.6416366 
H     0.8301625   -2.6914717   -1.6196392 
H     3.9172437   -2.0473603    2.0682974 
H     2.4138491    1.1044782   -3.8464779 
H    -0.9889706    1.6264102   -4.3448198 
H     1.7022155   -3.3176567    2.5882544 
H     0.7178311    0.7896143    2.7710469 
H    -0.8599542   -2.6377856   -4.3504476 
H    -2.0032231    5.7234803   -1.6701582 
H     0.5143270   -5.1356134   -1.9139967 
H     4.9011116   -1.4859652    4.2809153 
H     2.6889799   -0.5411164   -5.6742399 
H    -2.3150361    3.4691796   -5.3519256 
H     1.3992582   -5.7605222    2.2783098 
H     1.7084809    1.3490161    5.0005045 
H     1.0612037   -2.4196646   -5.9418330 
H    -2.8045167    5.5369820   -4.0332120 
H     0.8030805   -6.6859815    0.0322862 
H     3.7998973    0.2049269    5.7557242 
