87
Energy =
C    -2.2237684   -1.4630382   -0.3573706 
C    -2.5663165   -0.2783199    0.3543432 
C    -2.5655856    0.9828512   -0.2905437 
H    -2.7039558   -0.3217948    1.4423315 
Pd   -0.5195131    0.0033585   -0.4193021 
P     0.7422195    1.9631347   -0.1771224 
P     1.1187502   -1.5487083   -1.0917372 
H    -2.4177336   -1.4742456   -1.4401464 
H    -2.6759413    0.9793205   -1.3865002 
C    -1.9250060   -5.3773626    1.4049067 
C    -1.7427618   -4.2383191    2.2081984 
C    -1.8351250   -2.9613569    1.6486242 
C    -2.1109358   -2.7920060    0.2710689 
C    -2.2898165   -3.9456924   -0.5233853 
C    -2.2008597   -5.2251860    0.0389453 
H    -1.8526183   -6.3770733    1.8452701 
H    -1.5242851   -4.3498849    3.2753569 
H    -1.6796673   -2.0846338    2.2872121 
H    -2.4984940   -3.8328090   -1.5926920 
H    -2.3442856   -6.1058760   -0.5955439 
C    -3.6278317    4.7459047    1.4934925 
C    -3.0849325    3.7296181    2.2979997 
C    -2.7245308    2.5021177    1.7343325 
C    -2.8912647    2.2681288    0.3497547 
C    -3.4185888    3.3064818   -0.4501304 
C    -3.7933869    4.5292692    0.1179369 
H    -3.9151820    5.7039826    1.9387397 
H    -2.9441610    3.8950775    3.3711530 
H    -2.3006940    1.7241045    2.3757523 
H    -3.5379431    3.1474201   -1.5270560 
H    -4.2067056    5.3183265   -0.5179944 
C     3.3210052    0.8264214   -0.3706302 
C     3.6878565   -0.2311742   -1.4230283 
C     2.4536783    1.9899836   -0.9068307 
C     2.5039064   -0.8784537   -2.1635319 
C    -0.0067786    3.4910615   -0.8614319 
C     1.0696347    2.2590534    1.6070259 
C     0.3836910   -2.7914131   -2.2332701 
C     1.9699798   -2.4754413    0.2358059 
C    -0.3100403    3.4904210   -2.2408025 
C     1.9138487    3.3025020    2.0442312 
C     0.5051423   -4.1815222   -2.0528618 
C     3.0401977   -3.3543152   -0.0433450 
C    -0.2889943    4.6345628   -0.0917198 
C     0.5038693    1.3908162    2.5614296 
C    -0.3465331   -2.2978155   -3.3371127 
C     1.5652218   -2.2818244    1.5700283 
C    -0.8525513    4.6305414   -2.8461853 
C     2.1673535    3.4783804    3.4110747 
C    -0.0745612   -5.0631355   -2.9788657 
C     3.6822116   -4.0320192    1.0012277 
C    -0.8348300    5.7727067   -0.7034613 
C     0.7615953    1.5648720    3.9279935 
C    -0.9271801   -3.1815436   -4.2552188 
C     2.2092949   -2.9617057    2.6124589 
C    -1.1090867    5.7776448   -2.0778443 
C     1.5914854    2.6119607    4.3540626 
C    -0.7881586   -4.5687091   -4.0788517 
C     3.2663419   -3.8381813    2.3286282 
H     2.8080361    0.3299740    0.4778621 
H     4.2521461    1.2355076    0.0568241 
H     4.3506709    0.2184290   -2.1866753 
H     4.2776409   -1.0219276   -0.9269533 
H     2.3355415    1.9569384   -2.0047081 
H     2.8921077    2.9759315   -0.6764914 
H     2.0140188   -0.1648622   -2.8514888 
H     2.8604076   -1.7154562   -2.7893336 
H    -0.1223161    2.5927385   -2.8435958 
H     2.3730839    3.9856646    1.3214036 
H     1.0312149   -4.5826324   -1.1820395 
H     3.3721381   -3.5141433   -1.0751656 
H    -0.1052984    4.6354663    0.9863573 
H    -0.1390791    0.5710150    2.2173626 
H    -0.4669525   -1.2155032   -3.4747300 
H     0.7446236   -1.5904129    1.7834525 
H    -1.0763067    4.6243143   -3.9180647 
H     2.8200802    4.2930616    3.7411685 
H     0.0228272   -6.1430988   -2.8271728 
H     4.5107903   -4.7123180    0.7790863 
H    -1.0568579    6.6554014   -0.0952640 
H     0.3165424    0.8820847    4.6592780 
H    -1.4892465   -2.7889153   -5.1089107 
H     1.8859779   -2.8049770    3.6466327 
H    -1.5331711    6.6696397   -2.5502621 
H     1.7951282    2.7514102    5.4207657 
H    -1.2419896   -5.2603052   -4.7959916 
H     3.7715622   -4.3694883    3.1417853 
