87
Energy =
C    -1.9888502   -1.1905659    1.3500613 
C    -2.3833575    0.1665978    1.3151951 
C    -2.6628579    0.8142216    0.0737594 
H    -2.3608612    0.7612168    2.2378409 
Pd   -0.5533362    0.0889384    0.0974801 
P     0.2600703    1.2663329   -1.7653204 
P     1.4665392   -1.0134551    0.5989346 
H    -2.2530884   -1.8042738    0.4747388 
H    -3.0372142    0.1835385   -0.7466836 
C    -1.1311528   -3.5390123    4.8457606 
C    -0.9222401   -2.1486243    4.8783935 
C    -1.2026238   -1.3679090    3.7538798 
C    -1.6754521   -1.9634879    2.5614182 
C    -1.8710126   -3.3635959    2.5400654 
C    -1.6169569   -4.1414563    3.6762597 
H    -0.9179186   -4.1468941    5.7310027 
H    -0.5391849   -1.6721023    5.7865093 
H    -1.0360745   -0.2883888    3.7974452 
H    -2.2285901   -3.8420725    1.6219665 
H    -1.7867890   -5.2224776    3.6434240 
C    -3.9215804    4.9232594   -0.0907839 
C    -2.9424763    4.5326394    0.8380531 
C    -2.5027275    3.2055852    0.8783666 
C    -3.0384912    2.2390592   -0.0051516 
C    -3.9977540    2.6531284   -0.9539854 
C    -4.4404095    3.9808371   -0.9905846 
H    -4.2696955    5.9609363   -0.1184127 
H    -2.5205977    5.2674871    1.5317963 
H    -1.7246464    2.9133789    1.5936748 
H    -4.4084795    1.9220082   -1.6582603 
H    -5.1916541    4.2811046   -1.7279478 
C     2.6037027    2.0105015   -0.2037064 
C     3.5515584    0.8006433   -0.1751466 
C     1.8439050    2.2437743   -1.5219684 
C     2.9290537   -0.5736271   -0.4776261 
C     0.5994378    0.0383635   -3.0966243 
C    -0.8456999    2.4749622   -2.6019920 
C     1.4321318   -2.8445588    0.5081565 
C     2.0585832   -0.6085418    2.2895734 
C     1.3340448    0.3855632   -4.2506961 
C    -1.6441485    2.0756606   -3.6941658 
C     1.1639224   -3.6244193    1.6520215 
C     1.4859757    0.4785341    2.9778015 
C     0.0657998   -1.2613715   -2.9861437 
C    -0.9404044    3.8012606   -2.1295954 
C     1.6322075   -3.4863004   -0.7346692 
C     3.1244182   -1.3186465    2.8817783 
C     1.5479368   -0.5612617   -5.2605247 
C    -2.4848162    3.0010682   -4.3290555 
C     1.1105241   -5.0222545    1.5522849 
C     1.9609717    0.8482199    4.2438330 
C     0.2760117   -2.2059300   -4.0020438 
C    -1.7750152    4.7225150   -2.7741146 
C     1.5697870   -4.8824265   -0.8263324 
C     3.5934300   -0.9509095    4.1496826 
C     1.0217162   -1.8579046   -5.1371362 
C    -2.5419189    4.3279716   -3.8801655 
C     1.3104338   -5.6543943    0.3173560 
C     3.0123529    0.1303728    4.8321745 
H     1.8775589    1.9468787    0.6290504 
H     3.2106989    2.9118479   -0.0035844 
H     4.3649167    0.9622145   -0.9077897 
H     4.0325401    0.7633158    0.8187911 
H     2.4923759    2.0553475   -2.3961333 
H     1.5377202    3.3001682   -1.5871030 
H     2.5822982   -0.6355616   -1.5253795 
H     3.6841225   -1.3677143   -0.3394902 
H     1.7282160    1.4002835   -4.3731763 
H    -1.5938118    1.0471414   -4.0664143 
H     1.0064715   -3.1455624    2.6231217 
H     0.6593570    1.0310845    2.5129662 
H    -0.5113951   -1.5327443   -2.0925395 
H    -0.3683555    4.1266284   -1.2543207 
H     1.8419696   -2.9018117   -1.6356455 
H     3.5813170   -2.1650014    2.3572283 
H     2.1215737   -0.2844211   -6.1510113 
H    -3.0875626    2.6832682   -5.1861772 
H     0.9076223   -5.6153157    2.4498142 
H     1.5078158    1.6936193    4.7719479 
H    -0.1404468   -3.2134721   -3.9012871 
H    -1.8330200    5.7495083   -2.4009290 
H     1.7333527   -5.3687973   -1.7937883 
H     4.4170178   -1.5092811    4.6064989 
H     1.1898814   -2.5937988   -5.9302120 
H    -3.1907400    5.0514275   -4.3842837 
H     1.2693894   -6.7461290    0.2452669 
H     3.3826778    0.4140590    5.8227282 
