87
Energy =
C    -1.8929687   -1.7406853    1.0510739 
C    -2.5360618   -0.5262867    0.6846421 
C    -2.6732337   -0.1581917   -0.6791852 
H    -2.7971698    0.1929240    1.4712670 
Pd   -0.4924437   -0.4304734   -0.1182621 
P     0.3924113    1.1712716   -1.5682764 
P     1.5146746   -1.3349215    0.6609174 
H    -1.9294373   -2.5685478    0.3260364 
H    -2.6495897   -0.9785770   -1.4126251 
C    -1.2942298   -2.9753086    5.1294545 
C    -1.6204904   -3.9127265    4.1390655 
C    -1.7939538   -3.5033958    2.8111271 
C    -1.6624152   -2.1452017    2.4526668 
C    -1.3282688   -1.2108334    3.4594287 
C    -1.1429442   -1.6219348    4.7831187 
H    -1.1517013   -3.2961938    6.1664969 
H    -1.7313219   -4.9704891    4.3982077 
H    -2.0364385   -4.2424834    2.0404027 
H    -1.1940400   -0.1558862    3.1970231 
H    -0.8764239   -0.8857001    5.5486850 
C    -4.6624302    3.3465773   -2.1719155 
C    -4.2840759    3.2881017   -0.8199510 
C    -3.6044742    2.1725466   -0.3241000 
C    -3.3021431    1.0788662   -1.1689038 
C    -3.6638309    1.1638743   -2.5333148 
C    -4.3391913    2.2853053   -3.0298163 
H    -5.2003039    4.2200591   -2.5544752 
H    -4.5163780    4.1215361   -0.1496947 
H    -3.3101093    2.1527622    0.7297437 
H    -3.4242275    0.3318812   -3.2048101 
H    -4.6225666    2.3254046   -4.0866702 
C     3.1931956    0.5437915   -2.0218079 
C     3.7666067   -0.5031485   -1.0551444 
C     2.2118541    1.5791726   -1.4293184 
C     2.8553905   -1.6628947   -0.6135672 
C     0.1759444    0.7840789   -3.3475032 
C    -0.3553356    2.8255996   -1.2884040 
C     1.3491389   -3.0114982    1.3965553 
C     2.3174896   -0.3037365    1.9449851 
C     0.6737654    1.6417005   -4.3533420 
C    -0.1818685    3.4097260   -0.0138725 
C     0.9255458   -4.0597348    0.5507268 
C     3.6115185   -0.5959987    2.4286150 
C    -0.4586130   -0.4170442   -3.7202618 
C    -1.0783866    3.5229546   -2.2741962 
C     1.6243361   -3.2814555    2.7497323 
C     1.6259407    0.8112368    2.4576907 
C     0.5173058    1.3071298   -5.7044385 
C    -0.6993316    4.6821031    0.2577694 
C     0.8174918   -5.3655466    1.0453708 
C     4.1984705    0.2217702    3.4032319 
C    -0.6126303   -0.7503749   -5.0737317 
C    -1.5944539    4.7965004   -1.9948438 
C     1.5094734   -4.5910004    3.2394075 
C     2.2150198    1.6274845    3.4335975 
C    -0.1283804    0.1136102   -6.0663042 
C    -1.4027666    5.3809169   -0.7356809 
C     1.1172481   -5.6345835    2.3904077 
C     3.5028879    1.3339010    3.9050349 
H     4.0508467    1.1139070   -2.4209413 
H     2.7397722    0.0429618   -2.8982207 
H     4.6282336   -0.9757395   -1.5615756 
H     4.1839220    0.0048097   -0.1659052 
H     2.3281964    2.5505131   -1.9415287 
H     2.4162537    1.7640160   -0.3585880 
H     2.3396179   -2.1080322   -1.4842648 
H     3.4758677   -2.4634964   -0.1729665 
H     1.1790554    2.5758578   -4.0848242 
H     0.3694010    2.8729107    0.7661997 
H     0.6822099   -3.8576981   -0.4996436 
H     4.1599850   -1.4664302    2.0521147 
H    -0.8252662   -1.0945924   -2.9406603 
H    -1.2531893    3.0730378   -3.2550095 
H     1.9161647   -2.4737135    3.4269981 
H     0.6181705    1.0296207    2.0841794 
H     0.9021226    1.9794551   -6.4781679 
H    -0.5506531    5.1302385    1.2458115 
H     0.4993466   -6.1746784    0.3796565 
H     5.2023400   -0.0101137    3.7735206 
H    -1.1078333   -1.6863067   -5.3522246 
H    -2.1590304    5.3275847   -2.7676453 
H     1.7198126   -4.7900170    4.2950419 
H     1.6681510    2.4910815    3.8261253 
H    -0.2477003   -0.1443667   -7.1236327 
H    -1.8067026    6.3763813   -0.5246389 
H     1.0333573   -6.6554465    2.7769253 
H     3.9664683    1.9703221    4.6657998 
