87
Energy =
C    -1.8310071   -1.2028238    1.4758840 
C    -2.3911292    0.0883318    1.3161854 
C    -2.7052566    0.6028460    0.0277689 
H    -2.4757274    0.7460820    2.1900025 
Pd   -0.5064026    0.1059996    0.1623971 
P     0.2961436    1.3225930   -1.6801218 
P     1.5102570   -1.0134782    0.6168370 
H    -1.9923109   -1.9223186    0.6581396 
H    -2.9142659   -0.1333609   -0.7630470 
C    -0.8610312   -3.1008056    5.2112702 
C    -1.1175652   -3.8620719    4.0624501 
C    -1.4150852   -3.2263957    2.8506692 
C    -1.4764207   -1.8168543    2.7662276 
C    -1.2257612   -1.0632261    3.9370240 
C    -0.9171049   -1.6977433    5.1427560 
H    -0.6226232   -3.5950388    6.1586250 
H    -1.0816310   -4.9555212    4.1064341 
H    -1.6065313   -3.8258985    1.9545063 
H    -1.2651504    0.0300799    3.9045879 
H    -0.7175839   -1.0972205    6.0361524 
C    -4.6134316    4.3972503   -0.6315907 
C    -3.8349384    4.2054292    0.5220125 
C    -3.1746491    2.9910189    0.7316238 
C    -3.2915159    1.9338859   -0.2019690 
C    -4.0514196    2.1542513   -1.3727061 
C    -4.7094791    3.3709939   -1.5828450 
H    -5.1336631    5.3471272   -0.7918651 
H    -3.7430557    5.0082997    1.2609796 
H    -2.5616373    2.8622984    1.6304591 
H    -4.1372768    1.3536667   -2.1153891 
H    -5.2994402    3.5185960   -2.4928198 
C     2.7483842    1.9056394   -0.1914471 
C     3.6381019    0.6611926   -0.3382883 
C     1.8734693    2.2924315   -1.3948122 
C     2.9225879   -0.6837531   -0.5602486 
C     0.5979347    0.1175839   -3.0413759 
C    -0.7666984    2.5942251   -2.4770207 
C     1.3394618   -2.8375664    0.5055724 
C     2.2307624   -0.6474513    2.2613425 
C     1.6089964    0.2808117   -4.0102868 
C    -1.0273227    3.7914199   -1.7748598 
C     1.0861458   -3.4009068   -0.7652343 
C     3.4045710   -1.2933933    2.7070130 
C    -0.2690591   -0.9921752   -3.1378195 
C    -1.3188843    2.4131051   -3.7606195 
C     1.4168365   -3.6798406    1.6316552 
C     1.6381795    0.3429470    3.0669181 
C     1.7603447   -0.6586419   -5.0398745 
C    -1.7821958    4.8079011   -2.3698534 
C     0.9306257   -4.7849128   -0.9057140 
C     3.9596282   -0.9599810    3.9490728 
C    -0.1245240   -1.9228974   -4.1762178 
C    -2.0838670    3.4326820   -4.3468244 
C     1.2649754   -5.0672268    1.4816968 
C     2.1978252    0.6767670    4.3079688 
C     0.8958572   -1.7608258   -5.1251233 
C    -2.3067293    4.6335171   -3.6599582 
C     1.0228401   -5.6226490    0.2183757 
C     3.3558795    0.0224584    4.7511233 
H     2.1065711    1.8055874    0.7049475 
H     3.4129404    2.7647167    0.0133413 
H     4.3450633    0.8097706   -1.1767430 
H     4.2541803    0.5825798    0.5752943 
H     2.4538302    2.2996632   -2.3346050 
H     1.5154058    3.3263049   -1.2565182 
H     2.4978562   -0.7578903   -1.5770901 
H     3.6391510   -1.5173486   -0.4552024 
H     2.2839981    1.1415024   -3.9721791 
H    -0.6420045    3.9347620   -0.7588377 
H     1.0119819   -2.7585030   -1.6492729 
H     3.8821878   -2.0608858    2.0878666 
H    -1.0580444   -1.1270186   -2.3880001 
H    -1.1374328    1.4868805   -4.3144910 
H     1.5870158   -3.2596513    2.6266754 
H     0.7362091    0.8534810    2.7086799 
H     2.5538371   -0.5247075   -5.7822269 
H    -1.9733360    5.7330221   -1.8177674 
H     0.7414983   -5.2112054   -1.8965555 
H     4.8678458   -1.4664158    4.2917006 
H    -0.8059837   -2.7776036   -4.2391272 
H    -2.4967281    3.2878845   -5.3505699 
H     1.3296640   -5.7126041    2.3639292 
H     1.7284374    1.4466551    4.9290489 
H     1.0161274   -2.4902265   -5.9326506 
H    -2.8970282    5.4303770   -4.1236899 
H     0.9056427   -6.7055481    0.1071644 
H     3.7936814    0.2799687    5.7210798 
