87
Energy =
C    -1.8375329   -2.0926800    0.3565982 
C    -2.5413517   -0.8666756    0.2730924 
C    -2.6554358   -0.1511692   -0.9522835 
H    -2.8842721   -0.3798203    1.1946822 
Pd   -0.4968325   -0.4070643   -0.4008714 
P     0.3743204    1.3850293   -1.6402961 
P     1.5432176   -1.0890946    0.5419024 
H    -1.7117721   -2.6603870   -0.5779563 
H    -2.6380398   -0.7336644   -1.8860059 
C    -1.3219196   -4.5007878    3.8860862 
C    -1.8637114   -3.2100475    4.0001650 
C    -2.0173501   -2.4048883    2.8671780 
C    -1.6552286   -2.8831249    1.5856803 
C    -1.1201773   -4.1891998    1.4857787 
C    -0.9459208   -4.9856642    2.6231155 
H    -1.1987563   -5.1268986    4.7757413 
H    -2.1594299   -2.8241697    4.9809914 
H    -2.4237871   -1.3958506    2.9852493 
H    -0.8372527   -4.5803696    0.5038320 
H    -0.5256488   -5.9914401    2.5218080 
C    -4.6979982    3.6291096   -1.1990857 
C    -3.9045139    3.3380722   -0.0770132 
C    -3.2225761    2.1199711    0.0038025 
C    -3.3194795    1.1660215   -1.0356869 
C    -4.1020011    1.4811685   -2.1665560 
C    -4.7905286    2.6981067   -2.2434671 
H    -5.2341405    4.5816702   -1.2612229 
H    -3.8148627    4.0662001    0.7359857 
H    -2.5924333    1.9110120    0.8754537 
H    -4.1778625    0.7596207   -2.9866551 
H    -5.3976199    2.9214734   -3.1265447 
C     2.4728895   -0.4220678   -2.5832606 
C     3.5177773   -0.5681634   -1.4656707 
C     1.8535780    0.9793704   -2.7370737 
C     3.0566979   -0.1739035   -0.0531046 
C    -0.7543636    2.1991770   -2.8431423 
C     0.9057175    2.7410970   -0.5207164 
C     1.9877672   -2.8470830    0.2616018 
C     1.5990497   -0.8290661    2.3565489 
C    -1.1447132    1.4717605   -3.9889555 
C     1.6983512    3.8170424   -0.9766080 
C     2.9751446   -3.4877264    1.0393590 
C     2.0085820    0.4189730    2.8776189 
C    -1.2498266    3.5021617   -2.6504639 
C     0.4735999    2.7237052    0.8204098 
C     1.3872887   -3.5451854   -0.8044585 
C     1.1856261   -1.8439567    3.2448299 
C    -1.9751424    2.0598980   -4.9507068 
C     2.0599154    4.8461641   -0.0976419 
C     3.3378712   -4.8120952    0.7604535 
C     2.0060615    0.6424861    4.2602338 
C    -2.0873110    4.0826870   -3.6143820 
C     0.8339501    3.7575895    1.6969412 
C     1.7599801   -4.8665814   -1.0879527 
C     1.1937480   -1.6138830    4.6276313 
C    -2.4404223    3.3717584   -4.7691151 
C     1.6293670    4.8176804    1.2393030 
C     2.7317516   -5.5026705   -0.3013870 
C     1.5993457   -0.3734421    5.1393938 
H     2.9648946   -0.6794338   -3.5384488 
H     1.6646114   -1.1672726   -2.4513464 
H     3.8726494   -1.6145063   -1.4507080 
H     4.3981259    0.0551266   -1.7121915 
H     1.4798783    1.1089571   -3.7657876 
H     2.6117921    1.7673444   -2.5794146 
H     3.8616390   -0.3666276    0.6784521 
H     2.8183547    0.9046756    0.0014093 
H    -0.7955240    0.4421792   -4.1368210 
H     2.0224403    3.8640177   -2.0220375 
H     3.4527315   -2.9559570    1.8694692 
H     2.3340128    1.2228462    2.2113675 
H    -0.9834199    4.0675146   -1.7528951 
H    -0.1361105    1.8849425    1.1779004 
H     0.6183977   -3.0501234   -1.4095660 
H     0.8715250   -2.8193580    2.8620983 
H    -2.2603478    1.4924516   -5.8426861 
H     2.6760351    5.6762444   -0.4582313 
H     4.0986648   -5.3064832    1.3732928 
H     2.3319597    1.6122543    4.6509568 
H    -2.4662995    5.0972231   -3.4556532 
H     0.4977725    3.7274918    2.7385119 
H     1.2876186   -5.4007615   -1.9188333 
H     0.8767779   -2.4144404    5.3035508 
H    -3.0877369    3.8330741   -5.5218787 
H     1.9143215    5.6246453    1.9222535 
H     3.0194144   -6.5370129   -0.5162612 
H     1.6044384   -0.1991966    6.2203142 
