87
Energy =
C    -1.9311774   -1.9440558    0.3852773 
C    -2.4597607   -0.6457113    0.5885730 
C    -2.6303317    0.2527275   -0.5031273 
H    -2.6141109   -0.2857934    1.6140056 
Pd   -0.4727224   -0.3521165   -0.3241259 
P     0.3812598    1.3819360   -1.6679838 
P     1.4857553   -1.4461631    0.3543679 
H    -2.0216596   -2.3624572   -0.6296396 
H    -2.8040018   -0.1877526   -1.4961625 
C    -1.3542847   -4.9546914    3.3980805 
C    -1.5775863   -5.3090203    2.0597787 
C    -1.7389598   -4.3149321    1.0881038 
C    -1.7016546   -2.9467694    1.4387546 
C    -1.4706040   -2.6037804    2.7910173 
C    -1.2944055   -3.5976915    3.7582422 
H    -1.2222678   -5.7309842    4.1588213 
H    -1.6167709   -6.3632480    1.7684607 
H    -1.9004624   -4.5973785    0.0424247 
H    -1.4180655   -1.5529024    3.0900828 
H    -1.1116165   -3.3137178    4.7997675 
C    -3.9854912    4.3198928   -0.1294294 
C    -4.1830920    3.6051542   -1.3190586 
C    -3.7317054    2.2840414   -1.4304659 
C    -3.0808079    1.6485036   -0.3504898 
C    -2.8907898    2.3816972    0.8447626 
C    -3.3365220    3.7015017    0.9533612 
H    -4.3343344    5.3539862   -0.0425645 
H    -4.6869067    4.0780404   -2.1683507 
H    -3.8804360    1.7334338   -2.3655566 
H    -2.3768473    1.9182476    1.6943712 
H    -3.1752406    4.2552275    1.8840897 
C     3.2665800    1.1421159   -1.9197101 
C     3.3666711    0.4609595   -0.5459465 
C     1.9241194    0.9771693   -2.6543823 
C     3.0596616   -1.0553209   -0.5581293 
C    -0.7942954    1.7728289   -3.0289817 
C     0.7735297    2.9587332   -0.8275763 
C     1.4421761   -3.2791074    0.3018457 
C     1.8935492   -0.9536786    2.0776096 
C    -1.2393207    0.6937079   -3.8244541 
C     1.3785017    4.0336918   -1.5161402 
C     1.6601161   -4.0975183    1.4253866 
C     3.0949765   -1.3548573    2.7006192 
C    -1.2673207    3.0699311   -3.2997009 
C     0.4959364    3.0873558    0.5464267 
C     1.1717128   -3.8752934   -0.9494999 
C     1.0056450   -0.1148759    2.7795697 
C    -2.1250465    0.9141391   -4.8864167 
C     1.6871208    5.2182829   -0.8349558 
C     1.6411315   -5.4934098    1.2885483 
C     3.3864292   -0.9360640    4.0056184 
C    -2.1512790    3.2862051   -4.3685374 
C     0.8061038    4.2736906    1.2248092 
C     1.1570255   -5.2693620   -1.0803102 
C     1.2999070    0.3066777    4.0833233 
C    -2.5797736    2.2146162   -5.1631440 
C     1.3995810    5.3400530    0.5343927 
C     1.3993093   -6.0812855    0.0395097 
C     2.4901237   -0.1068997    4.6988090 
H     3.4740122    2.2185372   -1.7874146 
H     4.0590276    0.7521450   -2.5863980 
H     4.3826284    0.6217995   -0.1470490 
H     2.6922182    0.9792300    0.1653405 
H     1.7764617   -0.0609369   -3.0048913 
H     1.9056342    1.6137309   -3.5564995 
H     2.9447463   -1.4544112   -1.5818574 
H     3.8650188   -1.6463431   -0.0894634 
H    -0.8952258   -0.3258154   -3.6077696 
H     1.6064901    3.9501708   -2.5845842 
H     1.8242456   -3.6526504    2.4108416 
H     3.8060587   -2.0000091    2.1732593 
H    -0.9672343    3.9111204   -2.6686483 
H     0.0403284    2.2476491    1.0795609 
H     0.9699520   -3.2453247   -1.8252741 
H     0.0802262    0.2085148    2.2868691 
H    -2.4615096    0.0715011   -5.4993189 
H     2.1553981    6.0484066   -1.3737593 
H     1.8054316   -6.1221769    2.1694734 
H     4.3188257   -1.2556811    4.4822822 
H    -2.5157389    4.2991176   -4.5682710 
H     0.5857275    4.3635340    2.2934662 
H     0.9554017   -5.7231687   -2.0562132 
H     0.6014001    0.9594487    4.6172230 
H    -3.2720336    2.3877494   -5.9934415 
H     1.6434878    6.2673989    1.0628711 
H     1.3879493   -7.1714310   -0.0615158 
H     2.7238013    0.2201850    5.7172109 
