87
Energy =
C    -1.8950094   -1.8041829    0.9262977 
C    -2.5349258   -0.5620133    0.6607087 
C    -2.6798358   -0.0879247   -0.6690311 
H    -2.7868521    0.0946641    1.5030027 
Pd   -0.4956421   -0.4137970   -0.1449029 
P     0.3885920    1.2920623   -1.4709577 
P     1.5106167   -1.3898199    0.5425076 
H    -1.9412344   -2.5728808    0.1393598 
H    -2.6645230   -0.8485144   -1.4644418 
C    -1.2734751   -3.3539794    4.8920734 
C    -1.6152776   -4.2099157    3.8353845 
C    -1.7961179   -3.6983553    2.5443783 
C    -1.6567257   -2.3176525    2.2904604 
C    -1.3067346   -1.4660828    3.3630804 
C    -1.1138870   -1.9791766    4.6495248 
H    -1.1255393   -3.7548499    5.9001319 
H    -1.7325363   -5.2836512    4.0134749 
H    -2.0499825   -4.3742933    1.7211961 
H    -1.1659384   -0.3951352    3.1809927 
H    -0.8346268   -1.3061212    5.4669080 
C    -4.6596505    3.5319217   -1.8705464 
C    -4.2739052    3.3659472   -0.5296355 
C    -3.5972148    2.2118614   -0.1267591 
C    -3.3052590    1.1864352   -1.0565066 
C    -3.6742391    1.3797814   -2.4078779 
C    -4.3467817    2.5396916   -2.8109102 
H    -5.1952569    4.4352073   -2.1801358 
H    -4.4981766    4.1454727    0.2051563 
H    -3.2968982    2.1082031    0.9204484 
H    -3.4425682    0.6018437   -3.1438697 
H    -4.6360435    2.6637495   -3.8595989 
C     3.1849876    0.6937635   -1.9898113 
C     3.7554603   -0.4332886   -1.1160169 
C     2.2106398    1.6811333   -1.3104827 
C     2.8383062   -1.6195796   -0.7667964 
C     0.1602690    1.0450944   -3.2734367 
C    -0.3514938    2.9216105   -1.0574054 
C     1.3375305   -3.1202727    1.1384084 
C     2.3338255   -0.4748073    1.8994423 
C    -0.4836600   -0.1201980   -3.7338296 
C    -0.1754007    3.3986363    0.2605531 
C     1.6210512   -3.5038742    2.4621323 
C     3.6280895   -0.8200866    2.3462247 
C     0.6573431    1.9750407   -4.2132404 
C    -1.0717471    3.7004748   -1.9824236 
C     0.8976253   -4.0911966    0.2124418 
C     1.6602828    0.6031670    2.5065249 
C    -0.6481145   -0.3468743   -5.1079875 
C    -0.6869165    4.6468736    0.6357944 
C     1.4983101   -4.8485428    2.8426106 
C     4.2329295   -0.0907095    3.3783613 
C     0.4904934    1.7469420   -5.5851393 
C    -1.5819951    4.9492147   -1.5994384 
C     0.7813867   -5.4325402    0.5981504 
C     2.2673721    1.3312563    3.5395557 
C    -0.1648963    0.5887488   -6.0339497 
C    -1.3872945    5.4278718   -0.2967939 
C     1.0894629   -5.8147309    1.9136441 
C     3.5552001    0.9854635    3.9743271 
H     4.0446574    1.2909233   -2.3425219 
H     2.7267342    0.2702786   -2.9036390 
H     4.6112923   -0.8678308   -1.6645794 
H     4.1805528   -0.0034266   -0.1900832 
H     2.3280255    2.6902837   -1.7433434 
H     2.4212557    1.7785068   -0.2294045 
H     2.3122238   -1.9859652   -1.6675293 
H     3.4554807   -2.4590687   -0.4003386 
H    -0.8491950   -0.8541201   -3.0065191 
H     0.3730317    2.7969461    0.9939109 
H     1.9251196   -2.7574126    3.2014786 
H     4.1628470   -1.6633154    1.8954383 
H     1.1703068    2.8826535   -3.8767571 
H    -1.2489854    3.3332697   -2.9967249 
H     0.6478129   -3.8008119   -0.8154859 
H     0.6521531    0.8624910    2.1613508 
H    -1.1504889   -1.2557639   -5.4548215 
H    -0.5364045    5.0117540    1.6572491 
H     1.7155871   -5.1361127    3.8761819 
H     5.2367459   -0.3635402    3.7197585 
H     0.8748145    2.4748065   -6.3071243 
H    -2.1445926    5.5441291   -2.3257990 
H     0.4506559   -6.1810284   -0.1295419 
H     1.7346193    2.1670530    4.0048454 
H    -0.2924904    0.4141433   -7.1072565 
H    -1.7868418    6.4044421   -0.0047225 
H     0.9989292   -6.8633352    2.2149772 
H     4.0327550    1.5529664    4.7796688 
