87
Energy =
C    -2.1612245   -1.3508490    0.8312326 
C    -2.5124632    0.0014264    1.0373890 
C    -2.6003686    0.9297213   -0.0426291 
H    -2.6012485    0.3788583    2.0632497 
Pd   -0.5223922    0.0927795    0.0898065 
P     0.5728491    1.6347852   -1.3129005 
P     1.2946695   -1.2153511    0.7898775 
H    -2.2940192   -1.7464808   -0.1875760 
H    -2.8669736    0.5324558   -1.0333159 
C    -1.9332520   -4.4279294    3.8228552 
C    -2.0558573   -3.0849294    4.2171228 
C    -2.1052306   -2.0692045    3.2595761 
C    -2.0478548   -2.3755503    1.8792244 
C    -1.9170792   -3.7316378    1.4987862 
C    -1.8577889   -4.7474994    2.4595025 
H    -1.8959228   -5.2204167    4.5773450 
H    -2.1076783   -2.8285550    5.2796743 
H    -2.1930977   -1.0305350    3.5909320 
H    -1.8766953   -3.9908845    0.4359140 
H    -1.7635393   -5.7911025    2.1423528 
C    -3.7701308    5.0097824    0.6537488 
C    -3.0070493    4.3305698    1.6176544 
C    -2.5868624    3.0179207    1.3832228 
C    -2.9336563    2.3488380    0.1848883 
C    -3.6731907    3.0560129   -0.7875666 
C    -4.0915840    4.3709242   -0.5525413 
H    -4.1023763    6.0364408    0.8386550 
H    -2.7363742    4.8295629    2.5541152 
H    -1.9747188    2.5058087    2.1347047 
H    -3.9366618    2.5601358   -1.7277780 
H    -4.6714071    4.8992460   -1.3159596 
C     3.4658257    1.4771688   -0.9615548 
C     3.4139395   -0.0348290   -0.6860867 
C     2.1968299    2.2877887   -0.6305825 
C     2.9736673   -0.4146333    0.7456099 
C     0.9961419    0.9130668   -2.9486193 
C    -0.3129973    3.1828553   -1.7541459 
C     1.5475923   -2.7954975   -0.1109244 
C     1.1574481   -1.6306335    2.5738503 
C     1.7207959    1.6623162   -3.9012952 
C    -0.3218636    4.2675019   -0.8515714 
C     2.7299338   -3.5534239    0.0335846 
C     0.9397520   -0.5561609    3.4644930 
C     0.6097046   -0.4047070   -3.2559768 
C    -0.9901613    3.3048504   -2.9851803 
C     0.5417910   -3.2611927   -0.9801114 
C     1.3007852   -2.9345289    3.0817508 
C     2.0633676    1.0875985   -5.1317964 
C    -0.9527439    5.4681923   -1.1995014 
C     2.8922543   -4.7520654   -0.6739398 
C     0.9059283   -0.7798790    4.8463777 
C     0.9526970   -0.9774669   -4.4888976 
C    -1.6170618    4.5111400   -3.3279987 
C     0.7044614   -4.4597976   -1.6878195 
C     1.2571644   -3.1530354    4.4664267 
C     1.6830018   -0.2325131   -5.4256641 
C    -1.5900275    5.5973779   -2.4425180 
C     1.8812900   -5.2071555   -1.5349889 
C     1.0713725   -2.0799835    5.3494333 
H     4.2937334    1.9276986   -0.3817205 
H     3.7189351    1.6226192   -2.0259749 
H     2.7493996   -0.5195306   -1.4266702 
H     4.4155925   -0.4551911   -0.8801827 
H     2.3137389    3.3192240   -1.0052646 
H     2.0475788    2.3621485    0.4617440 
H     3.6790823   -1.1122677    1.2287989 
H     2.9143895    0.4613214    1.4162509 
H     2.0063416    2.6983345   -3.6871040 
H     0.1680774    4.1836928    0.1241618 
H     3.5281954   -3.2162746    0.7029255 
H     0.7963651    0.4587348    3.0714347 
H     0.0450230   -0.9824450   -2.5168989 
H    -1.0076893    2.4669456   -3.6896293 
H    -0.3746989   -2.6745197   -1.1005221 
H     1.4354869   -3.7806873    2.4016499 
H     2.6273573    1.6724318   -5.8657299 
H    -0.9503742    6.3038524   -0.4928350 
H     3.8129449   -5.3321341   -0.5534251 
H     0.7475261    0.0597289    5.5312071 
H     0.6513160   -2.0056514   -4.7138567 
H    -2.1237074    4.6008976   -4.2945684 
H    -0.0866335   -4.8081029   -2.3600769 
H     1.3637777   -4.1712441    4.8542101 
H     1.9540952   -0.6772644   -6.3887223 
H    -2.0753372    6.5402976   -2.7141509 
H     2.0135783   -6.1424309   -2.0885490 
H     1.0441948   -2.2568805    6.4295824 
