87
Energy =
C    -2.2901446   -1.1904727   -0.9997501 
C    -2.7075132   -0.0140671   -0.3073462 
C    -2.2679609    1.2720676   -0.6903285 
H    -3.2844919   -0.1273664    0.6185050 
Pd   -0.5105737   -0.1240995   -0.1516622 
P     0.7803985    1.4978270    0.9467102 
P     1.0814551   -1.8400249   -0.4031491 
H    -2.0486769   -1.0932427   -2.0686220 
H    -1.8845758    1.3784018   -1.7170525 
C    -3.7359593   -5.0580911    0.2069695 
C    -3.4756980   -4.0776687    1.1785134 
C    -2.9679836   -2.8313522    0.7994439 
C    -2.7221177   -2.5321931   -0.5621377 
C    -2.9581109   -3.5388425   -1.5229500 
C    -3.4654511   -4.7867552   -1.1420844 
H    -4.1372082   -6.0328169    0.5028101 
H    -3.6663931   -4.2888981    2.2359794 
H    -2.7490681   -2.0811374    1.5683451 
H    -2.7581745   -3.3312648   -2.5794125 
H    -3.6497715   -5.5514106   -1.9033714 
C    -3.4152155    5.0142412    1.0843854 
C    -2.6844317    4.9832344   -0.1120886 
C    -2.3054364    3.7563596   -0.6683250 
C    -2.6432758    2.5353247   -0.0391319 
C    -3.3670734    2.5853585    1.1758214 
C    -3.7532807    3.8102542    1.7248131 
H    -3.7207804    5.9716782    1.5185926 
H    -2.4181072    5.9158894   -0.6197778 
H    -1.7518293    3.7402159   -1.6127223 
H    -3.6357794    1.6616848    1.6963194 
H    -4.3176831    3.8280115    2.6621393 
C     3.3085610    0.2067262    1.0450720 
C     3.4362217   -1.3137611    1.2370564 
C     2.2360327    0.8822544    1.9290508 
C     2.1410974   -2.1421781    1.1178490 
C     1.4969092    2.8177059   -0.1098457 
C    -0.1919263    2.3352550    2.2609575 
C     0.4740813   -3.5274147   -0.8033585 
C     2.2762973   -1.4993512   -1.7571842 
C     1.0428645    2.9596427   -1.4356260 
C    -0.8528019    1.5061926    3.1942448 
C     0.4445544   -3.9823558   -2.1381019 
C     3.3391306   -2.3916414   -2.0181974 
C     2.4994265    3.6902361    0.3660916 
C    -0.2661168    3.7330918    2.4000484 
C     0.0254461   -4.3812403    0.2263219 
C     2.1464518   -0.3336548   -2.5345347 
C     1.5711580    3.9525923   -2.2715598 
C    -1.5444371    2.0694124    4.2737237 
C     0.0253735   -5.2881135   -2.4286224 
C     4.2627915   -2.1042041   -3.0310708 
C     3.0276389    4.6829224   -0.4701298 
C    -0.9684097    4.2909900    3.4782463 
C    -0.3946848   -5.6835293   -0.0717944 
C     3.0714254   -0.0488999   -3.5490914 
C     2.5655184    4.8158141   -1.7888764 
C    -1.5973822    3.4645787    4.4201162 
C    -0.3833376   -6.1442427   -1.3965836 
C     4.1321173   -0.9323053   -3.7949084 
H     4.2906475    0.6638153    1.2554455 
H     3.1113847    0.4259152   -0.0214952 
H     4.1725435   -1.6900579    0.5059580 
H     3.8586249   -1.5230624    2.2382159 
H     2.6379446    1.7438631    2.4892861 
H     1.8236545    0.1972104    2.6912854 
H     2.3933942   -3.2165152    1.1287872 
H     1.4748711   -1.9636967    1.9811684 
H     0.2698056    2.2816150   -1.8116262 
H    -0.8240740    0.4155186    3.0727715 
H     0.7742611   -3.3265753   -2.9505661 
H     3.4378616   -3.3162824   -1.4385020 
H     2.8699769    3.6043836    1.3928037 
H     0.2136002    4.3874081    1.6662175 
H     0.0065583   -4.0384056    1.2659800 
H     1.3199625    0.3551671   -2.3319685 
H     1.2082564    4.0497749   -3.3000957 
H    -2.0450913    1.4199797    4.9994167 
H     0.0249344   -5.6370128   -3.4665429 
H     5.0864898   -2.7982682   -3.2274688 
H     3.8046033    5.3544006   -0.0904607 
H    -1.0267027    5.3797447    3.5770158 
H    -0.7371776   -6.3382120    0.7355109 
H     2.9632636    0.8643481   -4.1431721 
H     2.9833937    5.5905672   -2.4399045 
H    -2.1389001    3.9067431    5.2627039 
H    -0.7045254   -7.1656898   -1.6244243 
H     4.8573499   -0.7120440   -4.5850681 
