87
Energy =
C    -2.2827097   -1.7693592   -0.4704296 
C    -2.7284849   -0.5333031    0.0510836 
C    -2.7148918    0.6562944   -0.7417301 
H    -2.9503791   -0.4470524    1.1229858 
Pd   -0.6573609   -0.1578215   -0.5890265 
P     0.5423008    1.7585084   -1.2236680 
P     1.2433289   -1.4296918   -0.0322044 
H    -2.2709083   -1.8707821   -1.5671341 
H    -2.8864251    0.5492049   -1.8234082 
C    -2.0170053   -5.5508855    1.5577455 
C    -1.9172134   -5.4727549    0.1613044 
C    -2.0055732   -4.2321726   -0.4788711 
C    -2.1992322   -3.0428226    0.2605715 
C    -2.3133726   -3.1406317    1.6673746 
C    -2.2184006   -4.3794858    2.3072534 
H    -1.9451535   -6.5197663    2.0623759 
H    -1.7666057   -6.3794844   -0.4324366 
H    -1.9255419   -4.1773489   -1.5691646 
H    -2.4875838   -2.2447225    2.2713286 
H    -2.3083052   -4.4347439    3.3970401 
C    -3.7358391    4.4947178    0.9214081 
C    -2.9909185    3.5787981    1.6827264 
C    -2.6478153    2.3347519    1.1443878 
C    -3.0423467    1.9783679   -0.1665867 
C    -3.7743366    2.9152614   -0.9254278 
C    -4.1225325    4.1590336   -0.3838168 
H    -4.0051845    5.4687768    1.3424784 
H    -2.6724491    3.8391473    2.6975806 
H    -2.0478390    1.6348457    1.7381463 
H    -4.0790568    2.6609352   -1.9458080 
H    -4.6943062    4.8708994   -0.9876116 
C     1.9149620   -0.0576836   -3.0404566 
C     3.0012247   -0.7957217   -2.2405012 
C     1.6927001    1.4221097   -2.6742393 
C     2.8629352   -0.8002068   -0.7076670 
C    -0.4113047    3.2162425   -1.8111198 
C     1.5853536    2.4145989    0.1380297 
C     1.2397412   -3.2089365   -0.4855952 
C     1.4942806   -1.3734709    1.7894367 
C    -1.0885438    3.1361335   -3.0475659 
C     2.6633151    3.2940797   -0.1016706 
C     0.9663717   -3.5582750   -1.8259752 
C     2.7553108   -1.5610541    2.3918680 
C    -0.5105819    4.3929504   -1.0447638 
C     1.2886494    2.0335639    1.4608598 
C     1.5101999   -4.2255291    0.4508483 
C     0.3772717   -1.1164489    2.6102630 
C    -1.8076119    4.2356675   -3.5321175 
C     3.4425894    3.7562877    0.9668273 
C     1.0120119   -4.8982634   -2.2319587 
C     2.8906342   -1.4847859    3.7855626 
C    -1.2418660    5.4865157   -1.5305739 
C     2.0720973    2.4940122    2.5279301 
C     1.5355744   -5.5667139    0.0426253 
C     0.5121951   -1.0448422    4.0021864 
C    -1.8785775    5.4167845   -2.7771245 
C     3.1535108    3.3512635    2.2806803 
C     1.3005216   -5.9049495   -1.2977638 
C     1.7723830   -1.2264759    4.5925667 
H     2.2011293   -0.1014490   -4.1068173 
H     0.9469186   -0.5931634   -2.9648077 
H     3.0581340   -1.8379871   -2.6030046 
H     3.9826334   -0.3406498   -2.4732113 
H     1.2316337    1.9477490   -3.5263154 
H     2.6519956    1.9323153   -2.4761164 
H     3.6707333   -1.4177268   -0.2786849 
H     2.9722730    0.2176715   -0.2884974 
H    -1.0548883    2.2136039   -3.6402874 
H     2.8923879    3.6305448   -1.1187378 
H     0.7035394   -2.7816419   -2.5530194 
H     3.6405688   -1.7684523    1.7834611 
H    -0.0143744    4.4603602   -0.0720518 
H     0.4458839    1.3625554    1.6500297 
H     1.6928923   -3.9736308    1.4998957 
H    -0.5990734   -0.9544621    2.1423276 
H    -2.3162358    4.1685833   -4.4994478 
H     4.2786323    4.4363703    0.7736252 
H     0.8105932   -5.1572315   -3.2766340 
H     3.8754850   -1.6285053    4.2417343 
H    -1.3117978    6.3973116   -0.9274196 
H     1.8389293    2.1725420    3.5480370 
H     1.7391785   -6.3505533    0.7793989 
H    -0.3651728   -0.8433411    4.6256552 
H    -2.4399091    6.2768304   -3.1562441 
H     3.7716691    3.7092754    3.1104875 
H     1.3297626   -6.9531418   -1.6126900 
H     1.8832729   -1.1673426    5.6802768 
