87
Energy =
C    -2.4319343   -1.2982788   -0.1950042 
C    -2.6085655   -0.1352813    0.5988489 
C    -2.5219115    1.1616926    0.0213106 
H    -2.6695312   -0.2254677    1.6908649 
Pd   -0.6014183    0.0398738   -0.2781744 
P     0.8011571    1.8844146   -0.5645280 
P     0.9928947   -1.6470493   -0.5314064 
H    -2.6323478   -1.1911065   -1.2719309 
H    -2.7839293    1.2571546   -1.0438936 
C    -2.7491792   -5.3655109    1.1560474 
C    -2.5883966   -4.3340014    2.0965843 
C    -2.4474010   -3.0093093    1.6752644 
C    -2.4810442   -2.6835685    0.2989846 
C    -2.6148206   -3.7350483   -0.6371572 
C    -2.7500455   -5.0625561   -0.2132699 
H    -2.8656102   -6.4012304    1.4912674 
H    -2.5676789   -4.5661624    3.1659153 
H    -2.3130772   -2.2231400    2.4246632 
H    -2.6279559   -3.5019267   -1.7076878 
H    -2.8665663   -5.8605309   -0.9538704 
C    -2.9264928    4.7974202    2.2875777 
C    -3.4707668    4.6934879    0.9994999 
C    -3.3165330    3.5128320    0.2622570 
C    -2.6308001    2.4072024    0.8078854 
C    -2.0818816    2.5266521    2.1050766 
C    -2.2253296    3.7101931    2.8359444 
H    -3.0410920    5.7229299    2.8612020 
H    -4.0104660    5.5388543    0.5608264 
H    -3.7331636    3.4430271   -0.7479462 
H    -1.5204850    1.6900888    2.5351110 
H    -1.7863406    3.7879601    3.8361088 
C     3.3888211    1.0561083   -1.7141015 
C     3.3803407   -0.4798893   -1.7082626 
C     2.0580529    1.7909593   -1.9577724 
C     2.7999413   -1.1722164   -0.4553014 
C    -0.0772724    3.4333313   -1.0211279 
C     1.7781438    2.2863852    0.9321881 
C     0.8623826   -2.5829495   -2.1027828 
C     0.8998100   -2.8765213    0.8304329 
C    -0.7637777    3.4576230   -2.2547159 
C     2.7905885    3.2705238    0.9136962 
C    -0.1293111   -2.2275035   -3.0379999 
C     0.6206566   -4.2402366    0.6223006 
C    -0.0912577    4.5742925   -0.1979459 
C     1.5170682    1.5888699    2.1277751 
C     1.7656741   -3.6223213   -2.4172637 
C     1.1234385   -2.4083928    2.1444059 
C    -1.4215619    4.6210912   -2.6732233 
C     3.5283294    3.5413442    2.0737056 
C    -0.2326197   -2.9086890   -4.2595628 
C     0.5943376   -5.1239332    1.7107910 
C    -0.7559749    5.7347218   -0.6215849 
C     2.2564080    1.8618247    3.2873638 
C     1.6596680   -4.3018430   -3.6374981 
C     1.0961996   -3.2965511    3.2265401 
C    -1.4120125    5.7652346   -1.8594262 
C     3.2640836    2.8370225    3.2597512 
C     0.6594700   -3.9486314   -4.5579902 
C     0.8366288   -4.6589332    3.0104052 
H     3.8558981    1.4263708   -0.7826225 
H     4.0606423    1.3739601   -2.5325336 
H     2.8837536   -0.8599328   -2.6212286 
H     4.4326663   -0.8053697   -1.7896560 
H     1.5206013    1.3519632   -2.8183763 
H     2.2681604    2.8427875   -2.2215664 
H     3.3369602   -2.1170337   -0.2596515 
H     2.9273809   -0.5473974    0.4479526 
H    -0.7830315    2.5661951   -2.8936800 
H     2.9996442    3.8326514   -0.0031210 
H    -0.8168030   -1.4060779   -2.8054170 
H     0.4104089   -4.6157050   -0.3826197 
H     0.4031091    4.5588909    0.7775002 
H     0.7248574    0.8307013    2.1383579 
H     2.5500342   -3.9081098   -1.7078932 
H     1.3300241   -1.3470987    2.3217629 
H    -1.9421777    4.6349237   -3.6364916 
H     4.3121628    4.3054309    2.0524911 
H    -1.0075467   -2.6246308   -4.9789796 
H     0.3718776   -6.1815573    1.5375240 
H    -0.7664253    6.6152158    0.0286720 
H     2.0450314    1.3140193    4.2115791 
H     2.3611424   -5.1091093   -3.8720089 
H     1.2804963   -2.9250294    4.2400249 
H    -1.9258692    6.6748061   -2.1867954 
H     3.8446580    3.0510988    4.1629685 
H     0.5807803   -4.4818179   -5.5110138 
H     0.8160210   -5.3544806    3.8556544 
