87
Energy =
C    -2.2077417   -1.2866714   -0.8223876 
C    -2.7157653   -0.2867899    0.0384608 
C    -2.5490742    1.0966329   -0.2725868 
H    -3.1373546   -0.5721087    1.0111580 
Pd   -0.5558494    0.1144180   -0.0652647 
P     0.7873463    2.0376955    0.0547146 
P     1.2136560   -1.4319560    0.0893777 
H    -2.0240800   -0.9918024   -1.8673910 
H    -2.4818715    1.3650856   -1.3377298 
C    -2.5446810   -5.5411601   -0.3158864 
C    -2.4599703   -4.9741749   -1.5958060 
C    -2.3305196   -3.5876024   -1.7415217 
C    -2.3165519   -2.7382061   -0.6113588 
C    -2.4226769   -3.3230170    0.6718434 
C    -2.5226506   -4.7091870    0.8177534 
H    -2.6306088   -6.6263079   -0.1985888 
H    -2.4819440   -5.6139865   -2.4839055 
H    -2.2411793   -3.1516185   -2.7423286 
H    -2.4076488   -2.6908831    1.5635990 
H    -2.5837987   -5.1450793    1.8201093 
C    -4.1228931    4.1892410    2.2679001 
C    -3.5606239    3.0368866    2.8422293 
C    -3.0172616    2.0393063    2.0263081 
C    -3.0311807    2.1700783    0.6176491 
C    -3.5704317    3.3474889    0.0564504 
C    -4.1180614    4.3434245    0.8739418 
H    -4.5530687    4.9674889    2.9066336 
H    -3.5455387    2.9183855    3.9308239 
H    -2.5633718    1.1520060    2.4834891 
H    -3.5714477    3.4735752   -1.0313852 
H    -4.5396849    5.2456692    0.4196463 
C     2.1939313    0.8473336    2.3104219 
C     3.1916472   -0.1786740    1.7496680 
C     2.0033943    2.1302578    1.4812056 
C     2.9183142   -0.7061299    0.3303167 
C     1.7835492    2.1197012   -1.4932912 
C    -0.0257563    3.6871634    0.0984614 
C     1.4433399   -2.5395727   -1.3537802 
C     1.0276293   -2.5400190    1.5422979 
C     2.8738920    3.0064717   -1.6228803 
C    -0.2601777    4.3995321   -1.0962774 
C     2.2153081   -2.1056869   -2.4546747 
C     1.8384977   -3.6841185    1.6981218 
C     1.4139825    1.3185827   -2.5922078 
C    -0.4634967    4.2352946    1.3228119 
C     0.8209108   -3.8041554   -1.4032458 
C     0.1095877   -2.2008769    2.5549325 
C     3.5921420    3.0683235   -2.8238045 
C    -0.8776221    5.6578377   -1.0578537 
C     2.3628818   -2.9259256   -3.5803556 
C     1.7152505   -4.4803583    2.8442291 
C     2.1308247    1.3874695   -3.7963004 
C    -1.0710984    5.4964185    1.3548838 
C     0.9792539   -4.6213397   -2.5317383 
C    -0.0073991   -2.9958139    3.7036297 
C     3.2236891    2.2581510   -3.9107274 
C    -1.2712365    6.2147850    0.1670481 
C     1.7460143   -4.1864062   -3.6215629 
C     0.7925406   -4.1388588    3.8463978 
H     1.2088405    0.3711221    2.4758970 
H     2.5537776    1.1468895    3.3112455 
H     4.2041692    0.2676821    1.7455785 
H     3.2332546   -1.0350699    2.4464077 
H     2.9659749    2.4940755    1.0797405 
H     1.6171189    2.9322466    2.1303828 
H     3.0331522    0.0934257   -0.4242442 
H     3.6458669   -1.4973590    0.0762879 
H     3.1567347    3.6635047   -0.7931623 
H     0.0602281    3.9839002   -2.0572235 
H     2.7087190   -1.1291630   -2.4388227 
H     2.5588524   -3.9588418    0.9197923 
H     0.5632392    0.6312712   -2.4963279 
H    -0.3385587    3.6835980    2.2604947 
H     0.2217839   -4.1587273   -0.5591887 
H    -0.5182029   -1.3089038    2.4326207 
H     4.4386072    3.7567632   -2.9147516 
H    -1.0389205    6.2086668   -1.9903474 
H     2.9697180   -2.5816703   -4.4244771 
H     2.3431829   -5.3702150    2.9566165 
H     1.8356516    0.7559697   -4.6405703 
H    -1.3989768    5.9119384    2.3125583 
H     0.4949217   -5.6028435   -2.5536090 
H    -0.7254635   -2.7249465    4.4846619 
H     3.7874313    2.3113478   -4.8478020 
H    -1.7426871    7.2024180    0.1956960 
H     1.8681838   -4.8290597   -4.4995205 
H     0.7001354   -4.7642379    4.7403942 
