87
Energy =
C    -2.2033189   -1.3865534   -0.3743190 
C    -2.4955418   -0.2443406    0.4160891 
C    -2.4130318    1.0632793   -0.1316503 
H    -2.6561437   -0.3654920    1.4941726 
Pd   -0.4128291    0.0031743   -0.2749972 
P     0.8838115    1.9466540   -0.1485126 
P     1.1982088   -1.6228919   -0.7784160 
H    -2.3026637   -1.2791153   -1.4654406 
H    -2.5320342    1.1450409   -1.2222378 
C    -2.3149886   -5.4849116    0.9289881 
C    -2.2333359   -4.4573901    1.8846480 
C    -2.1942301   -3.1206548    1.4801752 
C    -2.2323439   -2.7782124    0.1077079 
C    -2.3203858   -3.8220390   -0.8406562 
C    -2.3628854   -5.1612340   -0.4341366 
H    -2.3461478   -6.5314221    1.2490845 
H    -2.1988273   -4.7028525    2.9510892 
H    -2.1279933   -2.3359937    2.2412901 
H    -2.3553727   -3.5751688   -1.9072131 
H    -2.4317438   -5.9533242   -1.1868927 
C    -3.2805558    4.7361173    1.9287504 
C    -3.1662747    4.7075478    0.5314119 
C    -2.8639550    3.5072344   -0.1226987 
C    -2.6698151    2.3113208    0.6062260 
C    -2.7621814    2.3624340    2.0169223 
C    -3.0720330    3.5593707    2.6676248 
H    -3.5255073    5.6712038    2.4428040 
H    -3.3225733    5.6200954   -0.0530831 
H    -2.7875547    3.4891042   -1.2150512 
H    -2.5896743    1.4616837    2.6138226 
H    -3.1446543    3.5778667    3.7594774 
C     3.3104594    0.5551967    0.5632481 
C     3.8390287   -0.5205934   -0.4003082 
C     2.7514515    1.8082892   -0.1479452 
C     2.8376729   -1.0266503   -1.4541086 
C     0.5952673    3.1714792   -1.4833477 
C     0.5554898    2.7592192    1.4686885 
C     0.5985829   -2.6802885   -2.1569463 
C     1.6661316   -2.7133259    0.6147381 
C     1.2966933    4.3969180   -1.5314517 
C     0.6470526    1.9456923    2.6207515 
C     0.1102073   -2.0134279   -3.3027278 
C     1.0579992   -2.5049093    1.8675679 
C    -0.2872961    2.8462305   -2.5328563 
C     0.2380087    4.1224366    1.6128439 
C     0.5811624   -4.0867959   -2.1169169 
C     2.6560647   -3.7123616    0.4833402 
C     1.0867255    5.2883308   -2.5919411 
C     0.4702810    2.4988553    3.8951024 
C    -0.3686455   -2.7441590   -4.3970708 
C     1.4156741   -3.2924289    2.9703473 
C    -0.4920170    3.7380660   -3.5949746 
C     0.0531529    4.6682006    2.8913884 
C     0.1036301   -4.8143170   -3.2182853 
C     3.0098795   -4.4991737    1.5872044 
C     0.1888701    4.9637532   -3.6210322 
C     0.1801461    3.8649203    4.0329308 
C    -0.3697330   -4.1486897   -4.3571139 
C     2.3883135   -4.2924046    2.8295367 
H     2.5414810    0.1066545    1.2213641 
H     4.1331518    0.8549238    1.2346492 
H     4.7207359   -0.1267216   -0.9407986 
H     4.1978035   -1.3783550    0.1957984 
H     3.0628220    1.8439142   -1.2075689 
H     3.1230358    2.7343676    0.3228082 
H     2.5832235   -0.2415431   -2.1901722 
H     3.2781911   -1.8615489   -2.0274424 
H     2.0091604    4.6612294   -0.7428101 
H     0.8497845    0.8729027    2.5191867 
H     0.0991361   -0.9161568   -3.3339522 
H     0.3019117   -1.7175252    1.9683386 
H    -0.8078881    1.8821950   -2.5170792 
H     0.1084833    4.7583077    0.7332246 
H     0.9134646   -4.6196062   -1.2217849 
H     3.1546402   -3.8769570   -0.4782722 
H     1.6300164    6.2385770   -2.6167285 
H     0.5533169    1.8607285    4.7811061 
H    -0.7427921   -2.2185783   -5.2817582 
H     0.9332896   -3.1258994    3.9389846 
H    -1.1808230    3.4736094   -4.4039853 
H    -0.2029274    5.7279236    2.9904137 
H     0.0904630   -5.9083569   -3.1757786 
H     3.7761083   -5.2737112    1.4789419 
H     0.0286948    5.6628660   -4.4482511 
H     0.0382664    4.2983166    5.0282598 
H    -0.7451899   -4.7207281   -5.2117416 
H     2.6687624   -4.9094215    3.6894076 
