87
Energy =
C    -1.9863835   -1.1884874    1.3521190 
C    -2.3819663    0.1684347    1.3175207 
C    -2.6623092    0.8162016    0.0764176 
H    -2.3590321    0.7630025    2.2402100 
Pd   -0.5519785    0.0911094    0.0995717 
P     0.2582608    1.2657858   -1.7659766 
P     1.4679906   -1.0113063    0.5977928 
H    -2.2514539   -1.8027349    0.4774196 
H    -3.0369600    0.1858183   -0.7441128 
C    -1.1254819   -3.5344847    4.8487609 
C    -0.9112453   -2.1448411    4.8783115 
C    -1.1929924   -1.3649496    3.7535441 
C    -1.6721213   -1.9607745    2.5637720 
C    -1.8726777   -3.3601925    2.5453084 
C    -1.6176823   -4.1370617    3.6819887 
H    -0.9113944   -4.1416888    5.7342619 
H    -0.5227905   -1.6682516    5.7840960 
H    -1.0220942   -0.2860121    3.7945030 
H    -2.2348199   -3.8389491    1.6291453 
H    -1.7918051   -5.2174783    3.6516169 
C    -3.9187242    4.9260290   -0.0859310 
C    -2.9368855    4.5351049    0.8398908 
C    -2.4982249    3.2076688    0.8795529 
C    -3.0376721    2.2411702   -0.0017123 
C    -3.9998841    2.6554189   -0.9474575 
C    -4.4415711    3.9834855   -0.9832810 
H    -4.2658950    5.9640353   -0.1131030 
H    -2.5120634    5.2700030    1.5317806 
H    -1.7179635    2.9150967    1.5923468 
H    -4.4134407    1.9242927   -1.6500705 
H    -5.1951859    4.2839280   -1.7181537 
C     2.6027524    2.0135437   -0.2080599 
C     3.5511439    0.8041351   -0.1790304 
C     1.8410900    2.2452283   -1.5255629 
C     2.9294331   -0.5708375   -0.4798801 
C     0.5972467    0.0351784   -3.0950834 
C    -0.8498853    2.4714220   -2.6038911 
C     1.4326015   -2.8423494    0.5053741 
C     2.0619192   -0.6077828    2.2882097 
C     1.3345889    0.3789718   -4.2484208 
C    -0.9453023    3.7988197   -2.1347486 
C     1.6348256   -3.4833136   -0.7374815 
C     3.1240678   -1.3223980    2.8815302 
C     0.0607497   -1.2632649   -2.9833849 
C    -1.6500913    2.0682816   -3.6933818 
C     1.1606215   -3.6228017    1.6479695 
C     1.4942281    0.4826909    2.9752195 
C     1.5488172   -0.5701316   -5.2560452 
C    -1.7826663    4.7172665   -2.7797120 
C     1.5704895   -4.8792800   -0.8304912 
C     3.5939518   -0.9560131    4.1495316 
C     0.2707382   -2.2098878   -3.9974213 
C    -2.4934540    2.9909001   -4.3287380 
C     1.1051313   -5.0204422    1.5468640 
C     1.9705488    0.8513956    4.2410170 
C     1.0197426   -1.8654979   -5.1314366 
C    -2.5514978    4.3188432   -3.8830224 
C     1.3070074   -5.6518198    0.3118484 
C     3.0179048    0.1287534    4.8307082 
H     1.8776074    1.9506352    0.6256015 
H     3.2095796    2.9153989   -0.0097150 
H     4.3639997    0.9653905   -0.9123046 
H     4.0327887    0.7680002    0.8146411 
H     2.4889255    2.0577484   -2.4003973 
H     1.5333992    3.3012063   -1.5904991 
H     2.5820457   -0.6339002   -1.5273630 
H     3.6851703   -1.3642526   -0.3414963 
H     1.7309394    1.3926955   -4.3720101 
H    -0.3716301    4.1272858   -1.2617026 
H     1.8475944   -2.8984738   -1.6374956 
H     3.5773242   -2.1712492    2.3578753 
H    -0.5180542   -1.5323080   -2.0901420 
H    -1.5992246    1.0388450   -4.0630228 
H     1.0018894   -3.1445844    2.6191679 
H     0.6700732    1.0384988    2.5098853 
H     2.1249645   -0.2960540   -6.1457667 
H    -1.8414012    5.7450786   -2.4089059 
H     1.7356562   -5.3650740   -1.7979654 
H     4.4143890   -1.5181736    4.6073723 
H    -0.1482771   -3.2162858   -3.8958851 
H    -3.0976477    2.6701299   -5.1837334 
H     0.8991638   -5.6139247    2.4434125 
H     1.5214087    1.6996141    4.7680400 
H     1.1883105   -2.6032417   -5.9227071 
H    -3.2025088    5.0400803   -4.3874979 
H     1.2643763   -6.7434223    0.2386727 
H     3.3888825    0.4113536    5.8213286 
