87
Energy =
C     2.6264612    0.4481011    0.7284051 
C     2.4228468   -0.9527356    0.6276086 
C     2.1987184   -1.5688993   -0.6345282 
H     2.2932042   -1.5505977    1.5386438 
Pd    0.6221301   -0.0251432   -0.2249422 
P    -1.0286742   -0.8774606   -1.6385407 
P    -0.5393550    1.8338657    0.5791875 
H     3.0032898    0.9547639   -0.1730975 
H     2.6331995   -1.0781412   -1.5192347 
C     3.4606890    2.6331628    4.3334980 
C     2.9220236    1.3381148    4.4177012 
C     2.6100313    0.6258069    3.2569354 
C     2.8469369    1.1886029    1.9808389 
C     3.3626175    2.5035199    1.9116048 
C     3.6688302    3.2181234    3.0760260 
H     3.7090074    3.1851152    5.2458126 
H     2.7389500    0.8837480    5.3963963 
H     2.1809505   -0.3769605    3.3458908 
H     3.5384729    2.9598366    0.9310687 
H     4.0804514    4.2298987    3.0006090 
C     1.4680292   -5.7823228   -1.1144929 
C     2.2540279   -5.0828655   -2.0413215 
C     2.4691277   -3.7076655   -1.8873774 
C     1.9169888   -3.0102993   -0.7923656 
C     1.1217579   -3.7256369    0.1317410 
C     0.8969110   -5.0964165   -0.0293136 
H     1.2944171   -6.8562142   -1.2385478 
H     2.6950734   -5.6075047   -2.8949001 
H     3.0736707   -3.1651475   -2.6216359 
H     0.6603528   -3.1968605    0.9728585 
H     0.2712411   -5.6329789    0.6916449 
C    -2.8321596    2.2928610   -1.1463765 
C    -3.1395140    1.1313593   -2.1034635 
C    -2.3836902    1.9201363    0.2839401 
C    -1.9563888    0.3555076   -2.7102196 
C     0.0708787    3.4395609   -0.0621603 
C    -0.4767856    1.9337307    2.4124149 
C    -0.3958195   -2.0204691   -2.9319202 
C    -2.3302037   -1.8065644   -0.7446872 
C     1.1298722    3.4542257   -0.9910122 
C    -1.0478967    0.8667426    3.1412826 
C    -0.7584425   -3.3785151   -2.9943783 
C    -3.4920390   -2.2700392   -1.3997385 
C    -0.5301970    4.6600434    0.3174770 
C     0.1062456    3.0097300    3.1077199 
C     0.4935786   -1.4936207   -3.8937390 
C    -2.1684174   -2.0584237    0.6317978 
C     1.5962726    4.6665700   -1.5196324 
C    -1.0594406    0.8920974    4.5412168 
C    -0.2629575   -4.1883658   -4.0271337 
C    -4.4725726   -2.9671182   -0.6816210 
C    -0.0613190    5.8696668   -0.2106225 
C     0.0914028    3.0281907    4.5098197 
C     0.9812702   -2.3069915   -4.9243173 
C    -3.1508577   -2.7565142    1.3482036 
C     1.0035142    5.8749709   -1.1263470 
C    -0.4938591    1.9772843    5.2287596 
C     0.5968748   -3.6554555   -4.9968835 
C    -4.3045498   -3.2092602    0.6916107 
H    -2.1023590    2.9836704   -1.6097727 
H    -3.7638964    2.8768571   -1.0429781 
H    -3.8389245    0.4265933   -1.6165448 
H    -3.6915594    1.5553855   -2.9623508 
H    -2.8031328    0.9467104    0.5984247 
H    -2.7548617    2.6683248    1.0062568 
H    -2.3137091   -0.2325371   -3.5742745 
H    -1.1903767    1.0515141   -3.0989640 
H     1.5826280    2.5062797   -1.3040307 
H    -1.4955036    0.0176937    2.6128926 
H    -1.4154705   -3.8113030   -2.2346279 
H    -3.6298764   -2.0954465   -2.4724561 
H    -1.3609999    4.6697203    1.0315077 
H     0.5844128    3.8279233    2.5626890 
H     0.8049424   -0.4430211   -3.8412393 
H    -1.2606947   -1.7028293    1.1342030 
H     2.4201258    4.6665203   -2.2407626 
H    -1.5137027    0.0647476    5.0964716 
H    -0.5462930   -5.2450214   -4.0639558 
H    -5.3710053   -3.3238621   -1.1956308 
H    -0.5296733    6.8119011    0.0919604 
H     0.5517651    3.8680245    5.0396918 
H     1.6621426   -1.8874603   -5.6723144 
H    -3.0147978   -2.9475498    2.4177636 
H     1.3663016    6.8227205   -1.5372875 
H    -0.5038618    1.9987292    6.3233500 
H     0.9776475   -4.2912755   -5.8026913 
H    -5.0744456   -3.7531593    1.2485071 
