87
Energy =
C     2.5803366    0.6283701    0.9963783 
C     2.7717904   -0.5126606    0.1743015 
C     2.7223121   -0.4258505   -1.2409820 
H     2.8345670   -1.5080923    0.6312499 
Pd    0.7602534    0.2334845   -0.3128382 
P    -0.8401126   -0.4498632   -1.8914027 
P    -0.8277778    1.5617747    0.8314012 
H     2.7977823    1.6129650    0.5580943 
H     2.9481088    0.5549308   -1.6882486 
C     2.4875998    0.6068991    5.3036196 
C     2.4964632   -0.6112968    4.6027228 
C     2.5316433   -0.6210182    3.2045784 
C     2.5676794    0.5906588    2.4707096 
C     2.5825934    1.8066026    3.1922969 
C     2.5349182    1.8142005    4.5912621 
H     2.4535212    0.6120177    6.3978388 
H     2.4740439   -1.5593392    5.1503013 
H     2.5200168   -1.5828095    2.6820895 
H     2.6232122    2.7544396    2.6464629 
H     2.5370980    2.7696764    5.1255904 
C     3.5094412   -3.7855373   -3.7972335 
C     3.9886320   -2.5096796   -4.1278228 
C     3.6884236   -1.4143170   -3.3090932 
C     2.9284826   -1.5820424   -2.1295590 
C     2.4360212   -2.8705817   -1.8190422 
C     2.7239530   -3.9598791   -2.6450098 
H     3.7350449   -4.6415548   -4.4412787 
H     4.5960122   -2.3664046   -5.0274781 
H     4.0686694   -0.4194013   -3.5675846 
H     1.7992627   -3.0081824   -0.9377560 
H     2.3240003   -4.9486305   -2.3995611 
C    -1.8032514    3.0788689   -1.4432700 
C    -0.9235508    2.3736786   -2.4896439 
C    -2.2085660    2.2522406   -0.2116965 
C    -1.4152921    0.9865554   -2.9533081 
C    -0.0647359    3.0715415    1.5466336 
C    -1.7045894    0.7405147    2.2160752 
C    -0.4646048   -1.7591910   -3.1231008 
C    -2.2801611   -1.1424133   -0.9811155 
C     0.8504747    3.7976280    0.7541273 
C    -3.1072126    0.7336638    2.3533807 
C    -1.0107386   -3.0544607   -3.0118335 
C    -3.6030266   -1.0778883   -1.4652417 
C    -0.3669753    3.5235033    2.8454156 
C    -0.9149736    0.0565473    3.1645623 
C     0.4171385   -1.4708828   -4.1875798 
C    -2.0205318   -1.8226986    0.2274446 
C     1.4466493    4.9642379    1.2504694 
C    -3.7041812    0.0517592    3.4237244 
C    -0.7041609   -4.0314305   -3.9692167 
C    -4.6474793   -1.6642245   -0.7368863 
C     0.2414223    4.6859369    3.3422584 
C    -1.5158021   -0.6174881    4.2336609 
C     0.7114120   -2.4479915   -5.1445411 
C    -3.0645043   -2.4222512    0.9441756 
C     1.1457267    5.4073127    2.5490295 
C    -2.9138995   -0.6241974    4.3643957 
C     0.1501750   -3.7298614   -5.0387515 
C    -4.3797817   -2.3365067    0.4664486 
H    -1.2981792    4.0063476   -1.1181443 
H    -2.7434343    3.4003147   -1.9297194 
H    -0.8602288    3.0318129   -3.3746233 
H     0.1143373    2.2705330   -2.1114677 
H    -2.8270765    1.3852839   -0.5067502 
H    -2.8208319    2.8784190    0.4612133 
H    -2.5156117    0.9538322   -3.0464528 
H    -1.0167725    0.7655666   -3.9570678 
H     1.1097681    3.4395430   -0.2495953 
H    -3.7499076    1.2399867    1.6291012 
H    -1.6876563   -3.2986412   -2.1875065 
H    -3.8255906   -0.5805116   -2.4152529 
H    -1.0648680    2.9611522    3.4737136 
H     0.1741020    0.0554549    3.0680995 
H     0.8825968   -0.4824398   -4.2715846 
H    -0.9947728   -1.8696831    0.6128803 
H     2.1532428    5.5230158    0.6281630 
H    -4.7949599    0.0487946    3.5183480 
H    -1.1434070   -5.0304491   -3.8805099 
H    -5.6728845   -1.6041200   -1.1160446 
H     0.0084783    5.0260041    4.3566335 
H    -0.8863424   -1.1368097    4.9637764 
H     1.3931717   -2.2115732   -5.9670636 
H    -2.8502079   -2.9354748    1.8865831 
H     1.6192541    6.3128654    2.9418030 
H    -3.3863193   -1.1539330    5.1981650 
H     0.3841835   -4.4934300   -5.7875041 
H    -5.1990554   -2.7932424    1.0311841 
