87
Energy =
C     1.9614908   -0.0972194    1.9422438 
C     2.4457599   -0.7573521    0.7831567 
C     2.7460335   -0.0278316   -0.4003184 
H     2.4548176   -1.8540045    0.7454091 
Pd    0.5915760    0.2486119    0.1660186 
P    -0.2193096    0.8326986   -1.9438746 
P    -1.4118202    0.3899492    1.3568777 
H     2.2059175    0.9718789    2.0357430 
H     3.0471562    1.0244416   -0.2804821 
C     1.0784728   -1.9358454    5.7247599 
C     1.2016353   -2.7373718    4.5772689 
C     1.4525525   -2.1549754    3.3322699 
C     1.6031385   -0.7536746    3.2096207 
C     1.4481759    0.0426661    4.3679306 
C     1.1907751   -0.5423181    5.6136196 
H     0.8884581   -2.3973407    6.6992115 
H     1.0957838   -3.8239909    4.6542746 
H     1.5349464   -2.7973703    2.4501946 
H     1.5466424    1.1309985    4.2879312 
H     1.0881605    0.0910437    6.5008394 
C     4.1285191   -1.8705666   -4.0347350 
C     3.1373006   -2.5046954   -3.2667947 
C     2.6753223   -1.9110341   -2.0879982 
C     3.1902492   -0.6677347   -1.6551922 
C     4.1721698   -0.0335773   -2.4450807 
C     4.6432669   -0.6343110   -3.6190736 
H     4.4919825   -2.3371240   -4.9561283 
H     2.7214955   -3.4643500   -3.5912141 
H     1.8919211   -2.4059827   -1.5040169 
H     4.5695446    0.9376791   -2.1326488 
H     5.4091104   -0.1289053   -4.2160886 
C    -3.3375520    1.8387683   -0.2664098 
C    -2.9087735    2.0265308   -1.7294196 
C    -3.0097878    0.4793355    0.3898574 
C    -1.4187769    2.2760445   -2.0262539 
C    -1.5197043    1.8261909    2.4919278 
C    -1.7022649   -1.1141894    2.3705677 
C     1.0747558    1.4149502   -3.1126120 
C    -1.0737317   -0.5467849   -2.7941676 
C    -2.6708161    2.0590646    3.2766516 
C    -1.8147738   -1.0909963    3.7733767 
C     1.3937917    0.7305656   -4.2998576 
C    -1.7685207   -0.3520091   -4.0079120 
C    -0.4523528    2.7439575    2.5479446 
C    -1.8147464   -2.3456607    1.6874098 
C     1.7693745    2.5997913   -2.7852797 
C    -1.0398446   -1.8317764   -2.2181827 
C    -2.7362089    3.1788687    4.1155703 
C    -2.0636978   -2.2787849    4.4759499 
C     2.3718345    1.2457483   -5.1634775 
C    -2.4210635   -1.4278431   -4.6242992 
C    -0.5211765    3.8654890    3.3871841 
C    -2.0637191   -3.5277620    2.3953915 
C     2.7416762    3.1105984   -3.6542705 
C    -1.6928435   -2.9069896   -2.8372686 
C    -1.6612219    4.0807411    4.1747562 
C    -2.1941879   -3.4952675    3.7925921 
C     3.0391210    2.4374097   -4.8499839 
C    -2.3857901   -2.7044286   -4.0397519 
H    -2.9466374    2.6682281    0.3531346 
H    -4.4366053    1.9454738   -0.2395606 
H    -3.2731891    1.1746440   -2.3329852 
H    -3.4431496    2.9151639   -2.1128370 
H    -2.9756064   -0.3337042   -0.3586314 
H    -3.7984256    0.2056455    1.1126780 
H    -1.3152699    2.6727006   -3.0518430 
H    -1.0085627    3.0467401   -1.3480722 
H    -3.5162028    1.3633030    3.2399938 
H    -1.6959292   -0.1538558    4.3234931 
H     0.8920907   -0.2088886   -4.5485942 
H    -1.7948658    0.6370688   -4.4781511 
H     0.4321173    2.5780666    1.9219898 
H    -1.7180168   -2.3796571    0.5965307 
H     1.5492048    3.1285023   -1.8497174 
H    -0.4923134   -1.9789491   -1.2795452 
H    -3.6299436    3.3494439    4.7245843 
H    -2.1447718   -2.2492326    5.5671086 
H     2.6172673    0.7027294   -6.0816746 
H    -2.9586926   -1.2699158   -5.5648539 
H     0.3142794    4.5722203    3.4231023 
H    -2.1589445   -4.4755183    1.8551762 
H     3.2679518    4.0360459   -3.3979752 
H    -1.6596336   -3.9020072   -2.3814441 
H    -1.7167600    4.9550031    4.8315061 
H    -2.3899654   -4.4187851    4.3470860 
H     3.7988190    2.8370432   -5.5294960 
H    -2.8984888   -3.5414621   -4.5247592 
