87
Energy =
C     1.8210820   -0.2953623    1.8846613 
C     2.1808457   -1.0669898    0.7481658 
C     2.5462126   -0.4419743   -0.4727350 
H     2.0460954   -2.1549649    0.7734410 
Pd    0.4449585    0.1546461    0.1386969 
P    -0.2788949    0.7583267   -2.0073712 
P    -1.4145775    0.7002793    1.4489218 
H     2.2211522    0.7284437    1.9274918 
H     2.9232515    0.5906310   -0.4135627 
C     0.7349222   -1.8309994    5.7509867 
C     1.0519519   -0.4756204    5.5809962 
C     1.3834756    0.0127744    4.3115256 
C     1.4050967   -0.8433811    3.1864018 
C     1.0558506   -2.2018684    3.3697108 
C     0.7332963   -2.6894512    4.6386939 
H     0.4845067   -2.2181760    6.7439701 
H     1.0513485    0.2025530    6.4405733 
H     1.6414294    1.0698776    4.1874527 
H     1.0339955   -2.8857251    2.5157044 
H     0.4717960   -3.7450342    4.7616442 
C     3.6527182   -2.4335279   -4.1215908 
C     2.9406033   -3.1396320   -3.1367628 
C     2.5716636   -2.5088294   -1.9460596 
C     2.9032487   -1.1533532   -1.7121526 
C     3.6245202   -0.4586329   -2.7089498 
C     3.9967316   -1.0926716   -3.9005273 
H     3.9406150   -2.9307824   -5.0534946 
H     2.6712307   -4.1879551   -3.3017443 
H     2.0141358   -3.0762228   -1.1934367 
H     3.8934862    0.5899809   -2.5424830 
H     4.5559737   -0.5347222   -4.6586066 
C    -3.3082351    0.3876744   -0.7074745 
C    -3.1225113    1.2504550   -1.9668075 
C    -3.0306146    1.1425760    0.6123759 
C    -1.7436472    1.9157690   -2.1258925 
C    -1.1796476    2.1144132    2.5932865 
C    -1.8805323   -0.7775991    2.4399899 
C     1.0305056    1.7396821   -2.8444564 
C    -0.7331198   -0.6383709   -3.0990679 
C    -2.2077428    2.5474130    3.4602406 
C    -2.0337136   -1.9941802    1.7371714 
C     1.5742289    2.8223739   -2.1176677 
C    -1.2249570   -0.4363393   -4.4077498 
C     0.0287557    2.8383514    2.5489185 
C    -2.0959452   -0.7549690    3.8303499 
C     1.5215806    1.4569619   -4.1325263 
C    -0.6442916   -1.9481243   -2.5897487 
C    -2.0096690    3.6602799    4.2883078 
C    -2.4404994   -3.1542490    2.4079967 
C     2.5783431    3.6199097   -2.6801783 
C    -1.5987439   -1.5338853   -5.1941756 
C     0.2223251    3.9544051    3.3750398 
C    -2.4942519   -1.9223426    4.4976671 
C     2.5256280    2.2620440   -4.6929103 
C    -1.0209428   -3.0437959   -3.3783642 
C    -0.7939810    4.3612434    4.2515782 
C    -2.6790644   -3.1182275    3.7904117 
C     3.0541232    3.3418066   -3.9726257 
C    -1.4939404   -2.8374230   -4.6820465 
H    -4.3434790    0.0059943   -0.6969653 
H    -2.6640578   -0.5093615   -0.7846618 
H    -3.3232936    0.6230738   -2.8532519 
H    -3.8831319    2.0542326   -1.9756015 
H    -3.8204562    0.9484322    1.3579862 
H    -3.0052525    2.2358554    0.4546171 
H    -1.6784790    2.4265950   -3.1028796 
H    -1.5688508    2.6898961   -1.3557871 
H    -3.1663140    2.0187204    3.4936454 
H    -1.8263821   -2.0352420    0.6612508 
H     1.2132202    3.0365763   -1.1033605 
H    -1.3204547    0.5763595   -4.8149348 
H     0.8165325    2.5258196    1.8542303 
H    -1.9307164    0.1613536    4.4029118 
H     1.1447897    0.5967878   -4.6925990 
H    -0.2778552   -2.0983261   -1.5676272 
H    -2.8098074    3.9836969    4.9620504 
H    -2.5653122   -4.0888131    1.8511552 
H     2.9917037    4.4585117   -2.1102905 
H    -1.9770419   -1.3714490   -6.2086494 
H     1.1660658    4.5078765    3.3316642 
H    -2.6488100   -1.8948443    5.5810533 
H     2.9037983    2.0315415   -5.6942584 
H    -0.9434806   -4.0586807   -2.9749944 
H    -0.6438248    5.2306368    4.8998744 
H    -2.9931915   -4.0251182    4.3172325 
H     3.8399083    3.9642408   -4.4127434 
H    -1.7879888   -3.6918545   -5.3002700 
