87
Energy =
C     2.5944390    0.5825848    0.7490158 
C     2.4673482   -0.8263466    0.6357739 
C     2.2860305   -1.4434156   -0.6327182 
H     2.3629304   -1.4377785    1.5410016 
Pd    0.6256995    0.0111652   -0.2226634 
P    -0.9674935   -0.9160839   -1.6558408 
P    -0.6395788    1.7969221    0.5906314 
H     2.9500551    1.1159871   -0.1455818 
H     2.6999798   -0.9230897   -1.5103209 
C     3.2826114    2.7803862    4.3773024 
C     2.8176875    1.4562532    4.4473924 
C     2.5535277    0.7374049    3.2788016 
C     2.7656337    1.3236005    2.0088864 
C     3.2064219    2.6661291    1.9538302 
C     3.4647144    3.3869281    3.1260187 
H     3.4941383    3.3376062    5.2956826 
H     2.6550086    0.9837898    5.4211118 
H     2.1819176   -0.2889650    3.3567380 
H     3.3615687    3.1403373    0.9782989 
H     3.8186997    4.4210239    3.0615638 
C     1.7812565   -5.6856455   -1.1478527 
C     2.5366630   -4.9392698   -2.0634565 
C     2.6781360   -3.5558133   -1.8984425 
C     2.0816542   -2.8963292   -0.8032287 
C     1.3177763   -3.6590222    0.1094214 
C     1.1665156   -5.0385128   -0.0626833 
H     1.6652548   -6.7662550   -1.2805727 
H     3.0114109   -5.4339439   -2.9168464 
H     3.2592721   -2.9771111   -2.6239320 
H     0.8223826   -3.1610052    0.9500165 
H     0.5645846   -5.6124270    0.6496744 
C    -2.9384349    2.1498780   -1.1507022 
C    -3.1767471    0.9832823   -2.1212030 
C    -2.4833502    1.7872681    0.2802787 
C    -1.9498548    0.2761141   -2.7250123 
C    -0.1121354    3.4400962   -0.0289773 
C    -0.5959383    1.8798413    2.4252071 
C    -0.2663337   -2.0150925   -2.9521678 
C    -2.2260150   -1.9186607   -0.7797279 
C    -0.7828549    4.6219068    0.3563255 
C    -1.1102356    0.7740651    3.1383600 
C     0.6005460   -1.4363501   -3.9046373 
C    -3.3583300   -2.4343773   -1.4472835 
C     0.9530354    3.5221813   -0.9471323 
C    -0.0801526    2.9795876    3.1363367 
C    -0.5563397   -3.3900415   -3.0249228 
C    -2.0610022   -2.1748515    0.5955600 
C    -0.3763769    5.8606569   -0.1557151 
C    -1.1323855    0.7829792    4.5383578 
C     1.1372635   -2.2167353   -4.9363643 
C    -4.3073834   -3.1863905   -0.7424068 
C     1.3567949    4.7635028   -1.4598463 
C    -0.1057282    2.9816770    4.5383883 
C    -0.0118359   -4.1664638   -4.0586135 
C    -3.0116144   -2.9283421    1.2986368 
C     0.6948146    5.9335593   -1.0610674 
C    -0.6344377    1.8909635    5.2416871 
C     0.8251519   -3.5831350   -5.0192623 
C    -4.1365995   -3.4324848    0.6297896 
H    -2.2417479    2.8820498   -1.6013488 
H    -3.9001568    2.6836640   -1.0503583 
H    -3.8423639    0.2383749   -1.6469295 
H    -3.7433048    1.3863132   -2.9808099 
H    -2.8524752    0.7895951    0.5814402 
H    -2.9003753    2.5071224    1.0063520 
H    -2.2690414   -0.3219530   -3.5970802 
H    -1.2183741    1.0147783   -3.1011734 
H    -1.6196933    4.5789140    1.0619574 
H    -1.5051493   -0.0930642    2.5975639 
H     0.8559789   -0.3712410   -3.8441090 
H    -3.4973846   -2.2571909   -2.5194218 
H     1.4601884    2.6036858   -1.2642687 
H     0.3542140    3.8296936    2.6036352 
H    -1.1949086   -3.8615284   -2.2724281 
H    -1.1759236   -1.7783551    1.1076179 
H    -0.8984148    6.7726918    0.1515182 
H    -1.5420928   -0.0752072    5.0813339 
H     1.7998886   -1.7573352   -5.6772995 
H    -5.1834490   -3.5827896   -1.2658909 
H     2.1857815    4.8157933   -2.1731521 
H     0.3020272    3.8405688    5.0806771 
H    -0.2384191   -5.2364317   -4.1030843 
H    -2.8731678   -3.1223068    2.3673658 
H     1.0084728    6.9038347   -1.4596960 
H    -0.6525298    1.8993829    6.3363523 
H     1.2444328   -4.1931210   -5.8259213 
H    -4.8817789   -4.0196769    1.1762507 
