87
Energy =
C     2.0906230    0.6034508    1.9496984 
C     2.6135085   -0.2026447    0.9126610 
C     2.8401179    0.3246618   -0.3966317 
H     2.7109264   -1.2855069    1.0661487 
Pd    0.6967476    0.5411678    0.1314564 
P    -0.1776918    0.8733247   -2.0229073 
P    -1.3947727    0.4485834    1.2074822 
H     2.2011861    1.6934158    1.8360415 
H     3.1281784    1.3837433   -0.4757699 
C     1.1313193   -0.5660963    5.9741691 
C     1.2089218    0.7872502    5.6155486 
C     1.5220286    1.1464581    4.3003926 
C     1.7674660    0.1626386    3.3151144 
C     1.7005873   -1.1980777    3.6969231 
C     1.3817401   -1.5567360    5.0095326 
H     0.8839013   -0.8508657    7.0019169 
H     1.0219843    1.5667171    6.3604488 
H     1.5802060    2.2045212    4.0262644 
H     1.9081859   -1.9874351    2.9678044 
H     1.3342712   -2.6151347    5.2856394 
C     4.1137366   -2.1864317   -3.6543951 
C     3.1726482   -2.6665507   -2.7284638 
C     2.7467435   -1.8518574   -1.6748381 
C     3.2531041   -0.5397515   -1.5227757 
C     4.1829846   -0.0647212   -2.4710262 
C     4.6133202   -0.8829388   -3.5231512 
H     4.4481853   -2.8241522   -4.4790881 
H     2.7662378   -3.6780200   -2.8329508 
H     1.9951230   -2.2269732   -0.9700555 
H     4.5770647    0.9523150   -2.3757058 
H     5.3386925   -0.4971876   -4.2465354 
C    -2.7860694    2.6268951   -0.0905719 
C    -1.5311106    3.1495594   -0.8091087 
C    -2.8341166    1.1230611    0.2333766 
C    -1.1793805    2.4623152   -2.1422282 
C    -1.8564633   -1.3112744    1.4804335 
C    -1.5460239    1.2694820    2.8429198 
C     1.0100706    1.0542656   -3.4142996 
C    -1.2889448   -0.4911537   -2.5481336 
C    -3.1940710   -1.7370384    1.6151388 
C    -1.1494319    2.6199569    2.9535528 
C     1.8149652    2.2126400   -3.4793085 
C    -2.2050630   -0.3413012   -3.6117960 
C    -0.8255002   -2.2708855    1.5417578 
C    -2.0507505    0.6037796    3.9767476 
C     1.1613562    0.0529688   -4.3922068 
C    -1.2120392   -1.7252437   -1.8743336 
C    -3.4876975   -3.0957235    1.8002286 
C    -1.3014759    3.3057774    4.1655783 
C     2.7166145    2.3882814   -4.5362300 
C    -3.0444202   -1.4042923   -3.9696916 
C    -1.1189952   -3.6269403    1.7308465 
C    -2.1834278    1.2901934    5.1921935 
C     2.0741052    0.2301969   -5.4420195 
C    -2.0557548   -2.7860123   -2.2313515 
C    -2.4535482   -4.0421984    1.8577513 
C    -1.8227347    2.6419383    5.2867551 
C     2.8417373    1.3998135   -5.5248273 
C    -2.9765638   -2.6241418   -3.2760206 
H    -2.9235680    3.2038132    0.8417726 
H    -3.6706897    2.8491122   -0.7169725 
H    -1.6901983    4.2234087   -1.0153089 
H    -0.6503544    3.0979839   -0.1375215 
H    -2.8690040    0.5113216   -0.6876253 
H    -3.7560150    0.9098938    0.8011459 
H    -2.0879960    2.2501673   -2.7331128 
H    -0.5615569    3.1392432   -2.7546943 
H    -4.0167671   -1.0166854    1.5786041 
H    -0.7076850    3.1345050    2.0928002 
H     1.7388273    2.9857297   -2.7048339 
H    -2.2594544    0.5985864   -4.1718697 
H     0.2121556   -1.9435319    1.4205433 
H    -2.3321822   -0.4518958    3.9160567 
H     0.5651195   -0.8627364   -4.3396606 
H    -0.4942071   -1.8477138   -1.0582940 
H    -4.5302658   -3.4147282    1.9001811 
H    -1.0020311    4.3565879    4.2372692 
H     3.3250589    3.2972949   -4.5857689 
H    -3.7540260   -1.2807072   -4.7943260 
H    -0.3065866   -4.3598588    1.7751723 
H    -2.5698297    0.7619806    6.0698995 
H     2.1829579   -0.5539071   -6.1980597 
H    -1.9954260   -3.7323290   -1.6843887 
H    -2.6878735   -5.1020123    2.0017146 
H    -1.9358519    3.1753483    6.2361721 
H     3.5459468    1.5374109   -6.3516837 
H    -3.6410390   -3.4483673   -3.5553119 
