87
Energy =
C     1.9271771   -0.1066877    1.9768286 
C     2.4269776   -0.7730387    0.8279679 
C     2.7521505   -0.0482890   -0.3519456 
H     2.4295753   -1.8698327    0.7929882 
Pd    0.5912217    0.2434002    0.1757162 
P    -0.1790243    0.8285435   -1.9491308 
P    -1.4321573    0.4035860    1.3304499 
H     2.1772466    0.9609875    2.0716081 
H     3.0585691    1.0021504   -0.2294181 
C     0.9655692   -1.9286446    5.7481261 
C     1.1016580   -2.7340333    4.6048084 
C     1.3783620   -2.1568178    3.3628702 
C     1.5420685   -0.7570566    3.2394205 
C     1.3737037    0.0434475    4.3929752 
C     1.0908520   -0.5363446    5.6355690 
H     0.7554779   -2.3861476    6.7203331 
H     0.9858900   -3.8195810    4.6826153 
H     1.4703459   -2.8019822    2.4837686 
H     1.4820220    1.1307718    4.3119962 
H     0.9782147    0.1000595    6.5193891 
C     4.1881197   -1.9121362   -3.9547588 
C     3.1758603   -2.5349961   -3.2052728 
C     2.6960148   -1.9339587   -2.0373713 
C     3.2143355   -0.6947147   -1.5970755 
C     4.2174470   -0.0715966   -2.3688537 
C     4.7056802   -0.6794014   -3.5321728 
H     4.5657265   -2.3845658   -4.8674290 
H     2.7575133   -3.4914922   -3.5357002 
H     1.8960157   -2.4195403   -1.4681995 
H     4.6180633    0.8964216   -2.0505596 
H     5.4869269   -0.1820102   -4.1158125 
C    -3.3194269    1.8620961   -0.3293417 
C    -2.8617365    2.0452809   -1.7841128 
C    -3.0122542    0.5018688    0.3351773 
C    -1.3643962    2.2822865   -2.0531670 
C    -1.5486576    1.8442345    2.4588486 
C    -1.7518641   -1.0948477    2.3439702 
C     1.1389365    1.3959900   -3.0982668 
C    -1.0313475   -0.5451830   -2.8106090 
C    -2.7111110    2.0882954    3.2231807 
C    -1.8873913   -1.0659460    3.7446385 
C     1.8346944    2.5790061   -2.7667614 
C    -1.7013162   -0.3471399   -4.0377060 
C    -0.4754652    2.7541058    2.5300697 
C    -1.8632357   -2.3276562    1.6631165 
C     1.4756715    0.7009465   -4.2743938 
C    -1.0210644   -1.8286480   -2.2304027 
C    -2.7821804    3.2112649    4.0573774 
C    -2.1581225   -2.2491775    4.4468293 
C     2.8260527    3.0774361   -3.6212930 
C    -2.3532604   -1.4181960   -4.6629490 
C    -0.5498933    3.8787231    3.3646815 
C    -2.1339508   -3.5052150    2.3707024 
C     2.4722246    1.2041081   -5.1237697 
C    -1.6732505   -2.8991598   -2.8584715 
C    -1.7014652    4.1051050    4.1320949 
C    -2.2877060   -3.4668228    3.7653704 
C     3.1412663    2.3937526   -4.8064317 
C    -2.3417045   -2.6932866   -4.0741835 
H    -2.9354572    2.6901064    0.2964568 
H    -4.4181384    1.9753560   -0.3235847 
H    -3.2217091    1.1959420   -2.3939035 
H    -3.3815386    2.9379368   -2.1780374 
H    -2.9706104   -0.3129563   -0.4109711 
H    -3.8152247    0.2351179    1.0446896 
H    -1.2386194    2.6782798   -3.0765167 
H    -0.9604123    3.0492556   -1.3670663 
H    -3.5609773    1.3987737    3.1743283 
H    -1.7701036   -0.1279421    4.2936115 
H     1.6003851    3.1162563   -1.8395642 
H    -1.7082762    0.6405550   -4.5115340 
H     0.4180967    2.5794359    1.9196085 
H    -1.7488220   -2.3662646    0.5741199 
H     0.9734115   -0.2376361   -4.5251784 
H    -0.4925802   -1.9784307   -1.2812926 
H    -3.6847706    3.3906048    4.6506056 
H    -2.2569191   -2.2152240    5.5363963 
H     3.3531717    4.0015844   -3.3620709 
H    -2.8716086   -1.2577891   -5.6138454 
H     0.2902601    4.5791324    3.4127521 
H    -2.2277957   -4.4540237    1.8321034 
H     2.7304311    0.6533753   -6.0338281 
H    -1.6586435   -3.8930288   -2.3991872 
H    -1.7614504    4.9818199    4.7851708 
H    -2.5004374   -4.3867631    4.3195537 
H     3.9162196    2.7834622   -5.4743790 
H    -2.8535304   -3.5266577   -4.5663651 
