87
Energy =
C     2.3913446    0.4199038    1.1553820 
C     2.4189417   -0.8395308    0.4916106 
C     2.4391372   -0.9148459   -0.9228717 
H     2.2905466   -1.7607090    1.0743284 
Pd    0.6050333    0.2112170   -0.1954248 
P    -0.8796473   -0.6051814   -1.8148295 
P    -0.6462982    1.9554637    0.7735245 
H     2.8446285    1.2750449    0.6324149 
H     2.8139531   -0.0298771   -1.4610465 
C     2.0968222    0.9344049    5.4176527 
C     1.5908721   -0.2342751    4.8225164 
C     1.6788762   -0.4136299    3.4396187 
C     2.2731873    0.5727213    2.6171911 
C     2.7746004    1.7423431    3.2292457 
C     2.6904964    1.9192500    4.6159520 
H     2.0273107    1.0729736    6.5014467 
H     1.1226011   -1.0059504    5.4423198 
H     1.2696592   -1.3258327    2.9910820 
H     3.2317559    2.5190813    2.6067245 
H     3.0870683    2.8333880    5.0695501 
C     2.6194058   -4.5089213   -3.2729660 
C     3.1416848   -3.3025969   -3.7612644 
C     3.0519992   -2.1366987   -2.9925560 
C     2.4580155   -2.1586071   -1.7108721 
C     1.9311745   -3.3806873   -1.2329789 
C     2.0072938   -4.5412867   -2.0085078 
H     2.6834478   -5.4207970   -3.8755786 
H     3.6121765   -3.2659131   -4.7487579 
H     3.4496566   -1.1946576   -3.3845881 
H     1.4484627   -3.4246823   -0.2523654 
H     1.5891034   -5.4775476   -1.6246821 
C    -3.1796125    2.2774643   -0.6140380 
C    -3.1980523    0.7908339   -1.0018630 
C    -1.7883240    2.8931578   -0.3811612 
C    -2.3537239    0.4435972   -2.2509179 
C     0.4693131    3.3140731    1.3190178 
C    -1.6966718    1.5157651    2.2053008 
C    -0.1510221   -0.9686870   -3.4583244 
C    -1.6629166   -2.1507964   -1.2016920 
C     1.3851874    3.8158839    0.3677608 
C    -2.5658514    2.4550131    2.8036453 
C    -0.1914784   -2.2361240   -4.0679821 
C    -2.6930887   -2.7969215   -1.9185911 
C     0.4581165    3.8554920    2.6176245 
C    -1.6577613    0.1982425    2.6994204 
C     0.4829889    0.1027023   -4.1252708 
C    -1.2600181   -2.6772147    0.0414098 
C     2.2592902    4.8564575    0.7056669 
C    -3.3712574    2.0755816    3.8853225 
C     0.3653734   -2.4176553   -5.3425799 
C    -3.2903063   -3.9555353   -1.4043309 
C     1.3331806    4.9017600    2.9498183 
C    -2.4646138   -0.1779262    3.7815914 
C     1.0350788   -0.0842841   -5.3984589 
C    -1.8613383   -3.8333026    0.5571993 
C     2.2314496    5.4047399    1.9992193 
C    -3.3199798    0.7606561    4.3761411 
C     0.9702481   -1.3455187   -6.0125042 
C    -2.8755196   -4.4755243   -0.1677881 
H    -3.6777483    2.8733719   -1.4022481 
H    -3.7860541    2.4033628    0.3000809 
H    -2.8611225    0.1863350   -0.1356070 
H    -4.2439928    0.4857851   -1.1751994 
H    -1.8897331    3.9146000    0.0258657 
H    -1.2229754    2.9913793   -1.3262605 
H    -2.9369909   -0.1105281   -3.0061328 
H    -1.9679928    1.3433783   -2.7629658 
H     1.4187278    3.3852512   -0.6412977 
H    -2.6134678    3.4838319    2.4297786 
H    -0.6360563   -3.0879035   -3.5455998 
H    -3.0305447   -2.4026283   -2.8832521 
H    -0.2147206    3.4520152    3.3795016 
H    -0.9936360   -0.5299720    2.2242528 
H     0.5471431    1.0873089   -3.6446464 
H    -0.4695976   -2.1642785    0.6033552 
H     2.9633241    5.2404988   -0.0398160 
H    -4.0426683    2.8077154    4.3456331 
H     0.3348824   -3.4088409   -5.8061742 
H    -4.0852541   -4.4526136   -1.9697381 
H     1.3185636    5.3133396    3.9643058 
H    -2.4259989   -1.2050630    4.1585669 
H     1.5174423    0.7539760   -5.9119575 
H    -1.5398919   -4.2308322    1.5255465 
H     2.9146622    6.2180732    2.2642605 
H    -3.9521754    0.4685808    5.2209843 
H     1.4018201   -1.4928175   -7.0078351 
H    -3.3479442   -5.3788193    0.2316921 
