87
Energy =
C     1.6520189   -0.5205677    1.9320812 
C     2.0627238   -1.2467235    0.7774707 
C     2.5027621   -0.5624713   -0.3827665 
H     1.9113548   -2.3321885    0.7412357 
Pd    0.3629384    0.0095667    0.1667884 
P    -0.3728392    0.3436282   -2.0348070 
P    -1.4419528    0.7696734    1.4454193 
H     2.0997452    0.4740634    2.0690372 
H     2.8610252    0.4680391   -0.2371055 
C     0.3419355   -2.2977914    5.6203933 
C     0.8393707   -0.9869538    5.5940633 
C     1.2321631   -0.4096767    4.3799509 
C     1.1450398   -1.1365093    3.1708424 
C     0.6049646   -2.4434044    3.2080326 
C     0.2164793   -3.0186584    4.4207562 
H     0.0418496   -2.7542315    6.5691849 
H     0.9303640   -0.4138748    6.5226488 
H     1.6287648    0.6117171    4.3643926 
H     0.4811365   -3.0124542    2.2808854 
H    -0.1954839   -4.0326245    4.4317470 
C     3.9695045   -2.3158582   -4.0208656 
C     4.0962079   -0.9390938   -3.7858802 
C     3.5917860   -0.3812610   -2.6053777 
C     2.9514636   -1.1878708   -1.6359660 
C     2.8072246   -2.5699042   -1.9002253 
C     3.3178775   -3.1260995   -3.0757540 
H     4.3717994   -2.7575736   -4.9382951 
H     4.5977992   -0.2987189   -4.5187525 
H     3.7021122    0.6930468   -2.4219698 
H     2.2964947   -3.2183710   -1.1821553 
H     3.2033761   -4.1987818   -3.2601524 
C    -2.4577913    2.4860950   -0.5561393 
C    -2.7319712    2.0242258   -1.9978793 
C    -2.9008773    1.4677508    0.5212234 
C    -2.1915654    0.6304835   -2.3594870 
C    -0.9888522    2.1706149    2.5439992 
C    -2.1832852   -0.5552381    2.4720214 
C     0.4396618    1.7267042   -2.9204614 
C    -0.1146115   -1.2003282   -2.9977367 
C    -1.9156256    2.7143894    3.4608557 
C    -2.6933521   -1.6753519    1.7769271 
C     0.1032275    2.0572510   -4.2518054 
C     0.5490766   -1.2581311   -4.2363304 
C     0.2794773    2.7705005    2.4162963 
C    -2.2315841   -0.5366929    3.8781505 
C     1.3767553    2.5219510   -2.2312586 
C    -0.6493070   -2.3834724   -2.4407545 
C    -1.5603964    3.8116479    4.2559739 
C    -3.2742249   -2.7395235    2.4760380 
C     0.7196818    3.1448852   -4.8846505 
C     0.6454269   -2.4781735   -4.9214298 
C     0.6302454    3.8737786    3.2074994 
C    -2.8124620   -1.6073078    4.5731477 
C     1.9888893    3.6121712   -2.8652019 
C    -0.5562235   -3.5969463   -3.1333404 
C    -0.2864302    4.3895171    4.1346026 
C    -3.3401324   -2.7036530    3.8781403 
C     1.6654661    3.9200565   -4.1947811 
C     0.0860905   -3.6440042   -4.3804479 
H    -1.3763096    2.7068184   -0.4455405 
H    -2.9704426    3.4481898   -0.3881237 
H    -3.8232659    2.0135341   -2.1803330 
H    -2.3070074    2.7686605   -2.6950655 
H    -3.4513882    0.6136657    0.0894633 
H    -3.5716260    1.9196178    1.2716396 
H    -2.7151980   -0.1706150   -1.8059427 
H    -2.3598534    0.4210427   -3.4307646 
H    -2.9169053    2.2810606    3.5604631 
H    -2.6322454   -1.7159740    0.6820357 
H    -0.6398111    1.4674235   -4.7994706 
H     1.0098200   -0.3623532   -4.6613662 
H     0.9882616    2.3752961    1.6798559 
H    -1.8006904    0.2979163    4.4370165 
H     1.6149742    2.2855460   -1.1877693 
H    -1.1347844   -2.3536160   -1.4568254 
H    -2.2828391    4.2201269    4.9701045 
H    -3.6739481   -3.5986351    1.9273126 
H     0.4576367    3.3907212   -5.9188793 
H     1.1713625   -2.5150587   -5.8807854 
H     1.6183722    4.3321228    3.0966650 
H    -2.8401605   -1.5845531    5.6670837 
H     2.7146706    4.2238909   -2.3194957 
H    -0.9814408   -4.5070695   -2.6976213 
H    -0.0134500    5.2479536    4.7568802 
H    -3.7936675   -3.5353760    4.4269387 
H     2.1430970    4.7702870   -4.6924144 
H     0.1615260   -4.5918951   -4.9230896 
