87
Energy =
C     1.8103928    0.0982444    1.9866674 
C     2.4165821   -0.5029067    0.8469098 
C     2.7391652    0.2684275   -0.2964252 
H     2.5145102   -1.5950865    0.7999737 
Pd    0.5186320    0.3966100    0.1707488 
P    -0.2348062    0.4141185   -2.0483228 
P    -1.4326975    0.9864163    1.3481997 
H     2.0222257    1.1624206    2.1679949 
H     2.8678826    1.3515736   -0.1430531 
C     0.5163512   -2.0494518    5.4838206 
C     0.5920176   -2.7152874    4.2481378 
C     1.0090460   -2.0293666    3.1045178 
C     1.3592509   -0.6597956    3.1681580 
C     1.2756586   -0.0039103    4.4158938 
C     0.8617318   -0.6931311    5.5626263 
H     0.1900208   -2.5888065    6.3789296 
H     0.3204434   -3.7737807    4.1788102 
H     1.0515975   -2.5609622    2.1472568 
H     1.5365465    1.0578489    4.4816375 
H     0.8054241   -0.1651279    6.5200726 
C     4.6453291   -1.1603333   -3.8737049 
C     3.8630008   -2.0425314   -3.1092694 
C     3.2276545   -1.5943710   -1.9474532 
C     3.3541644   -0.2492535   -1.5299122 
C     4.1270512    0.6311431   -2.3197309 
C     4.7749388    0.1776041   -3.4741729 
H     5.1470386   -1.5157492   -4.7796246 
H     3.7500806   -3.0862783   -3.4202079 
H     2.6210076   -2.2952449   -1.3667471 
H     4.2215016    1.6800088   -2.0194044 
H     5.3748939    0.8740477   -4.0681829 
C    -3.5922299    1.5874431   -0.5016820 
C    -3.0086362    0.6287163   -1.5509587 
C    -2.5824745    2.1937547    0.4892382 
C    -1.8682656    1.2304776   -2.4058979 
C    -0.9995783    1.9492222    2.8559953 
C    -2.5190492   -0.3858772    1.8802359 
C     0.8785350    1.2049191   -3.2728307 
C    -0.5249829   -1.3144849   -2.6023418 
C    -1.4584106    1.6232960    4.1455534 
C    -3.7626056   -0.1463764    2.5062763 
C     1.2124516    2.5590453   -3.0507487 
C    -1.1154823   -1.6060976   -3.8509019 
C    -0.1498994    3.0646378    2.6849552 
C    -2.1165516   -1.7109477    1.6277804 
C     1.4009910    0.5387555   -4.3966414 
C    -0.1925943   -2.3761798   -1.7379347 
C    -1.0927563    2.4188401    5.2428827 
C    -4.5784055   -1.2221002    2.8802647 
C     2.0260856    3.2451571   -3.9606889 
C    -1.3495978   -2.9355172   -4.2268337 
C     0.2157268    3.8521668    3.7836234 
C    -2.9351600   -2.7846377    2.0030941 
C     2.2184720    1.2305178   -5.3025358 
C    -0.4302213   -3.7053099   -2.1134219 
C    -0.2598529    3.5317857    5.0665018 
C    -4.1649321   -2.5410070    2.6310893 
C     2.5249764    2.5820549   -5.0934891 
C    -1.0065991   -3.9859985   -3.3606804 
H    -4.1031365    2.4275195   -1.0093179 
H    -4.3711349    1.0468601    0.0643216 
H    -2.6577241   -0.2928998   -1.0441827 
H    -3.8239567    0.2975374   -2.2162783 
H    -3.1156523    2.7491619    1.2808017 
H    -1.9148981    2.9237499   -0.0048473 
H    -2.0580308    1.1223642   -3.4874976 
H    -1.7323838    2.3121606   -2.2269201 
H    -2.0826290    0.7394358    4.3037235 
H    -4.0950921    0.8783388    2.7059651 
H     0.8354325    3.0783199   -2.1604100 
H    -1.3906031   -0.7985501   -4.5381260 
H     0.2330526    3.3140378    1.6870371 
H    -1.1594519   -1.8918043    1.1296816 
H     1.1904723   -0.5221138   -4.5587272 
H     0.2513323   -2.1457533   -0.7614015 
H    -1.4524730    2.1542687    6.2425727 
H    -5.5407149   -1.0307783    3.3660705 
H     2.2723084    4.2976543   -3.7856850 
H    -1.8048333   -3.1520566   -5.1987185 
H     0.8725155    4.7164229    3.6401802 
H    -2.6125655   -3.8114996    1.8027771 
H     2.6259208    0.7023100   -6.1704896 
H    -0.1677733   -4.5209694   -1.4315840 
H     0.0255276    4.1470088    5.9259287 
H    -4.8064159   -3.3784860    2.9241771 
H     3.1615022    3.1174178   -5.8054764 
H    -1.1941845   -5.0230016   -3.6576220 
