87
Energy =
C     1.9992695    0.1383165    1.9179861 
C     2.4264504   -0.7248854    0.8714231 
C     2.7211600   -0.2128396   -0.4189244 
H     2.3880329   -1.8099703    1.0308424 
Pd    0.5817595    0.2494964    0.1810967 
P    -0.3528619    0.1782662   -1.9573900 
P    -1.2913846    1.0096367    1.3482563 
H     2.3372265    1.1853849    1.8762695 
H     2.9992861    0.8507707   -0.4718727 
C     0.9706989   -1.2410126    5.8620342 
C     0.5911300   -1.9968399    4.7399563 
C     0.9142162   -1.5543929    3.4533598 
C     1.6176468   -0.3434820    3.2611148 
C     1.9770154    0.4142971    4.3955441 
C     1.6644173   -0.0355018    5.6843393 
H     0.7200466   -1.5891342    6.8693736 
H     0.0382169   -2.9330429    4.8699168 
H     0.6011063   -2.1431421    2.5842504 
H     2.5080015    1.3626989    4.2632270 
H     1.9559648    0.5641800    6.5525099 
C     4.1670408   -2.4764794   -3.7730306 
C     4.2350964   -1.0757218   -3.7704333 
C     3.7304014   -0.3518377   -2.6834363 
C     3.1528181   -1.0138200   -1.5753183 
C     3.0598043   -2.4250240   -1.6089826 
C     3.5690807   -3.1459524   -2.6920095 
H     4.5706125   -3.0461643   -4.6163914 
H     4.6918532   -0.5449311   -4.6121424 
H     3.7965537    0.7419559   -2.6802288 
H     2.5884817   -2.9658950   -0.7825774 
H     3.4952382   -4.2379129   -2.6973755 
C    -3.3346091    2.0391688   -0.5142083 
C    -2.8396668    1.6838705   -1.9242575 
C    -2.2871183    2.3926336    0.5572189 
C    -2.2133236    0.2848270   -2.1149252 
C    -0.9031337    1.7755472    2.9735637 
C    -2.5086940   -0.3143965    1.6969388 
C     0.2481882    1.4940490   -3.0842181 
C    -0.0271113   -1.4264214   -2.7895873 
C    -0.1250116    2.9537839    2.9730812 
C    -3.7701171   -0.0299644    2.2642517 
C    -0.2284578    1.6043037   -4.4092421 
C    -0.5444685   -2.5914720   -2.1806991 
C    -1.3429025    1.2363400    4.1964865 
C    -2.1789360   -1.6475447    1.3834297 
C     1.1691246    2.4454885   -2.6033164 
C     0.7028240   -1.5403248   -3.9876738 
C     0.1743356    3.6021689    4.1778425 
C    -4.6816991   -1.0662801    2.5055374 
C     0.2279281    2.6375431   -5.2375747 
C    -0.3581224   -3.8443220   -2.7775088 
C    -1.0359035    1.8889748    5.3997084 
C    -3.0926984   -2.6829011    1.6262433 
C     1.6228361    3.4802771   -3.4340548 
C     0.8861620   -2.7983685   -4.5792976 
C    -0.2881119    3.0740757    5.3938559 
C    -4.3454860   -2.3918974    2.1857337 
C     1.1554120    3.5741434   -4.7527387 
C     0.3538412   -3.9492116   -3.9826007 
H    -3.9771906    2.9335509   -0.6115105 
H    -3.9955531    1.2350199   -0.1409148 
H    -3.7182144    1.7296120   -2.5921625 
H    -2.1493784    2.4664803   -2.2923573 
H    -2.7885550    2.8990197    1.4010666 
H    -1.5447389    3.1077827    0.1576150 
H    -2.6362024   -0.4479403   -1.4031603 
H    -2.4371629   -0.0971335   -3.1265639 
H     0.2466555    3.3696014    2.0285064 
H    -4.0399237    0.9990199    2.5261922 
H    -0.9521765    0.8804674   -4.7996976 
H    -1.1045975   -2.5186600   -1.2417750 
H    -1.9126565    0.3029601    4.2167749 
H    -1.1953218   -1.8639424    0.9492919 
H     1.5229461    2.3744341   -1.5682649 
H     1.1406787   -0.6549385   -4.4561094 
H     0.7691042    4.5215493    4.1675602 
H    -5.6581492   -0.8389087    2.9453844 
H    -0.1425959    2.7133882   -6.2650391 
H    -0.7718776   -4.7400128   -2.3024542 
H    -1.3775289    1.4585730    6.3463822 
H    -2.8259269   -3.7159431    1.3800588 
H     2.3386016    4.2143834   -3.0499842 
H     1.4593722   -2.8753541   -5.5085538 
H    -0.0546939    3.5812591    6.3355767 
H    -5.0619301   -3.1978990    2.3748807 
H     1.5085758    4.3807438   -5.4034393 
H     0.4989794   -4.9282245   -4.4506794 
