87
Energy =
C     2.6920188    0.6305891    0.8166484 
C     2.6860175   -0.6594154    0.2005793 
C     2.5364000   -0.8042968   -1.1978817 
H     2.6491045   -1.5483779    0.8442046 
Pd    0.7794658    0.3323942   -0.2666740 
P    -1.0062272   -0.5702985   -1.5066076 
P    -0.4917925    2.0114901    0.7750086 
H     3.1143470    1.4676815    0.2405758 
H     2.7845903    0.0720933   -1.8172267 
C     2.7934547    1.0899670    5.0967884 
C     2.0153979    0.0717570    4.5211253 
C     1.9710288   -0.0759842    3.1313818 
C     2.7034007    0.7905737    2.2865648 
C     3.4653441    1.8196758    2.8778969 
C     3.5143998    1.9634505    4.2702295 
H     2.8292143    1.2058131    6.1849064 
H     1.4372813   -0.6048980    5.1591833 
H     1.3435301   -0.8592130    2.6895808 
H     4.0297389    2.5067322    2.2390018 
H     4.1147963    2.7660439    4.7102619 
C     2.3241208   -4.4465325   -3.4723541 
C     2.5292541   -3.2120639   -4.1050123 
C     2.5949362   -2.0386979   -3.3462682 
C     2.4605910   -2.0723451   -1.9391504 
C     2.2695180   -3.3275445   -1.3148857 
C     2.1976846   -4.4989653   -2.0738327 
H     2.2693284   -5.3665393   -4.0632795 
H     2.6350163   -3.1607653   -5.1929317 
H     2.7535586   -1.0778249   -3.8459803 
H     2.1848528   -3.3960099   -0.2259095 
H     2.0484940   -5.4608811   -1.5726729 
C    -1.1957587    2.7698203   -1.9483392 
C    -2.3203733    1.8360295   -2.4260082 
C    -1.2555073    3.1990562   -0.4700577 
C    -2.5126535    0.5179294   -1.6553372 
C     0.3808055    3.1550110    1.9197436 
C    -1.8778415    1.3347781    1.7717149 
C    -0.6649751   -1.0901658   -3.2345636 
C    -1.6477985   -2.0641965   -0.6454633 
C     1.3183459    4.0666099    1.3868690 
C    -2.9622413    2.1390861    2.1849890 
C    -0.0547315   -0.1604414   -4.1044106 
C    -2.9612397   -2.5438663   -0.8289633 
C     0.1656044    3.1198229    3.3103968 
C    -1.8490369   -0.0240373    2.1398362 
C    -0.9983667   -2.3703130   -3.7178892 
C    -0.7913209   -2.7441453    0.2440947 
C     1.9885584    4.9634838    2.2277531 
C    -4.0073843    1.5783401    2.9305239 
C     0.1727549   -0.4897042   -5.4468979 
C    -3.4041780   -3.6756670   -0.1295436 
C     0.8478381    4.0139679    4.1481997 
C    -2.8982850   -0.5841609    2.8813778 
C    -0.7521070   -2.7005156   -5.0582253 
C    -1.2331215   -3.8760446    0.9401236 
C     1.7477079    4.9440174    3.6104419 
C    -3.9808822    0.2159638    3.2729164 
C    -0.1797674   -1.7603886   -5.9270435 
C    -2.5437429   -4.3425486    0.7556502 
H    -0.2041335    2.3160256   -2.1485432 
H    -1.2391601    3.6843381   -2.5670380 
H    -3.2807933    2.3829712   -2.3723752 
H    -2.1603412    1.6110962   -3.4960147 
H    -2.2949860    3.4011647   -0.1558840 
H    -0.7011708    4.1423989   -0.3366305 
H    -2.8373798    0.7013539   -0.6138795 
H    -3.3079768   -0.0695250   -2.1454548 
H     1.5268848    4.0820449    0.3099556 
H    -2.9900668    3.2061606    1.9382423 
H     0.2566837    0.8205006   -3.7281267 
H    -3.6483127   -2.0428282   -1.5175959 
H    -0.5359492    2.3993564    3.7412699 
H    -1.0042020   -0.6460037    1.8311931 
H    -1.4410108   -3.1141111   -3.0485162 
H     0.2234135   -2.3631558    0.3990253 
H     2.7023014    5.6768855    1.8027394 
H    -4.8460089    2.2073878    3.2463915 
H     0.6361688    0.2429998   -6.1157868 
H    -4.4269116   -4.0371244   -0.2779786 
H     0.6724330    3.9794469    5.2281475 
H    -2.8685839   -1.6468170    3.1426139 
H    -1.0083257   -3.7006300   -5.4225811 
H    -0.5559003   -4.3915153    1.6291624 
H     2.2706734    5.6460563    4.2678548 
H    -4.8048831   -0.2181592    3.8486076 
H     0.0030882   -2.0207349   -6.9746673 
H    -2.8947182   -5.2249116    1.3007104 
