87
Energy =
C     2.0380435    0.3705247    1.9279343 
C     2.5201956   -0.4458443    0.8660750 
C     2.7781126    0.0833823   -0.4217991 
H     2.5523186   -1.5321500    1.0166883 
Pd    0.6072839    0.4165160    0.2012377 
P    -0.4226205    0.2424561   -1.9028884 
P    -1.3219644    1.0432377    1.3808717 
H     2.3132340    1.4360942    1.9165311 
H     2.9610291    1.1666904   -0.4886135 
C     1.1460663   -1.2363456    5.8197976 
C     0.8451124   -1.9865995    4.6709050 
C     1.1143742   -1.4655634    3.4015343 
C     1.6911690   -0.1828105    3.2530087 
C     1.9674560    0.5682927    4.4150549 
C     1.7040230    0.0430644    5.6861257 
H     0.9375866   -1.6452887    6.8137555 
H     0.3954200   -2.9804553    4.7661782 
H     0.8598957   -2.0530409    2.5123758 
H     2.4025698    1.5684422    4.3186295 
H     1.9308251    0.6393969    6.5755876 
C     4.2449686   -2.0994015   -3.8286854 
C     3.8459180   -2.7974246   -2.6771266 
C     3.3459987   -2.1062254   -1.5689932 
C     3.2571092   -0.6940415   -1.5771731 
C     3.6735108   -0.0044717   -2.7404903 
C     4.1522305   -0.6986259   -3.8572798 
H     4.6311680   -2.6439868   -4.6964081 
H     3.9151475   -3.8895007   -2.6462319 
H     3.0237524   -2.6748862   -0.6913571 
H     3.6179198    1.0880357   -2.7665175 
H     4.4636874   -0.1437680   -4.7481131 
C    -1.8353783    3.0124920   -0.7199518 
C    -2.4368705    2.2778234   -1.9285111 
C    -2.2805525    2.4984230    0.6615043 
C    -2.2149748    0.7572358   -1.9737105 
C    -1.1080528    1.5800271    3.1274077 
C    -2.4951942   -0.3671638    1.4806385 
C     0.3448764    1.2413782   -3.2370529 
C    -0.4717763   -1.4850569   -2.5163167 
C    -0.4576632    2.8088837    3.3750686 
C    -3.8383689   -0.1945144    1.8800412 
C     0.0815414    0.9770835   -4.5975128 
C    -1.5403380   -2.3332233   -2.1481172 
C    -1.5530612    0.8033437    4.2133899 
C    -2.0232260   -1.6634482    1.1929795 
C     1.1480853    2.3456126   -2.8905531 
C     0.5752795   -2.0007785   -3.3085469 
C    -0.3041869    3.2759148    4.6861721 
C    -4.6923713   -1.3010550    1.9731135 
C     0.6312959    1.7983245   -5.5908605 
C    -1.5587356   -3.6692964   -2.5677777 
C    -1.3887068    1.2732534    5.5247051 
C    -2.8792519   -2.7699641    1.2924637 
C     1.6873368    3.1722194   -3.8861278 
C     0.5446993   -3.3372965   -3.7303818 
C    -0.7788681    2.5120084    5.7638958 
C    -4.2147761   -2.5891068    1.6792599 
C     1.4336729    2.8951774   -5.2376236 
C    -0.5165275   -4.1752131   -3.3604530 
H    -0.7296776    2.9995434   -0.7759534 
H    -2.1270611    4.0755942   -0.7938743 
H    -3.5290616    2.4536754   -1.9499103 
H    -2.0316151    2.7296104   -2.8519189 
H    -3.3507901    2.2244568    0.6567118 
H    -2.1688308    3.3003089    1.4092269 
H    -2.7237968    0.2552169   -1.1299094 
H    -2.6368635    0.3375035   -2.9042948 
H    -0.0725742    3.4098493    2.5417832 
H    -4.2185278    0.8007244    2.1351309 
H    -0.5440728    0.1239301   -4.8813984 
H    -2.3648334   -1.9591405   -1.5347435 
H    -2.0304918   -0.1653789    4.0407169 
H    -0.9820983   -1.7980668    0.8755952 
H     1.3566111    2.5516395   -1.8339787 
H     1.4075955   -1.3585283   -3.6106554 
H     0.1883781    4.2370642    4.8664089 
H    -5.7332853   -1.1587623    2.2811855 
H     0.4303135    1.5826112   -6.6453130 
H    -2.3959660   -4.3140187   -2.2801843 
H    -1.7392318    0.6618203    6.3622118 
H    -2.5014213   -3.7707473    1.0591728 
H     2.3099324    4.0284776   -3.6067133 
H     1.3615967   -3.7198449   -4.3505159 
H    -0.6612497    2.8775878    6.7890692 
H    -4.8860978   -3.4507952    1.7544607 
H     1.8594167    3.5351603   -6.0173333 
H    -0.5357449   -5.2182778   -3.6927332 
