87
Energy =
C     2.6269019    0.6144532    1.0511492 
C     2.6911910   -0.6327656    0.3555511 
C     2.6558953   -0.6932345   -1.0559331 
H     2.6185402   -1.5609594    0.9376525 
Pd    0.8087137    0.3660888   -0.1949004 
P    -0.8779510   -0.4564118   -1.6179839 
P    -0.5695414    1.9524747    0.8512087 
H     3.0771082    1.4926112    0.5643833 
H     2.9302770    0.2235260   -1.6011973 
C     2.3925317    0.7993083    5.3469403 
C     1.6985440   -0.2047967    4.6515616 
C     1.7625605   -0.2639376    3.2560174 
C     2.5227546    0.6786493    2.5245752 
C     3.1998390    1.6915673    3.2353180 
C     3.1394804    1.7473934    4.6334571 
H     2.3430645    0.8459410    6.4396835 
H     1.1013584   -0.9404081    5.2005902 
H     1.2005818   -1.0384104    2.7207321 
H     3.7848993    2.4358080    2.6853025 
H     3.6749625    2.5392592    5.1667665 
C     2.6908566   -4.1974055   -3.5473989 
C     2.8834295   -2.9211293   -4.0952276 
C     2.8709787   -1.7941281   -3.2667315 
C     2.6661182   -1.9159763   -1.8731460 
C     2.4928208   -3.2126697   -1.3337228 
C     2.5004010   -4.3381154   -2.1623006 
H     2.6976529   -5.0814684   -4.1931269 
H     3.0412352   -2.8010426   -5.1713611 
H     3.0223620   -0.8006838   -3.7002538 
H     2.3627858   -3.3500477   -0.2553879 
H     2.3646360   -5.3331378   -1.7261817 
C    -1.0389175    2.9037833   -1.8613091 
C    -2.1097763    2.0063107   -2.5028628 
C    -1.2348282    3.2231606   -0.3668733 
C    -2.3673423    0.6421454   -1.8389250 
C     0.1645740    3.0161608    2.1583998 
C    -2.0222346    1.1717917    1.6594129 
C    -0.4077679   -0.8971388   -3.3365568 
C    -1.5841104   -1.9861387   -0.8795341 
C     1.1226747    3.9859248    1.7901971 
C    -3.1836101    1.9043964    1.9869357 
C    -0.7090811   -2.1525239   -3.8991155 
C    -2.9202288   -2.3888335   -1.0794904 
C    -0.1811593    2.8674783    3.5148642 
C    -1.9633883   -0.2006743    1.9705427 
C     0.2606191    0.0698010   -4.1182633 
C    -0.7489651   -2.7729925   -0.0599336 
C     1.6831386    4.8287300    2.7578021 
C    -4.2730453    1.2606936    2.5882933 
C    -0.3696919   -2.4229036   -5.2323995 
C    -3.4071274   -3.5508930   -0.4635204 
C     0.3927450    3.7070471    4.4805568 
C    -3.0552636   -0.8428926    2.5703365 
C     0.5794090   -0.1988884   -5.4556961 
C    -1.2342963   -3.9360282    0.5499603 
C     1.3122964    4.6957516    4.1049741 
C    -4.2135621   -0.1136344    2.8736597 
C     0.2616327   -1.4458548   -6.0156753 
C    -2.5681721   -4.3254149    0.3514865 
H    -0.0302796    2.4656825   -2.0037606 
H    -1.0329972    3.8609764   -2.4132227 
H    -3.0734729    2.5500813   -2.5037326 
H    -1.8501794    1.8509763   -3.5656566 
H    -2.2997836    3.3993716   -0.1328836 
H    -0.7039660    4.1558545   -0.1157378 
H    -2.7929366    0.7603405   -0.8248165 
H    -3.1065824    0.0869959   -2.4416775 
H     1.4334448    4.0892279    0.7432412 
H    -3.2398471    2.9796464    1.7850374 
H    -1.2024881   -2.9213935   -3.2963931 
H    -3.5930939   -1.8033077   -1.7123930 
H    -0.9013881    2.1021883    3.8190567 
H    -1.0602865   -0.7684531    1.7283458 
H     0.5450886    1.0316755   -3.6765879 
H     0.2845190   -2.4547701    0.1068771 
H     2.4134404    5.5881141    2.4595723 
H    -5.1718054    1.8345083    2.8367603 
H    -0.6012414   -3.4040144   -5.6595599 
H    -4.4479457   -3.8510565   -0.6225353 
H     0.1160460    3.5846237    5.5325685 
H    -2.9992598   -1.9142532    2.7882000 
H     1.0871688    0.5619882   -6.0575762 
H    -0.5728466   -4.5361820    1.1835517 
H     1.7493199    5.3554159    4.8615320 
H    -5.0712429   -0.6125084    3.3366873 
H     0.5164739   -1.6590462   -7.0589202 
H    -2.9533675   -5.2313976    0.8307213 
