87
Energy =
C     1.9959636    0.3527216    1.8734361 
C     2.3954781   -0.5549669    0.8618774 
C     2.6425056   -0.1055821   -0.4664011 
H     2.3852838   -1.6314225    1.0757600 
Pd    0.5298883    0.3748884    0.1388546 
P    -0.2678747    0.7773720   -2.0403460 
P    -1.4108952    0.6491283    1.4233381 
H     2.2522207    1.4126673    1.7176982 
H     2.9751559    0.9354939   -0.5921563 
C     1.2539169   -0.6080980    5.9963225 
C     1.6869417    0.6721916    5.6223681 
C     1.8996186    0.9747455    4.2727176 
C     1.7046697   -0.0035387    3.2722082 
C     1.2626467   -1.2886290    3.6628250 
C     1.0355833   -1.5849897    5.0100027 
H     1.0815710   -0.8449254    7.0512914 
H     1.8504502    1.4421540    6.3828334 
H     2.2249063    1.9800990    3.9851369 
H     1.0838909   -2.0607577    2.9088702 
H     0.6883699   -2.5838449    5.2938692 
C     3.6395057   -2.6704434   -3.7746884 
C     2.9208600   -3.1908425   -2.6843963 
C     2.5890049   -2.3688562   -1.6043511 
C     2.9667038   -1.0051938   -1.5886284 
C     3.6869046   -0.4964995   -2.6916823 
C     4.0225203   -1.3219386   -3.7721040 
H     3.8987314   -3.3162467   -4.6198713 
H     2.6162869   -4.2426102   -2.6811085 
H     2.0191110   -2.7884108   -0.7677985 
H     3.9825609    0.5581425   -2.6981517 
H     4.5825266   -0.9067347   -4.6163332 
C    -3.2957053    0.7257442   -0.6800381 
C    -3.0734812    1.5339965   -1.9677383 
C    -2.8791433    1.4596302    0.6167824 
C    -1.6403888    2.0452198   -2.1993810 
C    -1.2192117    1.6197458    2.9675666 
C    -2.0764946   -1.0008499    1.8839948 
C     1.0427231    1.5746665   -3.0575001 
C    -0.8685282   -0.6732062   -2.9792445 
C    -0.7444708    2.9430396    2.8332116 
C    -3.3067466   -1.1429714    2.5614324 
C     1.6690063    2.7195598   -2.5169277 
C    -1.4665242   -0.5363284   -4.2518291 
C    -1.5129175    1.1170089    4.2484248 
C    -1.3660197   -2.1569315    1.5052076 
C     1.4466272    1.0982484   -4.3182883 
C    -0.7575365   -1.9524033   -2.4022617 
C    -0.6022856    3.7613766    3.9604885 
C    -3.7997661   -2.4184067    2.8673792 
C     2.6675582    3.3875818   -3.2364267 
C    -1.9340056   -1.6678625   -4.9327481 
C    -1.3658267    1.9407932    5.3741542 
C    -1.8622762   -3.4322338    1.8076520 
C     2.4448046    1.7742693   -5.0376011 
C    -1.2255772   -3.0822778   -3.0864489 
C    -0.9204653    3.2621880    5.2339142 
C    -3.0787764   -3.5635577    2.4928583 
C     3.0547148    2.9168518   -4.5025908 
C    -1.8121950   -2.9408998   -4.3521409 
H    -4.3627230    0.4530088   -0.6155866 
H    -2.7556472   -0.2394622   -0.7606256 
H    -3.3747995    0.9070470   -2.8252631 
H    -3.7444829    2.4140020   -1.9748079 
H    -3.6921828    1.4792599    1.3625563 
H    -2.6052369    2.5143734    0.4353372 
H    -1.5542566    2.4873985   -3.2075125 
H    -1.3735653    2.8468809   -1.4862885 
H    -0.4826998    3.3339137    1.8417057 
H    -3.8832756   -0.2598874    2.8577774 
H     1.3780913    3.0860997   -1.5240182 
H    -1.5654125    0.4515768   -4.7153512 
H    -1.8350880    0.0797105    4.3756595 
H    -0.4186594   -2.0436600    0.9634079 
H     1.0025171    0.1897793   -4.7347901 
H    -0.3047951   -2.0530086   -1.4113814 
H    -0.2420879    4.7890844    3.8461631 
H    -4.7526181   -2.5188279    3.3971925 
H     3.1450074    4.2758200   -2.8098917 
H    -2.3963047   -1.5559493   -5.9188503 
H    -1.5904415    1.5388251    6.3672902 
H    -1.3007074   -4.3226666    1.5063059 
H     2.7541930    1.3931111   -6.0162509 
H    -1.1330754   -4.0728372   -2.6294779 
H    -0.8096122    3.9011648    6.1160194 
H    -3.4698823   -4.5580659    2.7310196 
H     3.8352239    3.4385306   -5.0658145 
H    -2.1795778   -3.8222855   -4.8878187 
