87
Energy =
C     2.4267347    0.2176048    1.0132770 
C     2.1072511   -1.1535683    0.8275052 
C     1.9513470   -1.6964348   -0.4747388 
H     1.8471493   -1.7669616    1.6984313 
Pd    0.4784894   -0.0069402   -0.1260416 
P    -1.0685239   -0.6789948   -1.7535902 
P    -0.4662224    1.9900187    0.6435024 
H     2.9423744    0.7169160    0.1797074 
H     2.4539810   -1.1692565   -1.3002603 
C     3.0401925    2.1913851    4.7833265 
C     2.4033104    0.9393940    4.7519336 
C     2.1703986    0.2959143    3.5338779 
C     2.5854747    0.8843904    2.3163347 
C     3.2075690    2.1532916    2.3620467 
C     3.4330215    2.8004042    3.5828375 
H     3.2230229    2.6907648    5.7403158 
H     2.0799140    0.4656477    5.6839450 
H     1.6600771   -0.6721519    3.5326606 
H     3.5268416    2.6290186    1.4287237 
H     3.9255488    3.7781706    3.5964141 
C     0.9618128   -5.7712775   -1.4350877 
C     0.6954380   -5.2804760   -0.1451957 
C     1.0083940   -3.9593650    0.1843462 
C     1.5930294   -3.0941968   -0.7705024 
C     1.8599073   -3.6037705   -2.0611217 
C     1.5490807   -4.9289244   -2.3893923 
H     0.7161047   -6.8072719   -1.6899151 
H     0.2394473   -5.9337972    0.6058086 
H     0.7899537   -3.5966860    1.1943035 
H     2.3159914   -2.9490986   -2.8114383 
H     1.7655076   -5.3021668   -3.3956554 
C    -3.1669352    1.2483345   -0.0542054 
C    -3.4710063    0.9046731   -1.5220229 
C    -2.2053431    2.4458785    0.1193350 
C    -2.2469710    0.6171953   -2.4097925 
C     0.4678907    3.5110981    0.2208279 
C    -0.6246129    1.8930771    2.4734665 
C    -0.1789282   -1.1711049   -3.2848146 
C    -2.1633922   -2.0594840   -1.2589643 
C     1.6060170    3.4084496   -0.6041723 
C    -1.2513199    0.7404802    2.9991245 
C    -0.3877783   -2.3897558   -3.9568026 
C    -2.0247291   -2.5981221    0.0346660 
C     0.0301632    4.7905374    0.6300160 
C    -0.1725398    2.8923885    3.3549267 
C     0.7828132   -0.2624451   -3.7802129 
C    -3.1755412   -2.5551417   -2.1104351 
C     2.3139742    4.5556005   -0.9892021 
C    -1.4629593    0.6149292    4.3777964 
C     0.3391799   -2.6825281   -5.1214044 
C    -2.8686251   -3.6293827    0.4687504 
C     0.7425767    5.9350365    0.2477509 
C    -0.3789797    2.7561165    4.7353179 
C     1.5079767   -0.5613310   -4.9402750 
C    -4.0159290   -3.5877792   -1.6743446 
C     1.8873542    5.8194893   -0.5564827 
C    -1.0330380    1.6277930    5.2487927 
C     1.2843196   -1.7732024   -5.6153285 
C    -3.8612892   -4.1275403   -0.3870195 
H    -4.1198386    1.4701273    0.4559476 
H    -2.7638860    0.3500495    0.4519400 
H    -4.1448420    0.0299379   -1.5441906 
H    -4.0299749    1.7398118   -1.9855805 
H    -2.5769416    3.1501288    0.8830580 
H    -2.1025623    3.0208574   -0.8186801 
H    -2.5730383    0.2848565   -3.4112888 
H    -1.6303687    1.5216670   -2.5658012 
H     1.9298025    2.4208782   -0.9516889 
H    -1.5677139   -0.0660441    2.3269764 
H    -1.0951749   -3.1251538   -3.5637317 
H    -1.2480686   -2.1987159    0.6972088 
H    -0.8673842    4.8997644    1.2479536 
H     0.3632263    3.7663096    2.9754825 
H     0.9687767    0.6805286   -3.2498179 
H    -3.3124721   -2.1353808   -3.1131628 
H     3.1967280    4.4620471   -1.6301542 
H    -1.9586870   -0.2779948    4.7727592 
H     0.1722429   -3.6351393   -5.6347238 
H    -2.7495396   -4.0448211    1.4746857 
H     0.3993761    6.9216620    0.5756587 
H    -0.0138964    3.5353786    5.4119322 
H     2.2493790    0.1502656   -5.3182556 
H    -4.7970036   -3.9699068   -2.3396344 
H     2.4401482    6.7165338   -0.8537551 
H    -1.1940929    1.5295359    6.3272777 
H     1.8519509   -2.0081586   -6.5215084 
H    -4.5211117   -4.9338664   -0.0505561 
