87
Energy =
C     2.0234170    0.5487849    2.0190370 
C     2.7498988   -0.0759195    0.9782930 
C     2.8594222    0.4997673   -0.3216598 
H     3.0928750   -1.1090039    1.1202223 
Pd    0.7191322    0.1743770    0.1707661 
P    -0.0647220    0.0307135   -2.0329707 
P    -1.4013844   -0.2318244    1.1148750 
H     1.8391567    1.6312478    1.9314032 
H     2.8584640    1.5974574   -0.3981850 
C     1.4890416   -1.0521097    5.9769634 
C     0.7215270    0.0376310    5.5378212 
C     0.9083634    0.5541544    4.2524619 
C     1.8535115   -0.0165644    3.3694773 
C     2.6219773   -1.1118757    3.8279608 
C     2.4444648   -1.6189481    5.1194517 
H     1.3478590   -1.4534715    6.9855504 
H    -0.0276013    0.4842903    6.1989481 
H     0.2995666    1.4001641    3.9168659 
H     3.3872979   -1.5553548    3.1829961 
H     3.0599609   -2.4574312    5.4614679 
C     4.7273208   -1.5565201   -3.6138703 
C     3.9663803   -2.2798766   -2.6802305 
C     3.3522571   -1.6185932   -1.6113448 
C     3.4877170   -0.2195464   -1.4515567 
C     4.2431683    0.4951809   -2.4044715 
C     4.8606327   -0.1679358   -3.4725339 
H     5.2074944   -2.0738954   -4.4507220 
H     3.8512197   -3.3637165   -2.7882007 
H     2.7430045   -2.1893668   -0.9001202 
H     4.3485748    1.5802033   -2.3035448 
H     5.4432626    0.4051318   -4.2006374 
C    -2.0142151   -2.5805539   -0.4662407 
C    -0.6281237   -2.6453000   -1.1318526 
C    -2.5363911   -1.2084577    0.0029190 
C    -0.3762299   -1.7729547   -2.3809776 
C    -2.3452058    1.2988956    1.4893369 
C    -1.4173052   -1.2190205    2.6613373 
C    -1.6091656    0.9785611   -2.3614985 
C     1.0010844    0.6473674   -3.4008834 
C    -1.6186560    2.4460929    1.8734778 
C    -0.4717841   -2.2547678    2.8043142 
C    -2.5383851    0.5988272   -3.3521103 
C     1.3546998    2.0134476   -3.3556560 
C    -3.7489725    1.3806768    1.3898066 
C    -2.3718040   -1.0029702    3.6753343 
C    -1.8288516    2.1582634   -1.6236353 
C     1.4347306   -0.1401187   -4.4821040 
C    -2.2792425    3.6476129    2.1589045 
C    -0.4960384   -3.0791014    3.9358784 
C    -3.6837514    1.3753076   -3.5724193 
C     2.1165938    2.5827923   -4.3816751 
C    -4.4083754    2.5856171    1.6728200 
C    -2.3875740   -1.8278468    4.8082222 
C    -2.9720142    2.9368690   -1.8517012 
C     2.2032474    0.4343664   -5.5061549 
C    -3.6776503    3.7192047    2.0576748 
C    -1.4543359   -2.8670940    4.9382392 
C    -3.9048312    2.5410801   -2.8202395 
C     2.5414502    1.7929812   -5.4621125 
H    -2.7684721   -2.9851624   -1.1673809 
H    -1.9999777   -3.2706756    0.3972424 
H     0.1572983   -2.4089987   -0.3854388 
H    -0.4575123   -3.6963686   -1.4277260 
H    -3.4773244   -1.3641393    0.5592433 
H    -2.7659804   -0.5484645   -0.8515212 
H     0.5632823   -2.1182568   -2.8462125 
H    -1.1740328   -1.8890741   -3.1358218 
H    -0.5252063    2.3988949    1.9262588 
H     0.2972477   -2.4007839    2.0364021 
H    -2.3741513   -0.2987776   -3.9577089 
H     1.0245051    2.6360612   -2.5156726 
H    -4.3397311    0.5125042    1.0843259 
H    -3.0977067   -0.1881583    3.5850074 
H    -1.1082338    2.4612835   -0.8567662 
H     1.1856255   -1.2031894   -4.5424050 
H    -1.7020960    4.5300391    2.4537645 
H     0.2462995   -3.8759293    4.0436731 
H    -4.4046081    1.0719284   -4.3387146 
H     2.3795878    3.6447881   -4.3384887 
H    -5.4988150    2.6373576    1.5890729 
H    -3.1303978   -1.6548321    5.5938854 
H    -3.1356960    3.8426847   -1.2594950 
H     2.5385464   -0.1897519   -6.3407045 
H    -4.1963166    4.6584158    2.2758289 
H    -1.4668780   -3.5067069    5.8267052 
H    -4.8034111    3.1416160   -2.9951860 
H     3.1379913    2.2367682   -6.2656846 
