87
Energy =
C     2.6201266    0.7969031    0.6988358 
C     2.6314914   -0.5531587    0.2469600 
C     2.4253808   -0.8855349   -1.1138604 
H     2.6565813   -1.3530743    0.9976356 
Pd    0.6589423    0.2831245   -0.2572468 
P    -1.0859605   -0.7129844   -1.4745833 
P    -0.6552025    1.9249440    0.7833516 
H     2.9323025    1.5758442   -0.0134093 
H     2.6287245   -0.0988320   -1.8563507 
C     3.1416979    1.8050072    4.8506148 
C     2.3830305    0.6766696    4.4975982 
C     2.1923526    0.3520761    3.1509071 
C     2.7568538    1.1483881    2.1274927 
C     3.4971535    2.2913643    2.4963422 
C     3.6936801    2.6117689    3.8453299 
H     3.2933361    2.0576593    5.9050612 
H     1.9356635    0.0500584    5.2762799 
H     1.5840313   -0.5199897    2.8867793 
H     3.9302316    2.9268376    1.7169153 
H     4.2765106    3.4994041    4.1112060 
C     2.4025683   -4.8458151   -2.7981314 
C     2.4292000   -4.6856642   -1.4030444 
C     2.4152929   -3.4066868   -0.8377167 
C     2.4002506   -2.2537101   -1.6578389 
C     2.3860846   -2.4313793   -3.0615393 
C     2.3765831   -3.7118543   -3.6258465 
H     2.4080944   -5.8486438   -3.2373958 
H     2.4509422   -5.5643027   -0.7504211 
H     2.4173315   -3.3090786    0.2521451 
H     2.3796111   -1.5533619   -3.7144217 
H     2.3595722   -3.8245724   -4.7146750 
C    -1.7975224    2.5188652   -1.8425196 
C    -2.8426871    1.4398059   -2.1674123 
C    -1.7316783    2.9591508   -0.3683809 
C    -2.7430871    0.1366979   -1.3577587 
C     0.2268937    3.2341791    1.7276400 
C    -1.7844565    1.1581002    2.0128457 
C    -0.8118795   -0.8308885   -3.2851765 
C    -1.4586072   -2.4138133   -0.8990949 
C     0.9911721    4.1780978    1.0070482 
C    -2.8600199    1.8726372    2.5842172 
C    -1.5704677   -1.7087718   -4.0876078 
C    -2.3710224   -2.6170515    0.1605359 
C     0.1792845    3.3117955    3.1320045 
C    -1.5411550   -0.1671137    2.4254906 
C     0.1181994    0.0336190   -3.8953211 
C    -0.8001868   -3.5264603   -1.4636878 
C     1.6527149    5.2130732    1.6792112 
C    -3.6818297    1.2613528    3.5398751 
C    -1.3836018   -1.7282998   -5.4761740 
C    -2.6181349   -3.9088308    0.6420611 
C     0.8507627    4.3465943    3.7996321 
C    -2.3633327   -0.7748664    3.3855983 
C     0.2947399    0.0198446   -5.2859782 
C    -1.0590483   -4.8164329   -0.9800747 
C     1.5753049    5.3044719    3.0778097 
C    -3.4354966   -0.0622766    3.9410018 
C    -0.4524998   -0.8656934   -6.0766643 
C    -1.9630198   -5.0123169    0.0733536 
H    -0.7928018    2.1898344   -2.1714434 
H    -2.0350533    3.4102664   -2.4504890 
H    -3.8539528    1.8564122   -2.0001151 
H    -2.7795451    1.2018541   -3.2446805 
H    -2.7420376    3.0102541    0.0755502 
H    -1.3113156    3.9758002   -0.3028649 
H    -2.9315212    0.3200416   -0.2835726 
H    -3.5035492   -0.5860206   -1.7032031 
H     1.0674847    4.1111453   -0.0854248 
H    -3.0503185    2.9127719    2.2977824 
H    -2.2993166   -2.3844413   -3.6270315 
H    -2.8959627   -1.7726711    0.6157862 
H    -0.3815032    2.5698337    3.7075000 
H    -0.7105875   -0.7259344    1.9773819 
H     0.7114611    0.7146680   -3.2736526 
H    -0.0972886   -3.3914506   -2.2909537 
H     2.2305649    5.9486583    1.1100052 
H    -4.5147613    1.8214352    3.9771473 
H    -1.9695023   -2.4180718   -6.0924098 
H    -3.3324713   -4.0526217    1.4596594 
H     0.8067170    4.3983741    4.8921150 
H    -2.1678498   -1.8078733    3.6911998 
H     1.0195098    0.6961303   -5.7509773 
H    -0.5445316   -5.6694389   -1.4338119 
H     2.0904269    6.1148025    3.6036563 
H    -4.0805615   -0.5354401    4.6885603 
H    -0.3114511   -0.8832404   -7.1623033 
H    -2.1620791   -6.0219542    0.4471418 
