87
Energy =
C     2.3098454    0.4055714    1.1122382 
C     2.0985698   -0.9922925    1.0160396 
C     2.0103760   -1.6237645   -0.2579122 
H     1.8689683   -1.5686787    1.9202005 
Pd    0.3942122   -0.0756661   -0.0308336 
P    -1.0172006   -1.0070048   -1.6461619 
P    -0.7995291    1.8104425    0.6869756 
H     2.7601720    0.8943504    0.2349300 
H     2.5450992   -1.1345027   -1.0845853 
C     2.7850306    2.7108055    4.7071303 
C     2.3173870    1.3883975    4.7896774 
C     2.1281553    0.6319661    3.6303627 
C     2.4183414    1.1788574    2.3585707 
C     2.8698384    2.5174283    2.2896226 
C     3.0516926    3.2760858    3.4517440 
H     2.9355583    3.2978343    5.6189605 
H     2.0943573    0.9463590    5.7656757 
H     1.7557792   -0.3930872    3.7181457 
H     3.0893515    2.9604698    1.3121793 
H     3.4115891    4.3074085    3.3769571 
C     1.4494935   -5.8405200   -0.8783274 
C     1.0045291   -5.2505837    0.3168919 
C     1.1472438   -3.8755824    0.5207508 
C     1.7554297   -3.0605587   -0.4626369 
C     2.1653016   -3.6610545   -1.6748067 
C     2.0187333   -5.0390352   -1.8784004 
H     1.3412503   -6.9191362   -1.0317691 
H     0.5352721   -5.8668910    1.0901340 
H     0.7762939   -3.4302682    1.4497478 
H     2.6188776   -3.0392834   -2.4548655 
H     2.3580475   -5.4886319   -2.8173498 
C    -2.9716869    2.3147844   -1.1620549 
C    -2.3449161    1.4155980   -2.2418317 
C    -2.6214421    1.9460785    0.2894667 
C    -2.5974846   -0.0948384   -2.0202978 
C    -0.1221310    3.4173276    0.1247697 
C    -0.8717951    1.8147782    2.5235796 
C    -0.2314989   -1.0927151   -3.3042244 
C    -1.5945481   -2.6855222   -1.1900796 
C    -0.7317997    4.6433948    0.4710836 
C    -0.5146197    2.9127049    3.3266668 
C    -0.8845414   -1.7071539   -4.3956532 
C    -2.3246447   -2.7904433    0.0157998 
C     0.9969266    3.4246013   -0.7316366 
C    -1.3430404    0.6315002    3.1350140 
C     1.0107808   -0.4629744   -3.5166490 
C    -1.3218166   -3.8486381   -1.9333905 
C    -0.2077741    5.8509010   -0.0092542 
C    -0.6596863    2.8364285    4.7196437 
C    -0.2838588   -1.7194831   -5.6610866 
C    -2.8044437   -4.0318394    0.4487257 
C     1.5170272    4.6337854   -1.2138310 
C    -1.4921004    0.5643539    4.5257441 
C     1.6064364   -0.4692198   -4.7860538 
C    -1.8027670   -5.0901642   -1.4928928 
C     0.9186305    5.8481820   -0.8474328 
C    -1.1568949    1.6717323    5.3203972 
C     0.9636123   -1.1055190   -5.8573507 
C    -2.5486471   -5.1850329   -0.3104246 
H    -2.6693500    3.3602991   -1.3523303 
H    -4.0740762    2.2873900   -1.2536405 
H    -2.7401031    1.7156429   -3.2269439 
H    -1.2544774    1.6134357   -2.2906137 
H    -3.0559845    0.9727816    0.5834546 
H    -3.0441268    2.6915744    0.9862021 
H    -3.2895463   -0.2853674   -1.1813863 
H    -3.0457783   -0.5768993   -2.9056612 
H    -1.6166215    4.6606234    1.1167298 
H    -0.1042323    3.8200952    2.8753923 
H    -1.8627688   -2.1817840   -4.2612577 
H    -2.5153010   -1.8952246    0.6212552 
H     1.4516766    2.4719164   -1.0272448 
H    -1.5877241   -0.2423312    2.5178138 
H     1.5036815    0.0470766   -2.6812206 
H    -0.7188936   -3.7967094   -2.8435417 
H    -0.6832337    6.7972778    0.2682303 
H    -0.3712840    3.6930346    5.3372033 
H    -0.7940406   -2.2064621   -6.4985455 
H    -3.3764681   -4.1006015    1.3798490 
H     2.3864212    4.6272997   -1.8793141 
H    -1.8662111   -0.3540618    4.9900229 
H     2.5708935    0.0261667   -4.9381978 
H    -1.5804601   -5.9890221   -2.0764847 
H     1.3235458    6.7938562   -1.2221227 
H    -1.2709166    1.6208653    6.4081048 
H     1.4286096   -1.1157018   -6.8484798 
H    -2.9225727   -6.1572127    0.0266950 
