87
Energy =
C     2.2742813    0.3544974    1.5494986 
C     2.3023482   -0.9917066    1.0884243 
C     2.2901287   -1.2944335   -0.2950207 
H     2.2146171   -1.8086755    1.8156039 
Pd    0.4514887   -0.0820357    0.2973453 
P    -0.9660685   -0.8682858   -1.4058281 
P    -0.9033546    1.7319722    0.9252742 
H     2.6773878    1.1208974    0.8703494 
H     2.6347358   -0.5059132   -0.9819250 
C     2.5098414    1.4444226    5.7008739 
C     1.9432392    0.2106032    5.3400496 
C     1.8233832   -0.1413920    3.9922576 
C     2.2821887    0.7279951    2.9742310 
C     2.8194287    1.9788205    3.3522468 
C     2.9369749    2.3308488    4.7014045 
H     2.6071538    1.7165953    6.7568261 
H     1.5929806   -0.4793328    6.1149430 
H     1.3669651   -1.1015169    3.7268787 
H     3.1621581    2.6725141    2.5769537 
H     3.3630803    3.3016213    4.9733158 
C     2.4701261   -5.2277044   -2.0247113 
C     1.9386158   -5.0635571   -0.7335200 
C     1.8695989   -3.7929190   -0.1567989 
C     2.3187137   -2.6525012   -0.8630110 
C     2.8469973   -2.8329267   -2.1615485 
C     2.9307814   -4.1088099   -2.7327660 
H     2.5269231   -6.2252931   -2.4721347 
H     1.5753667   -5.9327202   -0.1757332 
H     1.4531253   -3.6850485    0.8491919 
H     3.1965774   -1.9609245   -2.7242718 
H     3.3510253   -4.2269142   -3.7368533 
C    -3.2490554   -0.0105665    0.7872105 
C    -3.6365878   -0.0911289   -0.6976783 
C    -2.6966486    1.3312884    1.2947439 
C    -2.5101872    0.1346407   -1.7221852 
C    -0.8653940    2.9458796   -0.4609413 
C    -0.4523025    2.7554147    2.3850531 
C    -0.1681499   -0.8822099   -3.0580624 
C    -1.6104847   -2.5610844   -1.1233974 
C    -1.9208421    3.8425747   -0.7265188 
C    -0.6186958    2.2069519    3.6756200 
C     0.2392289   -2.0749718   -3.6872548 
C    -2.3919714   -3.2182716   -2.0982666 
C     0.3035120    3.0123869   -1.2487182 
C     0.0512207    4.0647838    2.2519629 
C     0.0762342    0.3553818   -3.6946690 
C    -1.3787574   -3.1884389    0.1151194 
C    -1.8146798    4.7695926   -1.7725479 
C    -0.3380026    2.9758712    4.8102134 
C     0.8621863   -2.0279486   -4.9439854 
C    -2.9154373   -4.4907426   -1.8360180 
C     0.4126217    3.9488807   -2.2866602 
C     0.3400864    4.8265273    3.3941605 
C     0.7041473    0.3938992   -4.9451648 
C    -1.9070044   -4.4603625    0.3762278 
C    -0.6499576    4.8245256   -2.5541164 
C     0.1348746    4.2900557    4.6723030 
C     1.0962515   -0.7990784   -5.5749321 
C    -2.6717500   -5.1134131   -0.6007775 
H    -4.1562682   -0.2319841    1.3783516 
H    -2.5293297   -0.8145940    1.0333248 
H    -4.0777963   -1.0881886   -0.8754188 
H    -4.4361428    0.6440480   -0.9095543 
H    -2.7430974    1.3432563    2.3963596 
H    -3.3190522    2.1791647    0.9575281 
H    -2.8633975   -0.1190616   -2.7372764 
H    -2.1923339    1.1921348   -1.7507175 
H    -2.8296872    3.8297819   -0.1165198 
H    -0.9677265    1.1756934    3.8010189 
H     0.0762862   -3.0407461   -3.2008526 
H    -2.5858621   -2.7399529   -3.0647814 
H     1.1284523    2.3173591   -1.0487548 
H     0.1994057    4.5011468    1.2593623 
H    -0.2256801    1.2928472   -3.2163102 
H    -0.7831622   -2.6675312    0.8747229 
H    -2.6431651    5.4565994   -1.9732151 
H    -0.4760476    2.5415898    5.8049590 
H     1.1707641   -2.9620080   -5.4247218 
H    -3.5175727   -4.9977392   -2.5970100 
H     1.3257432    3.9883922   -2.8895324 
H     0.7166576    5.8483305    3.2799664 
H     0.8827613    1.3583227   -5.4323037 
H    -1.7198371   -4.9417026    1.3416715 
H    -0.5707206    5.5521221   -3.3683396 
H     0.3523652    4.8903019    5.5616143 
H     1.5822508   -0.7680844   -6.5555342 
H    -3.0830722   -6.1081125   -0.4003028 
