87
Energy =
C     2.1486023    0.0608547    1.7738054 
C     2.0059555   -1.2884997    1.3298657 
C     2.1401083   -1.6173628   -0.0387251 
H     1.6727172   -2.0556026    2.0409793 
Pd    0.4660917   -0.0898438    0.3154815 
P    -1.0338477   -0.7821576   -1.3634860 
P    -0.5381581    1.9989219    0.6999135 
H     2.8081810    0.7148106    1.1835157 
H     2.7007401   -0.9061756   -0.6653212 
C     1.8198832    1.1148947    5.9301269 
C     0.9686903    0.1352728    5.3919304 
C     1.0447903   -0.1920102    4.0343184 
C     1.9796352    0.4486438    3.1874280 
C     2.8056180    1.4534920    3.7351613 
C     2.7313527    1.7773555    5.0951552 
H     1.7643826    1.3664861    6.9942262 
H     0.2426712   -0.3734468    6.0348800 
H     0.3638560   -0.9441922    3.6185986 
H     3.5211666    1.9731605    3.0893325 
H     3.3868846    2.5530584    5.5036268 
C     1.8625728   -5.5349603   -1.7843319 
C     1.1423668   -5.2479131   -0.6109767 
C     1.2270336   -3.9821853   -0.0248629 
C     2.0147064   -2.9656233   -0.6131733 
C     2.7252998   -3.2655249   -1.7980605 
C     2.6629209   -4.5426575   -2.3687705 
H     1.8002091   -6.5299378   -2.2368359 
H     0.5121278   -6.0162659   -0.1517084 
H     0.6616682   -3.7765580    0.8878733 
H     3.3333042   -2.4870927   -2.2713676 
H     3.2310106   -4.7588689   -3.2792796 
C    -3.1337462    0.6783370    0.7649479 
C    -3.5562701    0.4090410   -0.6881739 
C    -2.3872135    2.0000906    1.0201923 
C    -2.4362656    0.3924857   -1.7431964 
C    -0.2624119    3.0350682   -0.7988567 
C     0.1133789    3.0634655    2.0512323 
C    -0.3026789   -1.0901954   -3.0167506 
C    -1.9055083   -2.3332026   -0.9073218 
C    -0.9594102    4.2462814   -0.9972397 
C    -0.3363490    2.8878707    3.3771760 
C    -0.1245890   -0.0137492   -3.9145249 
C    -2.6739134   -3.0457891   -1.8521568 
C     0.7077478    2.6376194   -1.7407450 
C     1.1010044    4.0343817    1.7833910 
C     0.1284544   -2.3795573   -3.3912574 
C    -1.8677457   -2.7777103    0.4285182 
C    -0.7035932    5.0285323   -2.1307491 
C     0.1517355    3.7068099    4.4026914 
C     0.4699974   -0.2280822   -5.1643594 
C    -3.3777870   -4.1927019   -1.4623348 
C     0.9671678    3.4265079   -2.8717296 
C     1.5919610    4.8450465    2.8168057 
C     0.7164772   -2.5862235   -4.6474978 
C    -2.5779450   -3.9220552    0.8173835 
C     0.2575918    4.6194038   -3.0700897 
C     1.1094449    4.6929400    4.1242415 
C     0.8910265   -1.5152233   -5.5347671 
C    -3.3300069   -4.6325661   -0.1294163 
H    -4.0513400    0.6890848    1.3805273 
H    -2.5254259   -0.1630506    1.1479552 
H    -4.0882753   -0.5588102   -0.7179700 
H    -4.2902564    1.1765853   -0.9990026 
H    -2.4904184    2.2799750    2.0809284 
H    -2.8292494    2.8280845    0.4378026 
H    -2.8484001    0.0991015   -2.7249491 
H    -1.9865811    1.3945366   -1.8672924 
H    -1.6928160    4.5916294   -0.2604020 
H    -1.0671090    2.1101160    3.6226417 
H    -0.4523131    0.9952018   -3.6462680 
H    -2.7147805   -2.7105848   -2.8943541 
H     1.2556235    1.6987025   -1.5868309 
H     1.4717538    4.1756601    0.7629840 
H    -0.0024144   -3.2256823   -2.7100385 
H    -1.2718638   -2.2200510    1.1625188 
H    -1.2514186    5.9648679   -2.2784313 
H    -0.2112929    3.5638416    5.4250005 
H     0.5962820    0.6127383   -5.8545622 
H    -3.9678546   -4.7444267   -2.2013793 
H     1.7207818    3.1039011   -3.5974948 
H     2.3460502    5.6068644    2.5932524 
H     1.0412273   -3.5936569   -4.9269580 
H    -2.5412046   -4.2603441    1.8581136 
H     0.4553859    5.2353610   -3.9533732 
H     1.4860731    5.3345275    4.9273559 
H     1.3493171   -1.6820841   -6.5149748 
H    -3.8825755   -5.5289860    0.1704688 
