87
Energy =
C     2.5821180    0.6294937    0.7542941 
C     2.4792629   -0.7817578    0.6470858 
C     2.3097888   -1.4066212   -0.6195307 
H     2.3836336   -1.3912226    1.5546172 
Pd    0.6256132    0.0187094   -0.2186320 
P    -0.9465119   -0.9363549   -1.6565679 
P    -0.6732096    1.7848415    0.5861696 
H     2.9285699    1.1648151   -0.1427659 
H     2.7179624   -0.8836866   -1.4982997 
C     3.2236314    2.8598832    4.3711720 
C     2.7878998    1.5262432    4.4481123 
C     2.5391236    0.7958859    3.2832538 
C     2.7381897    1.3801077    2.0103533 
C     3.1501143    2.7314966    1.9483561 
C     3.3924067    3.4638487    3.1167583 
H     3.4229382    3.4262806    5.2866756 
H     2.6362730    1.0551193    5.4242589 
H     2.1900956   -0.2379567    3.3666174 
H     3.2955477    3.2037661    0.9703983 
H     3.7235923    4.5051253    3.0469231 
C     1.8795067   -5.6594756   -1.1156400 
C     2.6273258   -4.9051185   -2.0309295 
C     2.7442722   -3.5185751   -1.8725101 
C     2.1304776   -2.8637166   -0.7841705 
C     1.3739256   -3.6344067    0.1278433 
C     1.2473442   -5.0172131   -0.0376015 
H     1.7831667   -6.7426727   -1.2429226 
H     3.1155108   -5.3961263   -2.8788508 
H     3.3194996   -2.9338187   -2.5978681 
H     0.8643724   -3.1401193    0.9621896 
H     0.6511443   -5.5975615    0.6743697 
C    -2.9764512    2.0939109   -1.1575480 
C    -3.1858412    0.9245307   -2.1313580 
C    -2.5161532    1.7395925    0.2738490 
C    -1.9418471    0.2420488   -2.7291589 
C    -0.1753809    3.4357859   -0.0366461 
C    -0.6319722    1.8712606    2.4209007 
C    -0.2206689   -2.0241769   -2.9486652 
C    -2.1941203   -1.9591622   -0.7883294 
C     0.8882963    3.5344275   -0.9549829 
C    -1.1183125    0.7533565    3.1347192 
C     0.6397519   -1.4314992   -3.8984606 
C    -3.3111487   -2.4963024   -1.4647329 
C    -0.8667601    4.6065846    0.3458393 
C    -0.1438086    2.9838323    3.1315452 
C    -0.4834071   -3.4047529   -3.0187128 
C    -2.0371474   -2.2087439    0.5890207 
C     1.2709799    4.7815623   -1.4697268 
C    -1.1414722    0.7626066    4.5346840 
C     1.1980377   -2.2046427   -4.9241637 
C    -4.2530931   -3.2632281   -0.7664270 
C    -0.4814121    5.8511671   -0.1683798 
C    -0.1695894    2.9860076    4.5335983 
C     0.0823489   -4.1737256   -4.0465547 
C    -2.9807740   -2.9769391    1.2856021 
C     0.5889944    5.9408348   -1.0731479 
C    -0.6713379    1.8829998    5.2374735 
C     0.9136500   -3.5772863   -5.0040493 
C    -4.0905877   -3.5025104    0.6079996 
H    -2.2957165    2.8428419   -1.6050116 
H    -3.9504715    2.6052382   -1.0585313 
H    -3.8394472    0.1658915   -1.6621907 
H    -3.7551934    1.3179126   -2.9935773 
H    -2.8663777    0.7350532    0.5746956 
H    -2.9478823    2.4514320    0.9992971 
H    -2.2442130   -0.3582391   -3.6056627 
H    -1.2211715    0.9953001   -3.0971587 
H     1.4108852    2.6240723   -1.2705900 
H    -1.4898843   -0.1241897    2.5942195 
H     0.8731292   -0.3612155   -3.8406221 
H    -3.4436330   -2.3241621   -2.5385373 
H    -1.7033111    4.5504648    1.0508793 
H     0.2701503    3.8438889    2.5985892 
H    -1.1172896   -3.8863290   -2.2686292 
H    -1.1639204   -1.7953507    1.1079416 
H     2.0992113    4.8467931   -2.1828440 
H    -1.5300256   -0.1051047    5.0780676 
H     1.8558895   -1.7347709   -5.6627883 
H    -5.1171615   -3.6765160   -1.2967527 
H    -1.0193702    6.7546402    0.1366871 
H     0.2170204    3.8548588    5.0755256 
H    -0.1231602   -5.2480289   -4.0887849 
H    -2.8485679   -3.1657302    2.3560423 
H     0.8862726    6.9156605   -1.4732281 
H    -0.6898014    1.8915901    6.3321295 
H     1.3500510   -4.1816115   -5.8058765 
H    -4.8303697   -4.1011408    1.1493645 
