87
Energy =
C     2.2217510    0.2651078    1.6994954 
C     2.2810557   -1.0441451    1.1347065 
C     2.4423755   -1.2367041   -0.2560191 
H     2.0739450   -1.9108448    1.7760941 
Pd    0.5632613   -0.0113318    0.2278480 
P    -0.8637484   -0.8538077   -1.4370003 
P    -0.7830277    1.7834255    0.8727433 
H     2.7710908    1.0649699    1.1804398 
H     2.8840447   -0.4049636   -0.8269142 
C     1.7384431    0.8207911    5.9381651 
C     1.0236077   -0.1957407    5.2830144 
C     1.1506077   -0.3636743    3.9003327 
C     2.0005988    0.4772606    3.1438939 
C     2.6890000    1.5125199    3.8110219 
C     2.5643290    1.6773296    5.1958910 
H     1.6433733    0.9491926    7.0213011 
H     0.3641225   -0.8578371    5.8540141 
H     0.5755242   -1.1482777    3.3939564 
H     3.3374257    2.1836995    3.2382735 
H     3.1130584    2.4812215    5.6968185 
C     2.7167304   -5.0277538   -2.2629397 
C     1.9530301   -4.9199454   -1.0868598 
C     1.8595011   -3.6963286   -0.4181107 
C     2.5077200   -2.5457698   -0.9247805 
C     3.2615533   -2.6658983   -2.1143598 
C     3.3789402   -3.8990686   -2.7675141 
H     2.7948133   -5.9893811   -2.7805036 
H     1.4277704   -5.7947389   -0.6902470 
H     1.2569166   -3.6288182    0.4917125 
H     3.7619932   -1.7825160   -2.5253309 
H     3.9785865   -3.9750813   -3.6803212 
C    -3.6067391    1.1919463    0.2809340 
C    -3.5285508   -0.0423478   -0.6312163 
C    -2.5378360    1.3638922    1.3760938 
C    -2.4875360    0.0096809   -1.7728026 
C    -0.9206123    3.0070919   -0.4916680 
C    -0.2049447    2.8242493    2.2737266 
C    -0.1576196   -1.0047421   -3.1237957 
C    -1.4273925   -2.5338312   -0.9500025 
C    -1.8030881    4.1046994   -0.3980565 
C    -0.6281909    2.5745468    3.5953631 
C    -0.1980962    0.1101463   -3.9921874 
C    -2.0166284   -3.4223043   -1.8731002 
C    -0.1000640    2.8749200   -1.6288079 
C     0.6922705    3.8840582    2.0243045 
C     0.4673822   -2.1915136   -3.5594066 
C    -1.3487329   -2.9020711    0.4086305 
C    -1.8791543    5.0352838   -1.4422342 
C    -0.1940995    3.4009584    4.6405420 
C     0.3677993    0.0327193   -5.2707975 
C    -2.4886302   -4.6696557   -1.4431417 
C    -0.1724016    3.8133408   -2.6695897 
C     1.1238148    4.7046836    3.0750092 
C     1.0245180   -2.2629300   -4.8443835 
C    -1.8304427   -4.1466856    0.8375580 
C    -1.0668595    4.8895942   -2.5793380 
C     0.6730940    4.4719499    4.3827316 
C     0.9789233   -1.1553799   -5.7016417 
C    -2.3934984   -5.0349232   -0.0906736 
H    -3.6532628    2.1053021   -0.3404014 
H    -4.5725321    1.1443229    0.8168639 
H    -3.3984718   -0.9582908   -0.0243138 
H    -4.5172807   -0.1483660   -1.1109376 
H    -2.4623993    0.4462225    1.9877970 
H    -2.8546179    2.1765727    2.0533530 
H    -2.8836967   -0.4909274   -2.6740189 
H    -2.2645868    1.0538141   -2.0555691 
H    -2.4228107    4.2403498    0.4951746 
H    -1.2954505    1.7378281    3.8225622 
H    -0.6780029    1.0425301   -3.6795022 
H    -2.0996073   -3.1458446   -2.9297029 
H     0.5992277    2.0314115   -1.6935788 
H     1.0345003    4.0856374    1.0033658 
H     0.5149270   -3.0652749   -2.9029753 
H    -0.8996810   -2.2033918    1.1272715 
H    -2.5697699    5.8814142   -1.3664364 
H    -0.5320091    3.1992706    5.6616957 
H     0.3231316    0.9015213   -5.9359612 
H    -2.9364474   -5.3583963   -2.1669568 
H     0.4730041    3.7032237   -3.5473083 
H     1.8063139    5.5354103    2.8673749 
H     1.4998631   -3.1939708   -5.1691026 
H    -1.7626471   -4.4242330    1.8946031 
H    -1.1271492    5.6218821   -3.3910353 
H     1.0044614    5.1190203    5.2012686 
H     1.4146063   -1.2167532   -6.7041788 
H    -2.7646901   -6.0105532    0.2397782 
