87
Energy =
C     2.3348264    0.6959866    1.5388822 
C     2.6770052   -0.3459963    0.6220431 
C     2.8094398   -0.0907820   -0.7624169 
H     2.6903682   -1.3820592    0.9855560 
Pd    0.7345079    0.4887605    0.0155675 
P    -0.5969379   -0.2236282   -1.7892638 
P    -0.9924743    1.6067373    1.1493199 
H     2.6896029    1.7120051    1.3092638 
H     2.9991278    0.9530463   -1.0587078 
C     1.5920487   -0.1057671    5.7037533 
C     2.2717421    1.0566536    5.3129578 
C     2.4965254    1.3204446    3.9559442 
C     2.0561675    0.4192464    2.9643169 
C     1.3606360   -0.7432257    3.3715732 
C     1.1310914   -1.0031362    4.7261849 
H     1.4133363   -0.3089479    6.7646253 
H     2.6249022    1.7665255    6.0676868 
H     3.0264714    2.2312472    3.6586353 
H     0.9776465   -1.4377193    2.6143884 
H     0.5856319   -1.9053033    5.0223908 
C     3.6834693   -2.8976546   -3.8994608 
C     3.7740694   -1.5161457   -4.1217924 
C     3.4851561   -0.6199194   -3.0874003 
C     3.1031166   -1.0832244   -1.8074096 
C     3.0320648   -2.4801517   -1.5949307 
C     3.3142670   -3.3752421   -2.6305488 
H     3.9053563   -3.6019893   -4.7077265 
H     4.0668334   -1.1337207   -5.1043427 
H     3.5554381    0.4574477   -3.2675909 
H     2.7623576   -2.8762580   -0.6111634 
H     3.2524288   -4.4528841   -2.4472493 
C    -1.3300612    3.0439257   -1.3619098 
C    -2.1532101    2.1569216   -2.3108592 
C    -1.7339362    3.0008533    0.1240113 
C    -2.2297476    0.6561549   -1.9788573 
C    -0.5671031    2.4631703    2.7193691 
C    -2.3812998    0.4921582    1.5968946 
C     0.1446583   -0.1458020   -3.4677689 
C    -1.0899482   -1.9775535   -1.5339249 
C     0.2625327    3.6046991    2.6678182 
C    -3.6513579    0.9918642    1.9584246 
C     0.7203274    1.0732567   -3.8871286 
C    -2.2235062   -2.5465154   -2.1508293 
C    -1.0159069    1.9917880    3.9674927 
C    -2.1658927   -0.8992047    1.5873069 
C     0.1497606   -1.2478477   -4.3446141 
C    -0.3054126   -2.7774869   -0.6785284 
C     0.5919486    4.2926971    3.8420436 
C    -4.6885690    0.1060804    2.2780092 
C     1.2475450    1.2008621   -5.1786611 
C    -2.5619690   -3.8856681   -1.9092320 
C    -0.6739261    2.6797405    5.1408669 
C    -3.2063090   -1.7837478    1.9028841 
C     0.6942624   -1.1193112   -5.6303663 
C    -0.6422014   -4.1156232   -0.4396682 
C     0.1164729    3.8354734    5.0810292 
C    -4.4700660   -1.2813706    2.2437038 
C     1.2312946    0.1045333   -6.0545370 
C    -1.7743445   -4.6718136   -1.0545838 
H    -0.2508306    2.8040784   -1.4453489 
H    -1.4343119    4.0875165   -1.7098198 
H    -3.1930380    2.5344547   -2.3344349 
H    -1.7627611    2.2822378   -3.3370236 
H    -2.8318989    2.9605270    0.2373858 
H    -1.4029326    3.9256746    0.6241332 
H    -2.7632102    0.4783913   -1.0261648 
H    -2.8010785    0.1436296   -2.7717694 
H     0.6532330    3.9638877    1.7076180 
H    -3.8324586    2.0713452    2.0038600 
H     0.7688845    1.9229780   -3.1968588 
H    -2.8493441   -1.9541123   -2.8252741 
H    -1.6351338    1.0918290    4.0265154 
H    -1.1794298   -1.2874320    1.3187276 
H    -0.2608623   -2.2098840   -4.0236565 
H     0.5652456   -2.3319072   -0.1860532 
H     1.2236502    5.1855309    3.7895644 
H    -5.6716059    0.5000627    2.5557950 
H     1.6813626    2.1544037   -5.4973391 
H    -3.4454753   -4.3157445   -2.3920586 
H    -1.0293920    2.3059331    6.1063271 
H    -3.0264356   -2.8631877    1.8728590 
H     0.6996906   -1.9838381   -6.3021369 
H    -0.0229537   -4.7230289    0.2287170 
H     0.3726121    4.3740600    5.9990841 
H    -5.2870374   -1.9686441    2.4867986 
H     1.6482295    0.2015113   -7.0622515 
H    -2.0429750   -5.7168525   -0.8686662 
