87
Energy =
C     2.2050993   -0.0196271    1.6772679 
C     2.0069996   -1.3635499    1.2564187 
C     2.0074299   -1.7110351   -0.1168857 
H     1.7341943   -2.1226768    1.9997552 
Pd    0.3945357   -0.1656254    0.3319385 
P    -1.0067642   -0.7237094   -1.4711642 
P    -0.6659170    1.8655536    0.8493348 
H     2.7647202    0.6360752    0.9930632 
H     2.5236832   -1.0249604   -0.8059122 
C     2.4729771    1.2019781    5.7894010 
C     1.7565398    0.0398278    5.4582868 
C     1.6256800   -0.3499406    4.1220393 
C     2.2234647    0.4068465    3.0863133 
C     2.9136667    1.5901643    3.4334838 
C     3.0412161    1.9809619    4.7707880 
H     2.5780476    1.5031001    6.8367045 
H     1.2978189   -0.5648031    6.2476463 
H     1.0542652   -1.2530212    3.8811953 
H     3.3670631    2.1983334    2.6432411 
H     3.5862334    2.8971713    5.0185912 
C     1.5368929   -5.6696181   -1.7304729 
C     1.0271749   -5.3787014   -0.4530636 
C     1.1667702   -4.0974545    0.0858737 
C     1.8118872   -3.0716816   -0.6441858 
C     2.3193896   -3.3795433   -1.9267811 
C     2.1889959   -4.6670704   -2.4617584 
H     1.4286190   -6.6755755   -2.1487124 
H     0.5170297   -6.1570970    0.1234886 
H     0.7627730   -3.8909196    1.0819421 
H     2.8234017   -2.5983303   -2.5053362 
H     2.5947130   -4.8848867   -3.4551358 
C    -3.2663758    0.5637708    0.5092844 
C    -3.5363280    0.5520964   -1.0035612 
C    -2.5221913    1.7795167    1.0843655 
C    -2.3066557    0.5365412   -1.9297498 
C    -0.3094578    3.0368083   -0.5280637 
C    -0.1629122    2.8121624    2.3433828 
C    -0.0721996   -0.8933524   -3.0417528 
C    -1.9687041   -2.2671613   -1.2503556 
C     0.9590653    2.9554902   -1.1424632 
C    -0.4719833    2.2764088    3.6129198 
C     0.5347928    0.2664705   -3.5734433 
C    -2.8056095   -2.7621662   -2.2742690 
C    -1.2130320    4.0306750   -0.9561131 
C     0.5054196    4.0496842    2.2603795 
C     0.0887511   -2.1243145   -3.7064768 
C    -1.9238062   -2.9334937   -0.0114384 
C     1.3145576    3.8442399   -2.1667534 
C    -0.1639827    2.9928134    4.7742880 
C     1.2754124    0.1953881   -4.7590799 
C    -3.5688880   -3.9168101   -2.0589400 
C    -0.8605147    4.9096382   -1.9901744 
C     0.8208856    4.7574874    3.4299718 
C     0.8287612   -2.1864555   -4.8977062 
C    -2.6914044   -4.0867439    0.2022956 
C     0.4015881    4.8187943   -2.5969690 
C     0.4774724    4.2380595    4.6852104 
C     1.4219178   -1.0323559   -5.4262629 
C    -3.5107617   -4.5808727   -0.8225308 
H    -4.2451808    0.5143556    1.0201811 
H    -2.7306259   -0.3594661    0.8023250 
H    -4.1512415   -0.3385974   -1.2249047 
H    -4.1533492    1.4296054   -1.2756013 
H    -2.6382965    1.7809638    2.1811577 
H    -2.9631322    2.7305057    0.7357743 
H    -2.6158803    0.3262794   -2.9688237 
H    -1.7926593    1.5138953   -1.9447800 
H     1.6681800    2.1851124   -0.8165138 
H    -0.9545601    1.2961162    3.6989689 
H     0.4282169    1.2290964   -3.0616146 
H    -2.8581039   -2.2499871   -3.2414537 
H    -2.1968056    4.1292617   -0.4867513 
H     0.7634779    4.4738959    1.2852348 
H    -0.3518040   -3.0369914   -3.2960556 
H    -1.2848812   -2.5355457    0.7858979 
H     2.3027179    3.7700490   -2.6324239 
H    -0.4124693    2.5699182    5.7523588 
H     1.7364029    1.1017879   -5.1655391 
H    -4.2136122   -4.2984795   -2.8573143 
H    -1.5738649    5.6725257   -2.3184051 
H     1.3281814    5.7249260    3.3545854 
H     0.9457662   -3.1485633   -5.4073077 
H    -2.6481613   -4.5998534    1.1685290 
H     0.6733503    5.5089768   -3.4021490 
H     0.7174697    4.7969696    5.5954245 
H     1.9982508   -1.0866865   -6.3555725 
H    -4.1098036   -5.4825752   -0.6585866 
