87
Energy =
C     2.0003452    0.2519524    1.8912270 
C     2.5846395   -0.3865885    0.7561750 
C     2.6298397    0.2363229   -0.5101369 
H     2.8936968   -1.4350980    0.8458834 
Pd    0.4694857    0.0076499    0.2734393 
P    -0.4961869   -0.5405398   -1.7932720 
P    -1.4613202    0.4576239    1.5427239 
H     2.0293668    1.3510801    1.9280006 
H     2.5205363    1.3317683   -0.5273812 
C     1.9760917   -1.7069393    5.7209955 
C     1.8175921   -2.4657591    4.5497043 
C     1.7839537   -1.8336189    3.3030849 
C     1.9226883   -0.4287497    3.1984451 
C     2.0488431    0.3227400    4.3865362 
C     2.0809550   -0.3111541    5.6342579 
H     2.0061202   -2.2017925    6.6971088 
H     1.7164078   -3.5544760    4.6108407 
H     1.6391491   -2.4340024    2.3973133 
H     2.1409344    1.4122987    4.3262897 
H     2.1878788    0.2888391    6.5435365 
C     4.4106750   -1.3466544   -4.0869212 
C     3.9740953   -0.0150497   -4.0331200 
C     3.3825060    0.4802923   -2.8656600 
C     3.2091423   -0.3447266   -1.7298072 
C     3.6412990   -1.6900263   -1.8065432 
C     4.2406423   -2.1804282   -2.9689466 
H     4.8816040   -1.7357145   -4.9954546 
H     4.1042585    0.6432084   -4.8981944 
H     3.0624598    1.5264459   -2.8250767 
H     3.5133586   -2.3601928   -0.9517176 
H     4.5732382   -3.2222689   -3.0067786 
C    -3.8541198   -0.4531901    0.1442043 
C    -3.2499583   -0.1311380   -1.2327644 
C    -2.8631770   -0.7649688    1.2834777 
C    -2.2434739   -1.1797523   -1.7575648 
C    -2.1857388    2.1026009    1.1605593 
C    -1.3013570    0.4903432    3.3729724 
C    -0.5507629    0.7993049   -3.0477193 
C     0.3750435   -1.9613791   -2.5653345 
C    -3.3798496    2.5244117    1.7851247 
C    -1.1283321    1.7107052    4.0586091 
C     0.1943651    1.9750204   -2.8316219 
C     0.5536167   -3.1119431   -1.7657210 
C    -1.5585312    2.9484136    0.2270565 
C    -1.3453326   -0.7132999    4.1078020 
C    -1.3277982    0.6890434   -4.2211936 
C     0.8199317   -1.9678888   -3.8998119 
C    -3.9390145    3.7670227    1.4612997 
C    -1.0565370    1.7286021    5.4585818 
C     0.1731554    3.0188015   -3.7665280 
C     1.1335920   -4.2655596   -2.3075482 
C    -2.1193481    4.1926967   -0.0941201 
C    -1.2698479   -0.6880067    5.5059995 
C    -1.3490719    1.7330954   -5.1556886 
C     1.4082632   -3.1236297   -4.4337723 
C    -3.3118776    4.6005326    0.5201593 
C    -1.1387327    0.5324341    6.1849483 
C    -0.5995720    2.8984518   -4.9307473 
C     1.5562211   -4.2741241   -3.6462316 
H    -4.4923024    0.3956755    0.4447865 
H    -4.5248849   -1.3288563    0.0550472 
H    -4.0767474   -0.0293429   -1.9564755 
H    -2.7724031    0.8665704   -1.1986907 
H    -2.3749877   -1.7438823    1.1280322 
H    -3.4138777   -0.8332242    2.2373662 
H    -2.2233894   -2.0938447   -1.1374119 
H    -2.4869123   -1.5187958   -2.7791395 
H    -3.8657774    1.8877366    2.5329385 
H    -1.0759319    2.6521398    3.5020740 
H     0.7938061    2.0687945   -1.9201691 
H     0.2365659   -3.1011495   -0.7148168 
H    -0.6314554    2.6201789   -0.2542615 
H    -1.4441902   -1.6757673    3.5951668 
H    -1.9162524   -0.2135437   -4.4156163 
H     0.7180779   -1.0727741   -4.5204374 
H    -4.8664096    4.0880071    1.9467403 
H    -0.9417892    2.6837803    5.9815072 
H     0.7579580    3.9264534   -3.5842115 
H     1.2588872   -5.1573692   -1.6846249 
H    -1.6248201    4.8396668   -0.8258886 
H    -1.3085241   -1.6276396    6.0657031 
H    -1.9550444    1.6365106   -6.0624130 
H     1.7572175   -3.1198296   -5.4714142 
H    -3.7536539    5.5706435    0.2701568 
H    -1.0887712    0.5487174    7.2784243 
H    -0.6212947    3.7129630   -5.6620382 
H     2.0108551   -5.1748606   -4.0713128 
