87
Energy =
C     2.0844329    0.0189721    1.8879150 
C     2.0757067   -1.2753556    1.2867674 
C     2.3421738   -1.4468760   -0.0903640 
H     1.7356322   -2.1352260    1.8787838 
Pd    0.5443480   -0.0644584    0.2713500 
P    -0.8007092   -0.7324785   -1.5352668 
P    -0.6923882    1.8254120    0.8617169 
H     2.7472057    0.7775983    1.4449755 
H     2.9046524   -0.6448286   -0.5933604 
C     1.2866131    0.5081587    6.0870457 
C     0.5452849   -0.4234445    5.3413103 
C     0.7756607   -0.5666860    3.9692450 
C     1.7576320    0.2137911    3.3146221 
C     2.4728997    1.1664974    4.0706546 
C     2.2441285    1.3066253    5.4448951 
H     1.1106727    0.6163981    7.1622374 
H    -0.2157454   -1.0384397    5.8331906 
H     0.1802619   -1.2835879    3.3911376 
H     3.2241343    1.7915370    3.5766023 
H     2.8149185    2.0457568    6.0160040 
C     2.4507722   -5.1934772   -2.1943114 
C     1.6037905   -5.0483790   -1.0809328 
C     1.5616835   -3.8392271   -0.3814086 
C     2.3481217   -2.7385825   -0.7949030 
C     3.1857807   -2.8950054   -1.9225598 
C     3.2491297   -4.1161038   -2.6051645 
H     2.4873664   -6.1442338   -2.7359872 
H     0.9731433   -5.8827552   -0.7574811 
H     0.8932998   -3.7425147    0.4785666 
H     3.7947185   -2.0499193   -2.2613069 
H     3.9141505   -4.2216353   -3.4683831 
C    -3.4928587    1.5058941    0.0088843 
C    -3.4446540    0.2979189   -0.9398306 
C    -2.5141206    1.5461838    1.1972730 
C    -2.3040359    0.2847920   -1.9831684 
C    -0.6080060    3.0950934   -0.4643376 
C    -0.1539233    2.7713065    2.3433509 
C     0.0337953   -0.9121408   -3.1596261 
C    -1.5547416   -2.3633348   -1.1486976 
C     0.2870862    2.9224814   -1.5380189 
C    -0.7118601    2.5226018    3.6142226 
C     0.1757789    0.2213514   -3.9927272 
C    -2.1463152   -3.1685763   -2.1438911 
C    -1.3977611    4.2632694   -0.4019924 
C     0.8491158    3.7544686    2.2096192 
C     0.5769508   -2.1440958   -3.5789341 
C    -1.6223481   -2.7709745    0.1992145 
C     0.3784395    3.8913979   -2.5488942 
C    -0.3026658    3.2776496    4.7215936 
C     0.8387730    0.1182458   -5.2219045 
C    -2.7666115   -4.3751281   -1.7932563 
C    -1.3103875    5.2248401   -1.4167030 
C     1.2552856    4.5033384    3.3222176 
C     1.2324570   -2.2402119   -4.8150158 
C    -2.2511780   -3.9742969    0.5480948 
C    -0.4254792    5.0389833   -2.4920223 
C     0.6727477    4.2743238    4.5774640 
C     1.3669558   -1.1140851   -5.6379810 
C    -2.8170736   -4.7811719   -0.4500148 
H    -3.4032809    2.4380881   -0.5787483 
H    -4.5026792    1.5305380    0.4582107 
H    -3.4546641   -0.6441642   -0.3597655 
H    -4.3912266    0.3006611   -1.5081923 
H    -2.5721224    0.6062622    1.7761488 
H    -2.8189590    2.3617065    1.8766075 
H    -2.6601470   -0.1540795   -2.9319788 
H    -1.9646175    1.3110745   -2.2096986 
H     0.9154395    2.0232206   -1.5771741 
H    -1.4657324    1.7419690    3.7533705 
H    -0.2371479    1.1892204   -3.6919098 
H    -2.1160102   -2.8595296   -3.1942821 
H    -2.0735311    4.4281251    0.4444530 
H     1.2956664    3.9540711    1.2294334 
H     0.4841092   -3.0332361   -2.9484803 
H    -1.1715444   -2.1356473    0.9733447 
H     1.0801807    3.7490626   -3.3773672 
H    -0.7457265    3.0781123    5.7021714 
H     0.9350186    1.0024307   -5.8607728 
H    -3.2159363   -4.9998270   -2.5721348 
H    -1.9298691    6.1261139   -1.3656942 
H     2.0222856    5.2757987    3.2037344 
H     1.6422338   -3.2057385   -5.1282529 
H    -2.2962938   -4.2831560    1.5976377 
H    -0.3581957    5.7952212   -3.2808895 
H     0.9853363    4.8655996    5.4441610 
H     1.8783344   -1.1949613   -6.6026593 
H    -3.3037580   -5.7245927   -0.1817816 
