121
Energy =
C    -0.2018185    2.2432666    2.6356577 
C    -0.5372935    0.9559491    3.1007831 
C     0.4551157   -0.0570612    3.2282800 
H    -1.5873404    0.7149484    3.3043370 
Pd    0.2506004    0.5241131    1.0571605 
P    -0.0325124    1.9145112   -0.8552279 
P     1.6923929   -1.1593843    0.2456581 
H     0.8675002    2.4981378    2.6013882 
H     1.4941280    0.2817054    3.3335196 
C    -2.7203541    5.7185837    2.4958882 
C    -1.3432415    5.8149553    2.2499837 
C    -0.5416568    4.6690695    2.2942956 
C    -1.1002552    3.4006089    2.5754773 
C    -2.4888585    3.3244909    2.8432127 
C    -3.2874069    4.4690725    2.8017103 
H    -3.3505294    6.6132155    2.4619712 
H    -0.8894339    6.7857061    2.0256916 
H     0.5351149    4.7491167    2.1140157 
H    -2.9513513    2.3627596    3.0877368 
H    -4.3593837    4.3910355    3.0099263 
C    -0.1813367   -4.0074835    4.8060424 
C    -1.2880901   -3.2225290    4.4395481 
C    -1.1005381   -1.9335960    3.9297149 
C     0.2011315   -1.3996745    3.7765635 
C     1.3041096   -2.1962712    4.1617149 
C     1.1144545   -3.4875383    4.6662213 
H    -0.3303059   -5.0172596    5.2019160 
H    -2.3029811   -3.6187791    4.5499472 
H    -1.9753296   -1.3478191    3.6302718 
H     2.3172984   -1.7958804    4.0521138 
H     1.9820253   -4.0910784    4.9520623 
N    -0.7639271   -1.3224262   -1.8765131 
N    -2.3212429   -3.4068311   -3.2492092 
C    -1.7587641   -2.1705240   -1.1731973 
C    -2.8897673   -2.7702765   -2.0540596 
C    -2.3819914   -1.4206382    0.0199314 
C    -3.7805592   -3.6957464   -1.1934101 
C    -3.2927829   -2.3198166    0.8691966 
C    -4.3927691   -2.9617168    0.0095184 
C     0.2867404   -2.0684346   -2.5961253 
C    -1.4085718   -0.3121524   -2.7380539 
C     1.6507874   -1.3812968   -2.6167126 
C    -0.4201588    0.6396513   -3.3756664 
C     2.3528281   -0.9344035   -1.4608096 
C     0.3771940    1.5488110   -2.6286321 
C    -0.2635808    0.5979012   -4.7715702 
C     2.2800378   -1.2212285   -3.8655479 
C     1.3649718    2.3028224   -3.2913422 
C     3.6052800   -0.2996507   -1.6073342 
C     3.5263635   -0.5992553   -4.0035235 
C     0.6925888    1.3821307   -5.4303565 
C     4.1874860   -0.1195796   -2.8672949 
C     1.5316216    2.2131738   -4.6811842 
C    -1.7731490    2.4953788   -1.0579353 
C     1.3137417   -2.9612341    0.3142353 
C     3.2050854   -1.0519239    1.3276207 
C     0.9571746    3.4421893   -0.5508234 
C     0.2925727   -3.4426294    1.1490468 
C     3.9590359   -2.1822370    1.7005907 
C    -2.1621948    3.2510482   -2.1864708 
C     2.2981043    3.2701812   -0.1454007 
C     2.0790109   -3.8791903   -0.4404213 
C     3.5839115    0.2089549    1.8380948 
C     0.4517733    4.7453368   -0.7136473 
C    -2.7394529    2.1432764   -0.0999630 
C     3.1182041    4.3792922    0.0975770 
C    -3.4942624    3.6575367   -2.3336613 
C     5.0624861   -2.0494208    2.5575211 
C     0.0303514   -4.8177716    1.2317378 
C     4.6906217    0.3427500    2.6862201 
C     1.2772085    5.8552238   -0.4745629 
C    -4.0733787    2.5457432   -0.2530858 
C     1.8136402   -5.2522595   -0.3576686 
C    -4.4519214    3.3052039   -1.3683973 
C     2.6062609    5.6775043   -0.0649093 
C     5.4334104   -0.7906866    3.0513404 
C     0.7881707   -5.7247214    0.4784867 
H    -1.1840609   -3.0224430   -0.7688818 
H    -3.5246258   -1.9348769   -2.4107130 
H    -2.9720558   -0.5641221   -0.3562365 
H    -1.5580268   -0.9892503    0.6314122 
H    -4.5751233   -4.1261368   -1.8314879 
H    -3.1622305   -4.5454727   -0.8377932 
H    -3.7389833   -1.7317527    1.6925928 
H    -2.6866923   -3.1158827    1.3429288 
H    -5.0040483   -3.6546550    0.6150997 
H    -5.0780221   -2.1722545   -0.3570931 
H    -2.1355531    0.2456431   -2.1229922 
H    -1.9707170   -0.8074931   -3.5560439 
H    -0.0178334   -2.2846983   -3.6382847 
H     0.3881373   -3.0488663   -2.1025123 
H    -3.0782015   -3.7457120   -3.8537663 
H    -1.7939104   -4.2450671   -2.9736670 
H     1.7542342   -1.5767446   -4.7579091 
H    -0.8951548   -0.0884664   -5.3465289 
H     4.1503246    0.0363426   -0.7204462 
H     1.9973627    2.9929537   -2.7276180 
H     0.7930509    1.3265779   -6.5191870 
H     3.9711525   -0.4823008   -4.9969710 
H     2.3046691    2.8134721   -5.1715981 
H     5.1593103    0.3769983   -2.9527056 
H     2.7039498    2.2577817   -0.0462512 
H    -1.4268487    3.5054816   -2.9571443 
H     3.6796682   -3.1759498    1.3409034 
H    -0.3080538   -2.7411456    1.7295735 
H    -2.4401082    1.5350331    0.7587275 
H    -0.5899811    4.9009605   -1.0067847 
H     2.9894219    1.0935284    1.5818069 
H     2.8697823   -3.5165436   -1.1062266 
H     5.6318498   -2.9401751    2.8429912 
H     4.1579272    4.2306231    0.4076810 
H    -3.7881566    4.2440733   -3.2103323 
H    -0.7707781   -5.1723128    1.8877723 
H    -4.8161195    2.2640033    0.5004466 
H     2.4090736   -5.9552728   -0.9495549 
H     4.9655172    1.3309619    3.0698593 
H     0.8716055    6.8646758   -0.5995551 
H     6.2931833   -0.6931652    3.7220465 
H     0.5826592   -6.7985759    0.5395896 
H    -5.4938778    3.6184760   -1.4913752 
H     3.2442409    6.5468001    0.1250191 
