121
Energy =
C    -0.9766759    2.1843649    2.4970721 
C    -0.5590790    0.9970649    3.1528844 
C     0.8047694    0.6585707    3.3035815 
H    -1.3220855    0.2866669    3.4914673 
Pd    0.1881348    0.8141841    1.0656853 
P    -0.2756046    2.0830019   -0.9010373 
P     1.9259906   -0.6144044    0.3545133 
H    -0.2425699    2.9997083    2.4198660 
H     1.5415471    1.4610550    3.1581583 
C    -5.0656895    3.5267876    2.4108722 
C    -4.7849739    2.1674530    2.6299976 
C    -3.4639556    1.7116179    2.6332248 
C    -2.3861975    2.6073383    2.4324857 
C    -2.6878028    3.9707165    2.2141861 
C    -4.0107311    4.4258805    2.1985178 
H    -6.1016315    3.8805735    2.4040025 
H    -5.6042078    1.4594878    2.7945655 
H    -3.2683015    0.6440713    2.7807364 
H    -1.8684679    4.6831652    2.0729356 
H    -4.2184161    5.4865630    2.0257341 
C     2.3736475   -2.7130362    5.4676697 
C     0.9833471   -2.5715345    5.3192469 
C     0.4570952   -1.4830524    4.6197145 
C     1.3088184   -0.5057780    4.0498860 
C     2.7034171   -0.6438667    4.2404380 
C     3.2299684   -1.7403311    4.9322545 
H     2.7835680   -3.5705974    6.0108794 
H     0.3076996   -3.3154424    5.7539915 
H    -0.6294532   -1.3956234    4.5158552 
H     3.3774085    0.1200224    3.8417411 
H     4.3138651   -1.8302618    5.0571651 
N    -1.1917395   -1.7616390   -2.4249527 
N    -2.6344503   -1.7758037    0.1680777 
C    -2.2237455   -2.7699643   -2.0863684 
C    -2.4168930   -3.0394828   -0.5667135 
C    -1.9457620   -4.0892797   -2.8352893 
C    -3.5231810   -4.0931166   -0.3433932 
C    -3.0404850   -5.1402950   -2.5915287 
C    -3.2326886   -5.4041459   -1.0903339 
C     0.0457961   -1.9516178   -1.6750179 
C    -1.6501934   -0.3696700   -2.3327234 
C     1.2979377   -1.3438403   -2.2824440 
C    -0.8519781    0.5635548   -3.2203481 
C     2.2586635   -0.7131834   -1.4519971 
C    -0.0813526    1.6285345   -2.6960205 
C    -0.8811972    0.3587115   -4.6109418 
C     1.5592842   -1.4460871   -3.6580157 
C     0.6497074    2.4519703   -3.5796167 
C     3.4348295   -0.1733847   -2.0121957 
C     2.7200533   -0.8961452   -4.2145379 
C    -0.1520859    1.1736301   -5.4812599 
C     3.6575342   -0.2520751   -3.3926154 
C     0.6239168    2.2188113   -4.9598389 
C    -1.9465231    2.8499880   -1.0285661 
C     1.7420020   -2.3915080    0.8154178 
C     3.5245329   -0.0612147    1.0895131 
C     0.9163679    3.4596883   -0.6252156 
C     0.6983607   -2.7779318    1.6744024 
C     3.6872079    1.3145375    1.3519562 
C    -2.1384811    4.0641162   -1.7197399 
C     2.2743756    3.2771633   -0.9699620 
C     2.5587433   -3.3818450    0.2296239 
C     4.5647163   -0.9501639    1.4269313 
C     0.5377216    4.6337539    0.0587475 
C    -3.0634864    2.1300530   -0.5655250 
C     3.2242378    4.2584717   -0.6567330 
C    -3.4335232    4.5594757   -1.9191714 
C     4.8700552    1.7979229    1.9272277 
C     0.4957511   -4.1295181    1.9815149 
C     5.7438255   -0.4656065    2.0113356 
C     1.4943627    5.6068734    0.3809889 
C    -4.3577285    2.6190346   -0.7868738 
C     2.3530253   -4.7341703    0.5371298 
C    -4.5443061    3.8364174   -1.4567295 
C     2.8384169    5.4248859    0.0214321 
C     5.9011284    0.9064032    2.2617044 
C     1.3262621   -5.1096986    1.4178319 
H    -3.1783659   -2.3620948   -2.4735060 
H    -1.4704392   -3.4622277   -0.1780809 
H    -0.9700109   -4.4959030   -2.5023755 
H    -1.8433539   -3.8604523   -3.9101394 
H    -3.6298429   -4.2781666    0.7429749 
H    -4.4894441   -3.6720023   -0.6896256 
H    -2.7889369   -6.0761824   -3.1213426 
H    -3.9948526   -4.7799695   -3.0234771 
H    -4.0490029   -6.1292032   -0.9234057 
H    -2.3119232   -5.8610819   -0.6763379 
H    -1.6098600   -0.0260438   -1.2786092 
H    -2.7105400   -0.3344870   -2.6392069 
H     0.2251288   -3.0347630   -1.5505530 
H    -0.0926693   -1.5414382   -0.6502362 
H    -2.7355849   -1.9858569    1.1680517 
H    -3.5379967   -1.3720466   -0.1118479 
H     0.8166390   -1.9415006   -4.2905316 
H    -1.4773542   -0.4738603   -5.0000718 
H     4.1803268    0.3008344   -1.3653406 
H     1.2281807    3.2976300   -3.1992442 
H    -0.1894507    0.9991934   -6.5616066 
H     2.8950737   -0.9707333   -5.2926960 
H     1.1997459    2.8687452   -5.6268354 
H     4.5683655    0.1769791   -3.8226700 
H     2.5905179    2.3613772   -1.4810964 
H    -1.2788631    4.6156996   -2.1153583 
H     2.8768398    2.0113293    1.1142721 
H     0.0257410   -2.0126949    2.0720886 
H    -2.9134552    1.1846602   -0.0348822 
H    -0.5097828    4.7909163    0.3316349 
H     4.4512294   -2.0246851    1.2623510 
H     3.3337463   -3.1001074   -0.4917284 
H     4.9785352    2.8702565    2.1207126 
H     4.2715052    4.1039256   -0.9366842 
H    -3.5759090    5.5055649   -2.4517961 
H    -0.3158290   -4.4171727    2.6579764 
H    -5.2205571    2.0540828   -0.4211320 
H     2.9900767   -5.4974189    0.0782128 
H     6.5410129   -1.1670940    2.2785420 
H     1.1848423    6.5153883    0.9082169 
H     6.8224896    1.2783815    2.7216566 
H     1.1657899   -6.1671035    1.6526029 
H    -5.5557415    4.2216042   -1.6226425 
H     3.5815301    6.1907465    0.2663092 
