121
Energy =
C     0.9048155    2.4865777    1.8544607 
C     0.9898372    1.4167837    2.7658381 
C     1.9674646    0.3904786    2.5825311 
H     0.2682214    1.3524758    3.5889739 
Pd    0.4265580    0.3413404    0.9376928 
P     0.8202078   -1.9251905    0.3579373 
P    -1.6798851    0.7187443   -0.0815981 
H     1.7686836    2.6299339    1.1883012 
H     2.8661405    0.6774465    2.0208893 
C    -1.5743228    5.9829602    2.1172131 
C    -0.3722174    6.0041549    1.3925112 
C     0.4174404    4.8528156    1.3173534 
C     0.0272188    3.6577451    1.9702033 
C    -1.1770590    3.6572897    2.7109467 
C    -1.9690891    4.8075874    2.7768671 
H    -2.1996590    6.8800142    2.1712624 
H    -0.0518416    6.9197556    0.8846752 
H     1.3524376    4.8690992    0.7448631 
H    -1.5092424    2.7488691    3.2206530 
H    -2.9051268    4.7830263    3.3437165 
C     2.6962681   -2.6765136    5.5070140 
C     1.4406018   -2.0481776    5.4552168 
C     1.1744937   -1.0828899    4.4809424 
C     2.1674467   -0.7068541    3.5447603 
C     3.4146935   -1.3708616    3.5890491 
C     3.6771186   -2.3437552    4.5614890 
H     2.9033566   -3.4286466    6.2752175 
H     0.6620623   -2.3200121    6.1749548 
H     0.1850008   -0.6157406    4.4485779 
H     4.1901255   -1.1046530    2.8629177 
H     4.6552218   -2.8353525    4.5869349 
N     0.1729997   -0.0218927   -2.5625344 
N     0.6100229    0.8865544   -5.3374008 
C     0.8479818    1.2564100   -2.8905632 
C     1.5256540    1.3483660   -4.2869917 
C     1.8773913    1.6335802   -1.8092774 
C     2.0745103    2.7801928   -4.4946645 
C     2.4319665    3.0517669   -2.0049551 
C     3.0670128    3.1977123   -3.3975876 
C    -1.1558744   -0.1934076   -3.1799351 
C     1.0557072   -1.1852232   -2.7802203 
C    -2.1543685   -0.9800444   -2.3341565 
C     0.4105011   -2.5016405   -2.4091089 
C    -2.4769754   -0.6777609   -0.9805067 
C     0.0900301   -2.8668877   -1.0732600 
C     0.0864203   -3.3909663   -3.4481224 
C    -2.8496321   -2.0343039   -2.9547458 
C    -0.6167359   -4.0635657   -0.8415049 
C    -3.4398884   -1.4559647   -0.3028620 
C    -3.8001998   -2.8055527   -2.2752470 
C    -0.5870698   -4.5952091   -3.2064108 
C    -4.0905358   -2.5218084   -0.9360498 
C    -0.9647812   -4.9164731   -1.8992541 
C     2.6059204   -2.2817140    0.0313717 
C    -2.0840067    2.1679738   -1.1439835 
C    -2.7814286    0.9940994    1.3914409 
C     0.3490286   -2.9776510    1.7911314 
C    -3.2550940    2.1903702   -1.9333216 
C    -2.4651597    0.3232662    2.5938323 
C     3.0128310   -3.5951427   -0.2904867 
C    -0.9994891   -2.9212323    2.2062549 
C    -1.2419508    3.2912305   -1.1348294 
C    -3.8747243    1.8819809    1.3794718 
C     1.2414270   -3.8297881    2.4653988 
C     3.5611193   -1.2486994    0.0231751 
C    -1.4499673   -3.7110883    3.2703087 
C     4.3582071   -3.8680782   -0.5687829 
C    -3.2298398    0.5211532    3.7508537 
C    -3.5644640    3.3228278   -2.6988210 
C    -4.6336867    2.0875298    2.5415191 
C     0.7850529   -4.6186806    3.5317483 
C     4.9054800   -1.5213814   -0.2684036 
C    -1.5572152    4.4271836   -1.8927073 
C     5.3075663   -2.8335662   -0.5551757 
C    -0.5558152   -4.5649231    3.9356225 
C    -4.3170150    1.4094847    3.7278730 
C    -2.7179765    4.4437356   -2.6789841 
H     0.0496269    2.0203195   -2.8692898 
H     2.3897322    0.6545347   -4.2924816 
H     2.7176282    0.9140140   -1.8303625 
H     1.3877966    1.5180936   -0.8173003 
H     2.5510482    2.8422470   -5.4908742 
H     1.2162268    3.4830072   -4.5084115 
H     3.1704323    3.2850100   -1.2152141 
H     1.6094958    3.7858335   -1.9006625 
H     3.4099304    4.2348794   -3.5617852 
H     3.9661886    2.5536121   -3.4562546 
H     1.9752769   -1.0305375   -2.1897498 
H     1.3514711   -1.2501482   -3.8471966 
H    -1.0808772   -0.6650907   -4.1783494 
H    -1.5638891    0.8171578   -3.3527972 
H     1.0937983    0.8880184   -6.2424824 
H    -0.1633158    1.5561577   -5.4390394 
H    -2.6153607   -2.2652623   -3.9992429 
H     0.3532750   -3.1125225   -4.4736185 
H    -3.7050645   -1.2095966    0.7296235 
H    -0.8785785   -4.3580130    0.1771902 
H    -0.8276443   -5.2670820   -4.0366740 
H    -4.3065381   -3.6272282   -2.7918905 
H    -1.5117153   -5.8408828   -1.6875152 
H    -4.8304015   -3.1126727   -0.3865245 
H    -1.7053922   -2.2826945    1.6661295 
H     2.2743513   -4.4028814   -0.3313891 
H    -1.5966044   -0.3445515    2.6254245 
H    -3.9167532    1.3175350   -1.9572966 
H     3.2425393   -0.2227572    0.2259411 
H     2.2943063   -3.8718123    2.1761549 
H    -4.1276663    2.4327869    0.4693479 
H    -0.3324114    3.2700657   -0.5342512 
H    -2.9696025   -0.0114862    4.6719274 
H    -2.5009858   -3.6634980    3.5743429 
H     4.6646640   -4.8918492   -0.8072004 
H    -4.4715150    3.3304531   -3.3123011 
H     5.6364664   -0.7060245   -0.2767565 
H    -0.8916281    5.2961506   -1.8671460 
H    -5.4749646    2.7881710    2.5182978 
H     1.4908496   -5.2712038    4.0552351 
H    -4.9117663    1.5753720    4.6321290 
H    -2.9652971    5.3271677   -3.2768496 
H     6.3569659   -3.0495380   -0.7808953 
H    -0.9040065   -5.1844763    4.7685457 
