121
Energy =
C    -0.9282772   -0.7741479    2.7344916 
C    -0.8903454    0.5889092    3.0875480 
C    -1.6958190    1.5441066    2.3945198 
H    -0.1482749    0.9290911    3.8199981 
Pd   -0.2574437    0.5673025    0.9669396 
P    -0.6471032    2.0464238   -0.8538289 
P     1.8361833   -0.3378709    0.3020297 
H    -1.7618942   -1.0872211    2.0900786 
H    -2.6596829    1.2008738    1.9988020 
C     0.8918017   -4.0978346    4.7423937 
C     0.3609518   -4.2472238    3.4511993 
C    -0.2073806   -3.1503044    2.7993197 
C    -0.2440753   -1.8773456    3.4173052 
C     0.3099415   -1.7380478    4.7115307 
C     0.8625339   -2.8416987    5.3693011 
H     1.3259557   -4.9590130    5.2603699 
H     0.3893607   -5.2217113    2.9540563 
H    -0.6382830   -3.2689806    1.8003734 
H     0.2709506   -0.7711647    5.2232836 
H     1.2662525   -2.7244751    6.3802154 
C    -1.4366521    5.7889461    3.0907438 
C    -0.3698303    4.9536148    3.4622405 
C    -0.4393347    3.5762426    3.2311516 
C    -1.5871341    2.9946312    2.6373250 
C    -2.6557395    3.8485480    2.2757528 
C    -2.5781370    5.2293241    2.4950822 
H    -1.3791177    6.8680137    3.2668268 
H     0.5257178    5.3803824    3.9258288 
H     0.4132322    2.9488126    3.5098158 
H    -3.5525531    3.4223329    1.8160269 
H    -3.4163416    5.8698462    2.2025424 
N    -1.1218748   -2.2000587   -2.0842583 
N    -2.8382159   -2.6763428    0.2487275 
C    -2.0945271   -3.3099965   -2.0080476 
C    -2.3817643   -3.8096433   -0.5719192 
C    -1.6847408   -4.4776405   -2.9246063 
C    -3.4522111   -4.9128748   -0.5898586 
C    -2.7490353   -5.5882497   -2.9284376 
C    -3.0476365   -6.0802845   -1.5028295 
C     0.1766784   -2.4113909   -1.4612578 
C    -1.6283493   -0.8476731   -1.9099861 
C     1.2818613   -1.6258210   -2.1571648 
C    -1.1111786    0.1463023   -2.9393579 
C     2.0875141   -0.6665737   -1.4936074 
C    -0.6271129    1.4313615   -2.6032969 
C    -1.1927780   -0.2145413   -4.2980513 
C     1.4886435   -1.8548660   -3.5295816 
C    -0.2847360    2.3355260   -3.6363591 
C     3.0532221    0.0550057   -2.2301120 
C     2.4471223   -1.1388813   -4.2517040 
C    -0.8259692    0.6719570   -5.3123238 
C     3.2253039   -0.1707857   -3.5999559 
C    -0.3751083    1.9585762   -4.9787831 
C    -2.3506794    2.7582358   -0.8317154 
C     2.5431055   -1.8179597    1.1474099 
C     3.0907689    0.9213652    0.8041579 
C     0.5398484    3.4405881   -0.8013229 
C     2.8591178   -1.6899050    2.5177069 
C     4.4730493    0.6542688    0.6879447 
C    -3.4200459    1.8977753   -0.5068489 
C     0.3130745    4.5371228    0.0565172 
C     2.8389005   -3.0237635    0.4831705 
C     2.6706314    2.1196542    1.4107559 
C     1.7762810    3.3375763   -1.4760931 
C    -2.6278254    4.0772026   -1.2394547 
C     1.2953733    5.5258733    0.2078816 
C    -4.7425258    2.3574110   -0.5600959 
C     5.4094888    1.5908812    1.1424018 
C     3.4732765   -2.7431365    3.2020775 
C     3.6102092    3.0489070    1.8785105 
C     2.7494135    4.3318746   -1.3238819 
C    -3.9517136    4.5385246   -1.2747176 
C     3.4383522   -4.0841392    1.1799081 
C    -5.0102509    3.6842394   -0.9320054 
C     2.5112816    5.4305384   -0.4842024 
C     4.9800289    2.7891527    1.7380046 
C     3.7591804   -3.9459182    2.5369109 
H    -3.0435714   -2.8927596   -2.3920688 
H    -1.4394615   -4.2676348   -0.1834408 
H    -0.7192859   -4.9007194   -2.5819638 
H    -1.5161313   -4.0844393   -3.9429217 
H    -3.6267143   -5.2713159    0.4426870 
H    -4.4034185   -4.4655140   -0.9374375 
H    -2.4171843   -6.4268158   -3.5659535 
H    -3.6803332   -5.1955394   -3.3811641 
H    -3.8465931   -6.8422869   -1.5176842 
H    -2.1466568   -6.5752858   -1.0894330 
H    -1.3891706   -0.4574670   -0.8823737 
H    -2.7296352   -0.8768593   -1.9680583 
H     0.4169482   -3.4872102   -1.5085657 
H     0.1571120   -2.1443795   -0.3753026 
H    -3.1050231   -3.0067325    1.1831094 
H    -2.0634667   -2.0189727    0.3874368 
H     0.8551580   -2.5924605   -4.0331602 
H    -1.5468727   -1.2217242   -4.5415526 
H     3.6737784    0.8025282   -1.7283684 
H     0.0473741    3.3481993   -3.3902791 
H    -0.9025263    0.3684013   -6.3615947 
H     2.5828950   -1.3285175   -5.3212422 
H    -0.1013903    2.6728894   -5.7620054 
H     3.9732560    0.4047111   -4.1549815 
H    -0.6270805    4.6252938    0.6070938 
H    -3.2205976    0.8623117   -0.2094754 
H     4.8143474   -0.2922238    0.2547954 
H     2.6489604   -0.7507462    3.0407301 
H    -1.8144334    4.7493882   -1.5289097 
H     1.9772074    2.4775366   -2.1210368 
H     1.5986333    2.3259073    1.5126605 
H     2.6462161   -3.1274039   -0.5882779 
H     6.4793993    1.3794817    1.0442041 
H     1.1008616    6.3727938    0.8739274 
H    -5.5634712    1.6788933   -0.3061480 
H     3.7249064   -2.6264201    4.2604468 
H    -4.1551521    5.5705277   -1.5789959 
H     3.6737217   -5.0131934    0.6501252 
H     3.2644406    3.9778191    2.3426079 
H     3.7019269    4.2412286   -1.8558577 
H     5.7169756    3.5142273    2.0991428 
H     4.2389627   -4.7698545    3.0751314 
H    -6.0423618    4.0480405   -0.9640405 
H     3.2745396    6.2064605   -0.3653166 
