121
Energy =
C    -0.2529928    2.1459633    2.8137863 
C    -0.2327674    0.8057576    3.2574867 
C     0.9529946    0.0234277    3.2519324 
H    -1.1756999    0.3303019    3.5514242 
Pd    0.3881237    0.6562099    1.1262259 
P    -0.3216214    2.0839268   -0.6163240 
P     2.0505772   -0.6739417    0.0563554 
H     0.7138772    2.6588146    2.7138223 
H     1.9095487    0.5659181    3.2455680 
C    -3.6074290    4.8349683    2.9724233 
C    -2.3548813    5.2745495    2.5207262 
C    -1.2698174    4.3917551    2.4869282 
C    -1.4180775    3.0422454    2.8833224 
C    -2.6826569    2.6219906    3.3631770 
C    -3.7620876    3.5074320    3.4069960 
H    -4.4569167    5.5249796    3.0015553 
H    -2.2178237    6.3115171    2.1976340 
H    -0.2918927    4.7476411    2.1501787 
H    -2.8276560    1.5926684    3.7071892 
H    -4.7308539    3.1641599    3.7846139 
C     1.1912356   -3.8912788    5.0258468 
C    -0.0526907   -3.3957606    4.5998338 
C    -0.1416011   -2.1380154    3.9971216 
C     1.0107092   -1.3356824    3.8177589 
C     2.2533055   -1.8512684    4.2505973 
C     2.3448484   -3.1150163    4.8439847 
H     1.2591686   -4.8784866    5.4940434 
H    -0.9569709   -3.9985899    4.7349215 
H    -1.1164764   -1.7803834    3.6482816 
H     3.1553144   -1.2416067    4.1340102 
H     3.3190715   -3.4931447    5.1694188 
N    -1.2809644   -1.7566231   -2.3697174 
N    -2.7238105   -1.6355227    0.2038594 
C    -2.5228613   -2.5222455   -2.1194311 
C    -2.8192592   -2.8491653   -0.6289357 
C    -2.5432397   -3.8116138   -2.9644546 
C    -4.1655537   -3.5974505   -0.5107260 
C    -3.8719710   -4.5729145   -2.8265601 
C    -4.1888877   -4.8815588   -1.3550359 
C    -0.1207225   -2.2492011   -1.6232417 
C    -1.4302424   -0.3112346   -2.2133009 
C     1.1946925   -1.9622908   -2.3175960 
C    -0.4011095    0.5279055   -2.9542071 
C     2.2111157   -1.1740287   -1.7288673 
C     0.1808104    1.6628636   -2.3354145 
C    -0.0382092    0.2215908   -4.2754949 
C     1.4119425   -2.5232856   -3.5889446 
C     1.1265856    2.4433900   -3.0319111 
C     3.4178450   -0.9664473   -2.4332401 
C     2.6035006   -2.3067216   -4.2852865 
C     0.9103016    0.9894100   -4.9611688 
C     3.6078244   -1.5179193   -3.7053297 
C     1.5003697    2.0989084   -4.3368691 
C    -2.1436882    2.3142286   -0.7846245 
C     2.4218932   -2.3199527    0.7986786 
C     3.5106112    0.3988189    0.3855070 
C     0.3646217    3.7743395   -0.3387887 
C     1.3573213   -3.1068133    1.2771584 
C     3.7726318    1.4941176   -0.4676679 
C    -2.6991071    2.8929926   -1.9454331 
C     1.5944957    3.8855127    0.3413088 
C     3.7207993   -2.8662132    0.7461539 
C     4.2833582    0.2452390    1.5558621 
C    -0.3011010    4.9480663   -0.7456272 
C    -2.9977833    1.8338975    0.2232305 
C     2.1579168    5.1423163    0.6000482 
C    -4.0899934    3.0184075   -2.0709929 
C     4.8009137    2.3974392   -0.1673711 
C     1.5873779   -4.4225209    1.6998629 
C     5.3024705    1.1593483    1.8583890 
C     0.2592429    6.2051411   -0.4769962 
C    -4.3871019    1.9628541    0.0967900 
C     3.9495038   -4.1747599    1.1911850 
C    -4.9355266    2.5596358   -1.0486970 
C     1.4879958    6.3067191    0.1938364 
C     5.5675478    2.2347322    0.9966048 
C     2.8835088   -4.9558021    1.6641101 
H    -3.3468597   -1.8760434   -2.4813430 
H    -2.0248206   -3.5350756   -0.2725617 
H    -1.7085236   -4.4675831   -2.6457675 
H    -2.3486259   -3.5378662   -4.0159685 
H    -4.3589222   -3.8278602    0.5546407 
H    -4.9767411   -2.9164508   -0.8403196 
H    -3.8372919   -5.5042659   -3.4192340 
H    -4.6879833   -3.9573762   -3.2538781 
H    -5.1699295   -5.3808772   -1.2651996 
H    -3.4357020   -5.5906174   -0.9579894 
H    -1.4010226   -0.0533479   -1.1332164 
H    -2.4373498   -0.0248808   -2.5693885 
H    -0.2120308   -3.3423226   -1.5042400 
H    -0.1233457   -1.8138222   -0.6007364 
H    -2.9544107   -1.8744027    1.1754992 
H    -3.4413984   -0.9582719   -0.0858093 
H     0.6116984   -3.1256405   -4.0325638 
H    -0.4938235   -0.6545652   -4.7468175 
H     4.2297352   -0.3899075   -1.9829934 
H     1.5636698    3.3266480   -2.5547266 
H     1.1907382    0.7223247   -5.9852137 
H     2.7536819   -2.7543159   -5.2732071 
H     2.2414761    2.7042401   -4.8689184 
H     4.5506019   -1.3423893   -4.2336567 
H     2.1094332    2.9810555    0.6810228 
H    -2.0470627    3.2204326   -2.7627783 
H     3.1651727    1.6449968   -1.3664777 
H     0.3478893   -2.6861602    1.3190123 
H    -2.5652241    1.3354884    1.0944056 
H    -1.2693596    4.8896083   -1.2496558 
H     4.0932905   -0.5973289    2.2271291 
H     4.5518853   -2.2766420    0.3445176 
H     4.9947466    3.2371990   -0.8427864 
H     3.1156124    5.2076240    1.1269486 
H    -4.5142718    3.4683712   -2.9746166 
H     0.7533122   -5.0250390    2.0722757 
H    -5.0412995    1.5970998    0.8952549 
H     4.9617601   -4.5906770    1.1531743 
H     5.8973837    1.0243821    2.7677822 
H    -0.2720848    7.1103447   -0.7888801 
H     6.3703788    2.9414838    1.2303988 
H     3.0641170   -5.9815249    2.0019940 
H    -6.0213138    2.6581994   -1.1505518 
H     1.9188879    7.2911147    0.4039472 
