121
Energy =
C    -0.2186533    1.8913101    2.9861423 
C    -0.3916250    0.5068944    3.1931303 
C     0.7089698   -0.4053275    3.1338158 
H    -1.4042222    0.0969632    3.2993715 
Pd    0.4367351    0.5737805    1.1584335 
P    -0.2717051    2.0900059   -0.5297309 
P     2.2344301   -0.5964608    0.1148992 
H     0.8091498    2.2832852    3.0106530 
H     1.6944417   -0.0275839    3.4426144 
C    -3.2488416    4.9282605    3.2444410 
C    -1.9468428    5.2488366    2.8332176 
C    -0.9657571    4.2537461    2.7662696 
C    -1.2719783    2.9111679    3.0892234 
C    -2.5841422    2.6085984    3.5291020 
C    -3.5595350    3.6057519    3.6043579 
H    -4.0166121    5.7067631    3.3002450 
H    -1.6902481    6.2785205    2.5649154 
H     0.0490476    4.5130342    2.4495790 
H    -2.8428042    1.5869303    3.8257406 
H    -4.5669940    3.3549468    3.9520741 
C     0.0360781   -4.6027506    3.7803190 
C    -0.8096348   -3.8815741    2.9197492 
C    -0.5872898   -2.5190123    2.6923477 
C     0.4933882   -1.8553722    3.3192213 
C     1.3501285   -2.5943103    4.1611786 
C     1.1161746   -3.9546210    4.3977693 
H    -0.1418397   -5.6680192    3.9608777 
H    -1.6437741   -4.3876740    2.4211440 
H    -1.2246266   -1.9643776    1.9923079 
H     2.2043804   -2.0972039    4.6331397 
H     1.7875007   -4.5137249    5.0574283 
N    -1.2890755   -1.7783358   -2.1434039 
N    -2.9956666   -1.4988157    0.2613535 
C    -2.5550853   -2.5210809   -1.9688684 
C    -2.9995059   -2.7620077   -0.4999307 
C    -2.5093204   -3.8538490   -2.7433873 
C    -4.3507489   -3.5097173   -0.4692286 
C    -3.8485144   -4.6066799   -2.6892959 
C    -4.2972226   -4.8384181   -1.2385502 
C    -0.1650512   -2.2670772   -1.3449024 
C    -1.4075648   -0.3289073   -2.0504131 
C     1.1676329   -2.1261588   -2.0613009 
C    -0.3538033    0.4617245   -2.8117875 
C     2.2666977   -1.3966375   -1.5559982 
C     0.2073665    1.6354786   -2.2469150 
C     0.0339107    0.0847303   -4.1072953 
C     1.3177210   -2.8175117   -3.2809827 
C     1.1318713    2.4042596   -2.9817461 
C     3.5005887   -1.4323727   -2.2491914 
C     2.5220008   -2.8080281   -3.9856087 
C     0.9711879    0.8360671   -4.8271263 
C     3.6254484   -2.1163406   -3.4602895 
C     1.5197134    1.9996603   -4.2659929 
C    -2.0971025    2.3216547   -0.6791491 
C     3.0596509   -1.9730723    1.0391986 
C     3.4517371    0.7869061    0.0681567 
C     0.3877156    3.7895101   -0.2582894 
C     2.3586981   -3.1969831    1.0959778 
C     3.7737765    1.4765636   -1.1190124 
C    -2.9460141    1.8752274    0.3480863 
C     1.6640937    3.9182172    0.3260243 
C     4.3646589   -1.9086481    1.5645855 
C     3.9573053    1.2748758    1.2971583 
C    -0.3536367    4.9527180   -0.5496538 
C    -2.6582620    2.8855750   -1.8446637 
C     2.1964786    5.1846473    0.6018732 
C    -4.3351661    2.0206238    0.2340924 
C     4.6174846    2.5965711   -1.0810142 
C     2.9497383   -4.3298803    1.6644927 
C     4.8113057    2.3850366    1.3270642 
C     0.1798392    6.2181598   -0.2668508 
C    -4.0487276    3.0256049   -1.9588590 
C     4.9469350   -3.0451099    2.1484059 
C    -4.8889835    2.5992997   -0.9180587 
C     1.4541382    6.3386924    0.3081133 
C     5.1506461    3.0453384    0.1351169 
C     4.2451269   -4.2568269    2.1981907 
H    -3.3326449   -1.8900994   -2.4438512 
H    -2.2419604   -3.4180050   -0.0248371 
H    -1.7124059   -4.4954195   -2.3166875 
H    -2.2183587   -3.6356594   -3.7857374 
H    -4.6435672   -3.6813820    0.5845392 
H    -5.1265359   -2.8512309   -0.9104093 
H    -3.7631550   -5.5669139   -3.2281813 
H    -4.6198520   -4.0143302   -3.2195696 
H    -5.2822849   -5.3368990   -1.2105814 
H    -3.5828641   -5.5212174   -0.7370109 
H    -1.3887938   -0.0276413   -0.9808094 
H    -2.4022351   -0.0317857   -2.4323044 
H    -0.3187481   -3.3416451   -1.1447278 
H    -0.1377637   -1.7604349   -0.3529303 
H    -3.4250253   -1.6591767    1.1806574 
H    -3.6028291   -0.8087481   -0.1988641 
H     0.4539957   -3.3656636   -3.6722340 
H    -0.3998103   -0.8248917   -4.5337003 
H     4.3800800   -0.9375860   -1.8267715 
H     1.5525364    3.3149656   -2.5431961 
H     1.2692584    0.5179666   -5.8315142 
H     2.6113233   -3.3551745   -4.9298437 
H     2.2440665    2.5969795   -4.8296654 
H     4.5875545   -2.1242120   -3.9826781 
H     2.2350750    3.0225017    0.5841264 
H    -2.5132350    1.3861279    1.2233928 
H     3.3571538    1.1506567   -2.0749799 
H     1.3441962   -3.2703779    0.6953627 
H    -2.0094448    3.1959965   -2.6712910 
H    -1.3586248    4.8780220   -0.9731622 
H     3.6779624    0.7879566    2.2374875 
H     4.9506410   -0.9883270    1.4960658 
H     4.8557764    3.1201632   -2.0125535 
H     3.1899070    5.2636274    1.0546933 
H    -4.9849842    1.6803202    1.0474248 
H     2.3887280   -5.2686918    1.6989695 
H    -4.4769335    3.4637932   -2.8664217 
H     5.9645006   -2.9814480    2.5482085 
H     5.2063676    2.7382178    2.2852012 
H    -0.4092213    7.1137780   -0.4904137 
H     5.8168926    3.9137298    0.1577116 
H     4.7079705   -5.1427202    2.6450826 
H    -5.9744615    2.7104617   -1.0099163 
H     1.8644380    7.3289493    0.5318181 
