121
Energy =
C    -1.0814017   -0.8798475    2.6141139 
C    -0.8800877    0.4402731    3.0636869 
C    -1.4352740    1.5631365    2.3724257 
H    -0.1738489    0.6111638    3.8853318 
Pd   -0.0602909    0.4562681    1.0105491 
P    -0.0934410    2.0338574   -0.7567044 
P     1.8684645   -0.7645646    0.3783064 
H    -1.8630836   -1.0434091    1.8560224 
H    -2.4120015    1.4347938    1.8903080 
C     0.0864150   -4.4889721    4.6252013 
C    -0.3207510   -4.5222387    3.2822898 
C    -0.6734878   -3.3383808    2.6300550 
C    -0.6201084   -2.0932077    3.3004464 
C    -0.1913369   -2.0747559    4.6491857 
C     0.1506780   -3.2618995    5.3045243 
H     0.3522090   -5.4168241    5.1418538 
H    -0.3608543   -5.4735149    2.7430591 
H    -0.9890436   -3.3699802    1.5828516 
H    -0.1656736   -1.1312653    5.2036660 
H     0.4586160   -3.2321091    6.3547666 
C    -0.3815353    5.6331642    3.3340966 
C     0.4740811    4.5818634    3.7038589 
C     0.1414844    3.2597582    3.3923348 
C    -1.0659910    2.9511384    2.7169789 
C    -1.9205619    4.0202867    2.3606904 
C    -1.5789110    5.3448956    2.6606610 
H    -0.1177525    6.6687469    3.5720801 
H     1.4109381    4.7950538    4.2292659 
H     0.8361736    2.4597176    3.6682432 
H    -2.8588216    3.8084179    1.8393967 
H    -2.2552090    6.1550237    2.3693801 
N    -1.3889253   -2.0301754   -2.0111937 
N    -2.8082167   -3.3309463   -4.1144971 
C    -2.5611620   -2.8989183   -1.7328408 
C    -3.5359865   -2.8731379   -2.9300476 
C    -3.2782518   -2.6059313   -0.3970492 
C    -4.7437019   -3.7933692   -2.6684398 
C    -4.4705949   -3.5492557   -0.1686162 
C    -5.4548213   -3.4708597   -1.3464706 
C    -0.1451312   -2.4659191   -1.3810856 
C    -1.6314560   -0.5980104   -1.8645362 
C     1.0873695   -1.9091364   -2.0814461 
C    -0.9004731    0.2806863   -2.8684293 
C     2.0618055   -1.1214513   -1.4176435 
C    -0.1599870    1.4323900   -2.5096235 
C    -1.0578488   -0.0201812   -4.2354896 
C     1.2530860   -2.1809571   -3.4515703 
C     0.3741024    2.2585111   -3.5263570 
C     3.1468384   -0.5958237   -2.1522145 
C     2.3299636   -1.6580090   -4.1732113 
C    -0.5010373    0.7815532   -5.2333776 
C     3.2735575   -0.8499332   -3.5224098 
C     0.2193625    1.9312729   -4.8758515 
C    -1.6046900    3.0987945   -0.7916041 
C     2.2766941   -2.3565157    1.2159391 
C     3.3261379    0.2319249    0.9131552 
C     1.3464179    3.1588159   -0.6362913 
C     2.5374844   -2.3039561    2.6027813 
C     3.1198744    1.4493708    1.5882784 
C    -2.8532661    2.4786957   -0.5789051 
C     1.3133216    4.2264576    0.2864605 
C     2.4083364   -3.5815588    0.5349253 
C     4.6400494   -0.2663517    0.7712044 
C     2.5520683    2.8665914   -1.3094538 
C    -1.5677046    4.4627624   -1.1390336 
C     2.4570621    5.0076359    0.4988920 
C    -4.0413779    3.2129869   -0.6845819 
C     4.2070826    2.1734036    2.0967328 
C     2.9407788   -3.4534305    3.2885844 
C     5.7254754    0.4677020    1.2650716 
C     3.6892970    3.6548907   -1.0948677 
C    -2.7580127    5.1994073   -1.2277528 
C     2.7983341   -4.7356939    1.2320154 
C    -3.9952716    4.5805487   -0.9976194 
C     3.6444194    4.7297326   -0.1946108 
C     5.5108772    1.6878549    1.9283075 
C     3.0689877   -4.6735700    2.6054629 
H    -2.1587920   -3.9282932   -1.6939997 
H    -3.9220440   -1.8265669   -3.0212916 
H    -3.6436635   -1.5603280   -0.3918648 
H    -2.5530335   -2.6924901    0.4315640 
H    -5.4469326   -3.7179272   -3.5183366 
H    -4.3725586   -4.8357054   -2.6577168 
H    -4.9738026   -3.2991490    0.7826658 
H    -4.1003039   -4.5882670   -0.0687122 
H    -6.2984892   -4.1660596   -1.1907035 
H    -5.8895437   -2.4524495   -1.3930963 
H    -1.3874420   -0.2583864   -0.8218111 
H    -2.7118506   -0.4171771   -2.0019140 
H    -0.1184679   -3.5690550   -1.4225594 
H    -0.1167693   -2.1884251   -0.2995439 
H    -3.3338359   -3.1343013   -4.9716412 
H    -1.9192179   -2.8223263   -4.1691059 
H     0.5029706   -2.7999761   -3.9546355 
H    -1.6380196   -0.9095405   -4.5025539 
H     3.8975714    0.0200324   -1.6495291 
H     0.9045852    3.1774838   -3.2608469 
H    -0.6421282    0.5225341   -6.2878027 
H     2.4317472   -1.8754916   -5.2411969 
H     0.6464631    2.5828433   -5.6449588 
H     4.1165710   -0.4257825   -4.0774976 
H     0.3981516    4.4506876    0.8415745 
H    -2.8970100    1.4143241   -0.3252471 
H     2.0996758    1.8311901    1.7111415 
H     2.4480520   -1.3527017    3.1389309 
H    -0.6127716    4.9568863   -1.3408761 
H     2.6024565    2.0207114   -2.0005759 
H     4.8109447   -1.2353435    0.2896771 
H     2.2465648   -3.6343186   -0.5457273 
H     4.0292528    3.1204298    2.6155405 
H     2.4130042    5.8353447    1.2142668 
H    -5.0035836    2.7181313   -0.5163965 
H     3.1492078   -3.3987932    4.3613488 
H    -2.7153516    6.2628041   -1.4853753 
H     2.9078708   -5.6816378    0.6912943 
H     6.7422218    0.0789034    1.1463551 
H     4.6171217    3.4202442   -1.6264184 
H     6.3626189    2.2526836    2.3216686 
H     3.3842449   -5.5729130    3.1444590 
H    -4.9217163    5.1593005   -1.0705974 
H     4.5355715    5.3433834   -0.0275697 
