121
Energy =
C    -0.9461987    2.1898291    2.5255320 
C    -0.5314130    0.9955149    3.1678993 
C     0.8317239    0.6431450    3.2993334 
H    -1.2964529    0.2898415    3.5115727 
Pd    0.2018913    0.8108903    1.0750326 
P    -0.2844062    2.0811681   -0.8871935 
P     1.9297456   -0.6204559    0.3464964 
H    -0.2042543    2.9968843    2.4365521 
H     1.5734596    1.4415795    3.1563001 
C    -5.0212061    3.5761520    2.4836914 
C    -3.9596196    4.4611497    2.2466930 
C    -2.6416708    3.9916347    2.2495454 
C    -2.3516917    2.6273211    2.4779304 
C    -3.4362605    1.7461779    2.7051855 
C    -4.7520765    2.2165652    2.7152985 
H    -6.0532320    3.9412520    2.4874604 
H    -4.1581433    5.5220718    2.0647716 
H    -1.8165449    4.6933102    2.0903053 
H    -3.2508957    0.6785118    2.8642753 
H    -5.5764074    1.5196583    2.9002653 
C     2.3895524   -2.7487058    5.4410589 
C     0.9999226   -2.6039072    5.2896973 
C     0.4773539   -1.5092832    4.5969833 
C     1.3319688   -0.5291229    4.0366609 
C     2.7257860   -0.6713822    4.2293022 
C     3.2487454   -1.7734589    4.9150545 
H     2.7966439   -3.6110078    5.9788679 
H     0.3218412   -3.3500344    5.7167922 
H    -0.6087970   -1.4199112    4.4903856 
H     3.4021621    0.0941428    3.8377269 
H     4.3321545   -1.8657595    5.0425477 
N    -1.2026793   -1.7439293   -2.4364836 
N    -2.6504837   -1.7779334    0.1528608 
C    -2.2295534   -2.7596555   -2.1048949 
C    -2.4246177   -3.0370501   -0.5869671 
C    -1.9416741   -4.0739691   -2.8589182 
C    -3.5254493   -4.0979702   -0.3712122 
C    -3.0299500   -5.1332422   -2.6221277 
C    -3.2246039   -5.4041844   -1.1224944 
C     0.0349475   -1.9310116   -1.6864490 
C    -1.6687220   -0.3546363   -2.3388980 
C     1.2868401   -1.3228961   -2.2942060 
C    -0.8703665    0.5852217   -3.2193674 
C     2.2536354   -0.7031565   -1.4624065 
C    -0.0931006    1.6412269   -2.6865125 
C    -0.9018251    0.3925034   -4.6115509 
C     1.5426259   -1.4154226   -3.6714931 
C     0.6447392    2.4657036   -3.5632623 
C     3.4297292   -0.1634534   -2.0229287 
C     2.7035605   -0.8658926   -4.2280704 
C    -0.1673418    1.2096095   -5.4754226 
C     3.6466641   -0.2318405   -3.4048019 
C     0.6169655    2.2441201   -4.9454685 
C    -1.9631879    2.8331087   -0.9994656 
C     1.7374836   -2.4007666    0.7902761 
C     3.5348158   -0.0840570    1.0795148 
C     0.8975239    3.4669568   -0.6119281 
C     0.6935077   -2.7908235    1.6471178 
C     3.7118816    1.2897773    1.3429768 
C    -2.1743388    4.0358487   -1.7049239 
C     2.2594090    3.2831788   -0.9409018 
C     2.5476341   -3.3889954    0.1918115 
C     4.5663502   -0.9838345    1.4144946 
C     0.5094114    4.6493181    0.0515025 
C    -3.0673428    2.1140612   -0.5056507 
C     3.2042693    4.2700082   -0.6302105 
C    -3.4753535    4.5221216   -1.8866968 
C     4.9007465    1.7605731    1.9162194 
C     0.4838305   -4.1446697    1.9393456 
C     5.7516174   -0.5117178    1.9967207 
C     1.4610443    5.6282963    0.3715130 
C    -4.3680417    2.5937194   -0.7091360 
C     2.3345673   -4.7435277    0.4840967 
C    -4.5733849    3.8006514   -1.3922368 
C     2.8092297    5.4439767    0.0295993 
C     5.9235148    0.8583463    2.2477019 
C     1.3073413   -5.1231319    1.3625746 
H    -3.1856183   -2.3557457   -2.4926065 
H    -1.4767269   -3.4565193   -0.1983642 
H    -0.9640007   -4.4756492   -2.5256336 
H    -1.8383995   -3.8398336   -3.9325480 
H    -3.6343399   -4.2880703    0.7140705 
H    -4.4931293   -3.6812499   -0.7187552 
H    -2.7705674   -6.0653764   -3.1547997 
H    -3.9855404   -4.7778020   -3.0554014 
H    -4.0367202   -6.1351143   -0.9607439 
H    -2.3020559   -5.8568125   -0.7077106 
H    -1.6340005   -0.0161878   -1.2830566 
H    -2.7279560   -0.3232398   -2.6493711 
H     0.2157836   -3.0137807   -1.5611428 
H    -0.1037923   -1.5205983   -0.6615660 
H    -2.7562711   -1.9930996    1.1512788 
H    -3.5538876   -1.3759812   -0.1301151 
H     0.7954108   -1.9028463   -4.3047875 
H    -1.5032620   -0.4330142   -5.0075896 
H     4.1799502    0.3021968   -1.3753101 
H     1.2301165    3.3034346   -3.1760498 
H    -0.2062080    1.0444117   -6.5571673 
H     2.8743926   -0.9331836   -5.3073843 
H     1.1977122    2.8951199   -5.6071458 
H     4.5573498    0.1973633   -3.8350093 
H     2.5818440    2.3625802   -1.4395571 
H    -1.3249890    4.5850827   -2.1253294 
H     2.9079389    1.9950403    1.1084595 
H     0.0258102   -2.0263801    2.0544703 
H    -2.9022630    1.1756454    0.0332585 
H    -0.5412633    4.8083825    0.3103218 
H     4.4412773   -2.0570963    1.2500955 
H     3.3229474   -3.1033758   -0.5276621 
H     5.0205470    2.8315484    2.1106941 
H     4.2545514    4.1143413   -0.8981102 
H    -3.6327709    5.4595400   -2.4303071 
H    -0.3282238   -4.4354497    2.6139113 
H    -5.2209960    2.0298920   -0.3192539 
H     2.9661098   -5.5051677    0.0150065 
H     6.5420599   -1.2215737    2.2618623 
H     1.1441417    6.5432259    0.8830482 
H     6.8496184    1.2205813    2.7058976 
H     1.1411476   -6.1822167    1.5855172 
H    -5.5897356    4.1786964   -1.5439986 
H     3.5484588    6.2139512    0.2733199 
