121
Energy =
C    -0.9329620    2.1838591    2.5171954 
C    -0.4952834    0.9998993    3.1657103 
C     0.8732151    0.6679193    3.2867928 
H    -1.2472153    0.2864833    3.5222889 
Pd    0.2084770    0.8165747    1.0633305 
P    -0.3028728    2.0816477   -0.8944720 
P     1.9348718   -0.6079904    0.3179774 
H    -0.2049992    3.0028762    2.4226579 
H     1.6028654    1.4737481    3.1247110 
C    -5.0306114    3.5024255    2.5113463 
C    -4.7376125    2.1451066    2.7268197 
C    -3.4141353    1.6970242    2.7044270 
C    -2.3458751    2.5987296    2.4809388 
C    -2.6597619    3.9600234    2.2668814 
C    -3.9854071    4.4073721    2.2767612 
H    -6.0685439    3.8501401    2.5246851 
H    -5.5492478    1.4326029    2.9085826 
H    -3.2092775    0.6308503    2.8492666 
H    -1.8475756    4.6770255    2.1085029 
H    -4.2027774    5.4664698    2.1062202 
C     2.5043153   -2.6903290    5.4257891 
C     1.1106255   -2.5588675    5.3019954 
C     0.5642688   -1.4749863    4.6108239 
C     1.3986620   -0.4923568    4.0247936 
C     2.7973799   -0.6205151    4.1904131 
C     3.3439993   -1.7123316    4.8739726 
H     2.9299289   -3.5442191    5.9626833 
H     0.4481220   -3.3070040    5.7495274 
H    -0.5245700   -1.3954754    4.5263238 
H     3.4587873    0.1474832    3.7786822 
H     4.4305840   -1.7945805    4.9792866 
N    -1.2325556   -1.7651024   -2.4032760 
N    -2.6294300   -1.7866299    0.2143785 
C    -2.2540138   -2.7781062   -2.0472608 
C    -2.4192131   -3.0491089   -0.5246005 
C    -1.9830444   -4.0958227   -2.8016292 
C    -3.5165502   -4.1079058   -0.2824462 
C    -3.0679878   -5.1523989   -2.5389449 
C    -3.2327903   -5.4173867   -1.0346959 
C     0.0191057   -1.9503017   -1.6759889 
C    -1.6949946   -0.3751033   -2.3020492 
C     1.2575996   -1.3383923   -2.3068488 
C    -0.9169708    0.5616382   -3.2038027 
C     2.2322413   -0.7050555   -1.4948418 
C    -0.1408643    1.6293169   -2.6932400 
C    -0.9712296    0.3574445   -4.5937396 
C     1.4924876   -1.4391663   -3.6872898 
C     0.5700933    2.4563527   -3.5898020 
C     3.3953596   -0.1608844   -2.0776790 
C     2.6403231   -0.8850946   -4.2660546 
C    -0.2619059    1.1758954   -5.4769975 
C     3.5913663   -0.2381185   -3.4622098 
C     0.5191116    2.2241959   -4.9694906 
C    -1.9800225    2.8398766   -0.9888844 
C     1.7619523   -2.3853989    0.7817767 
C     3.5470710   -0.0537526    1.0213920 
C     0.8872463    3.4643481   -0.6412923 
C     0.7371988   -2.7727896    1.6627859 
C     3.7158047    1.3226849    1.2762893 
C    -3.0837993    2.1146462   -0.5030387 
C     0.5159189    4.6374718    0.0482131 
C     2.5662951   -3.3749970    0.1778647 
C     4.5927559   -0.9425492    1.3415184 
C     2.2397847    3.2869752   -1.0095409 
C    -2.1919886    4.0523683   -1.6770778 
C     1.4742982    5.6143054    0.3536693 
C    -4.3846674    2.5969416   -0.6987208 
C     4.9101146    1.8069118    1.8265853 
C     0.5411901   -4.1247112    1.9726653 
C     5.7835369   -0.4570822    1.9009929 
C     3.1911905    4.2719743   -0.7130236 
C    -3.4932493    4.5410902   -1.8507274 
C     2.3670723   -4.7276846    0.4880591 
C    -4.5908377    3.8128857   -1.3654454 
C     2.8127071    5.4371141   -0.0285460 
C     5.9469015    0.9155864    2.1435832 
C     1.3593449   -5.1042359    1.3900747 
H    -3.2171152   -2.3743935   -2.4174011 
H    -1.4641864   -3.4677242   -0.1527970 
H    -0.9994906   -4.4977281   -2.4863719 
H    -1.9009530   -3.8660927   -3.8780382 
H    -3.6035680   -4.2936804    0.8055344 
H    -4.4906310   -3.6913083   -0.6118568 
H    -2.8209124   -6.0869394   -3.0732308 
H    -4.0315651   -4.7969377   -2.9541411 
H    -4.0425616   -6.1464206   -0.8538100 
H    -2.3027682   -5.8699366   -0.6368623 
H    -1.6368151   -0.0317026   -1.2487460 
H    -2.7609003   -0.3441343   -2.5890007 
H     0.2045300   -3.0327299   -1.5544092 
H    -0.1018900   -1.5401422   -0.6490103 
H    -2.7117045   -1.9974163    1.2159250 
H    -3.5396915   -1.3870203   -0.0492780 
H     0.7392999   -1.9368562   -4.3053743 
H    -1.5709745   -0.4774542   -4.9722289 
H     4.1518014    0.3155966   -1.4453559 
H     1.1524519    3.3038970   -3.2196828 
H    -0.3184401    1.0016981   -6.5565494 
H     2.7945818   -0.9586503   -5.3474524 
H     1.0790539    2.8773888   -5.6467498 
H     4.4921169    0.1944051   -3.9096710 
H    -0.5273254    4.7909253    0.3388852 
H    -2.9185299    1.1701859    0.0247481 
H     2.9013305    2.0193464    1.0528012 
H     0.0733279   -2.0079699    2.0757326 
H    -1.3433195    4.6078599   -2.0904762 
H     2.5504483    2.3722088   -1.5259433 
H     4.4749865   -2.0175318    1.1830157 
H     3.3258394   -3.0923203   -0.5593737 
H     5.0232336    2.8797679    2.0145192 
H     1.1704247    6.5219062    0.8857375 
H    -5.2371163    2.0279542   -0.3153020 
H    -0.2558899   -4.4132157    2.6658172 
H    -3.6510567    5.4859303   -2.3812185 
H     2.9940780   -5.4904285    0.0146942 
H     6.5852189   -1.1584114    2.1548425 
H     4.2340538    4.1212776   -1.0109510 
H     6.8774693    1.2882739    2.5840112 
H     1.2041087   -6.1618961    1.6272148 
H    -5.6073442    4.1928138   -1.5112845 
H     3.5570628    6.2057552    0.2035103 
