121
Energy =
C     0.4152356    0.0566861    3.4387485 
C     0.1299601    1.4400503    3.3253330 
C    -1.0942801    1.9101927    2.7861663 
H     0.9131313    2.1644190    3.5755102 
Pd    0.1266102    0.7041931    1.2499678 
P     1.7571284   -0.7922858    0.4280055 
P    -0.7498579    1.8894453   -0.6250582 
H    -0.4448463   -0.6288475    3.4215719 
H    -1.9447656    1.2151223    2.8115093 
C     3.9035660   -1.6130366    5.3262797 
C     2.8159521   -2.4285965    4.9827590 
C     1.6931442   -1.8733812    4.3585884 
C     1.6352928   -0.4941643    4.0524902 
C     2.7453394    0.3125695    4.3989384 
C     3.8603542   -0.2397138    5.0335751 
H     4.7803683   -2.0424517    5.8217944 
H     2.8355385   -3.4992370    5.2110222 
H     0.8417015   -2.5150090    4.1141536 
H     2.7422040    1.3823648    4.1720065 
H     4.7056317    0.4038947    5.2959047 
C    -2.2611808    6.0495653    2.6722860 
C    -3.2069257    5.0339593    2.4712086 
C    -2.8096183    3.6916514    2.4867003 
C    -1.4577010    3.3346250    2.6965309 
C    -0.5121623    4.3730149    2.8723693 
C    -0.9119671    5.7113513    2.8705767 
H    -2.5704429    7.0998610    2.6711550 
H    -4.2608630    5.2854702    2.3137963 
H    -3.5577453    2.9053544    2.3470973 
H     0.5474696    4.1367993    3.0078955 
H    -0.1650998    6.4982875    3.0146992 
N    -1.2195879   -1.8832133   -2.6173757 
N    -2.8584913   -2.2717376   -0.1874935 
C    -2.2059298   -2.9804669   -2.4899654 
C    -2.5213586   -3.4307383   -1.0358067 
C    -1.7729435   -4.1909754   -3.3408817 
C    -3.5895473   -4.5458696   -1.0442621 
C    -2.8212443   -5.3155219   -3.3272646 
C    -3.1538515   -5.7515323   -1.8918464 
C    -1.7797040   -0.5393335   -2.4319228 
C    -0.0446306   -2.0620939   -1.7699653 
C    -0.9534070    0.5300594   -3.1222303 
C     1.2369516   -1.4219863   -2.2746346 
C    -0.3440847    1.5988996   -2.4187688 
C     2.1524473   -0.8168828   -1.3755300 
C     1.5705467   -1.4871043   -3.6368404 
C    -0.7737861    0.4401828   -4.5135713 
C     3.3536613   -0.2616165   -1.8651117 
C     0.4853159    2.5018486   -3.1193798 
C     0.0314730    1.3491920   -5.2053096 
C     2.7615983   -0.9332324   -4.1187500 
C     0.6817131    2.3711513   -4.4990780 
C     3.6520039   -0.3107702   -3.2319581 
C     1.4845097   -2.5809393    0.7919711 
C    -0.2042118    3.6361446   -0.3902187 
C    -2.5958079    1.9317186   -0.6924330 
C     3.3660633   -0.3473468    1.2115916 
C     1.1681931    3.8499673   -0.1370644 
C    -3.2574132    2.6240499   -1.7289880 
C     2.3417148   -3.5586105    0.2448447 
C     4.2808770   -1.2945681    1.7075653 
C    -1.0627996    4.7464864   -0.4829457 
C    -3.3563095    1.1872779    0.2289123 
C     3.6945535    1.0237812    1.2825290 
C     0.3436771   -2.9899493    1.5072345 
C     5.5133953   -0.8758206    2.2289750 
C     2.0808353   -4.9207205    0.4524527 
C    -4.6571844    2.6100150   -1.8052961 
C     1.6790033    5.1479326   -0.0130190 
C    -4.7550550    1.1660502    0.1449506 
C     4.9311780    1.4380818    1.7925548 
C     0.0808454   -4.3514588    1.7078311 
C    -0.5490122    6.0447378   -0.3518475 
C     0.9540311   -5.3195840    1.1879968 
C     5.8485014    0.4851295    2.2603311 
C    -5.4088432    1.8868482   -0.8661498 
C     0.8190554    6.2509525   -0.1269028 
H    -3.1461381   -2.5869657   -2.9245405 
H    -1.5942729   -3.8629548   -0.6115302 
H    -0.8110432   -4.5804056   -2.9513734 
H    -1.5793402   -3.8394388   -4.3691559 
H    -3.7949345   -4.8567407   -0.0016562 
H    -4.5368271   -4.1286126   -1.4430738 
H    -2.4606771   -6.1748671   -3.9201676 
H    -3.7452308   -4.9566482   -3.8220469 
H    -3.9422729   -6.5250345   -1.8931680 
H    -2.2575635   -6.2124747   -1.4310683 
H     0.1490972   -3.1430253   -1.6500533 
H    -0.2758982   -1.6766150   -0.7532169 
H    -1.8706188   -0.3213196   -1.3508268 
H    -2.8037757   -0.5273687   -2.8462669 
H    -3.0925184   -2.6054209    0.7550610 
H    -3.7173169   -1.8251809   -0.5349084 
H    -1.2568493   -0.3870782   -5.0447096 
H     0.8579852   -1.9632250   -4.3172666 
H     0.9666218    3.3299455   -2.5931234 
H     4.0666278    0.2003766   -1.1762582 
H     2.9955541   -0.9863050   -5.1871000 
H     0.1598337    1.2579395   -6.2889160 
H     4.5861637    0.1264045   -3.5992418 
H     1.3279992    3.0835837   -5.0219473 
H     4.0317615   -2.3585697    1.7096299 
H     3.1982649   -3.2558646   -0.3672975 
H    -2.6772799    3.1589498   -2.4886177 
H     1.8417944    2.9895996   -0.0612121 
H    -0.3630572   -2.2349957    1.8648770 
H     2.9703125    1.7689083    0.9367149 
H    -2.8429843    0.5883019    0.9867384 
H    -2.1358330    4.6075893   -0.6349849 
H    -5.1612865    3.1573641   -2.6085471 
H     6.2123093   -1.6224601    2.6195795 
H     2.7536595   -5.6724555    0.0268754 
H     2.7484315    5.2973071    0.1697775 
H    -0.8135515   -4.6583915    2.2605740 
H    -1.2300474    6.8993270   -0.4163079 
H    -5.3353151    0.5808913    0.8666495 
H     5.1750356    2.5050105    1.8301677 
H    -6.5017337    1.8726033   -0.9323705 
H     1.2132405    7.2677946   -0.0298275 
H     0.7478572   -6.3839718    1.3411794 
H     6.8157031    0.8039055    2.6624473 
