121
Energy =
C     2.9911539   -0.7621092   -1.1029727 
C     2.0003704   -0.6657233   -2.1113173 
C     1.6449491    0.5660513   -2.7125240 
H     1.4494006   -1.5752128   -2.3805025 
Pd    1.2119309    0.5153585   -0.4208958 
P    -0.1796170    2.4691118   -0.3838990 
P     1.1560420   -0.0621688    1.8903372 
H     3.7171880    0.0614728   -1.0293451 
H     2.3715790    1.3868286   -2.6538445 
C     4.4440817   -4.5814502    0.2065792 
C     3.0682632   -4.4033225   -0.0189322 
C     2.5758339   -3.1560890   -0.4090765 
C     3.4501615   -2.0573043   -0.5780588 
C     4.8259753   -2.2409548   -0.3128380 
C     5.3203988   -3.4962946    0.0607138 
H     4.8278989   -5.5614697    0.5076917 
H     2.3772234   -5.2405527    0.1214417 
H     1.5007575   -3.0208364   -0.5651478 
H     5.5136628   -1.3957030   -0.4295004 
H     6.3922597   -3.6270014    0.2419527 
C    -1.1923882    0.9516855   -5.9348999 
C    -1.1610252   -0.2267734   -5.1701571 
C    -0.2516760   -0.3590415   -4.1176210 
C     0.6507557    0.6829686   -3.7938770 
C     0.6180850    1.8520930   -4.5876055 
C    -0.2928640    1.9862423   -5.6416165 
H    -1.9053388    1.0550560   -6.7593538 
H    -1.8464691   -1.0496473   -5.4000805 
H    -0.2455220   -1.2877279   -3.5409469 
H     1.3213958    2.6621794   -4.3764469 
H    -0.2962790    2.9053988   -6.2362778 
N    -2.1438820   -1.4575632   -0.5813187 
N    -4.6941010   -2.7283214   -0.1608673 
C    -2.5228999   -2.6412928   -1.3629977 
C    -3.5454912   -3.5309852   -0.6062069 
C    -1.3200480   -3.4887179   -1.8469679 
C    -3.9421776   -4.7489574   -1.4738801 
C    -1.7472170   -4.6761507   -2.7217170 
C    -2.7380222   -5.5692230   -1.9606030 
C    -1.2504631   -1.6636320    0.5373767 
C    -1.9313157   -0.2062933   -1.2844267 
C    -1.5793011   -0.8270560    1.7647094 
C    -2.6422010    0.9937862   -0.6747913 
C    -0.5881336   -0.1427416    2.5119819 
C    -2.0135862    2.2275765   -0.3846864 
C    -4.0308934    0.8734850   -0.4612258 
C    -2.9150818   -0.8182166    2.2113492 
C    -2.8076536    3.3289089    0.0258846 
C    -0.9545897    0.4853613    3.7232855 
C    -3.2683199   -0.1704679    3.3987976 
C    -4.8004873    1.9571087   -0.0354708 
C    -2.2817339    0.4703788    4.1651956 
C    -4.1887155    3.2025079    0.1849941 
C     0.0387599    3.6085229    1.0653742 
C     2.0861209    1.1147275    2.9546400 
C     1.8660318   -1.6637462    2.4658017 
C     0.2082772    3.5866333   -1.7949019 
C     2.6919655    2.2398363    2.3670643 
C     3.2691413   -1.7791667    2.5698963 
C     0.8700974    4.7458927    1.0328643 
C     1.5598462    3.9367839   -2.0125973 
C     2.2724359    0.8694008    4.3335677 
C     1.0565422   -2.7483042    2.8577070 
C    -0.7869046    4.1428682   -2.6186444 
C    -0.6222492    3.2854507    2.2678136 
C     1.9032766    4.8625028   -3.0065706 
C     1.0588552    5.5184147    2.1881788 
C     3.8462130   -2.9521460    3.0669776 
C     3.4388514    3.1327779    3.1479012 
C     1.6411120   -3.9269170    3.3435785 
C    -0.4367310    5.0549931   -3.6266742 
C    -0.4256946    4.0548525    3.4202328 
C     3.0139555    1.7663673    5.1118607 
C     0.4245290    5.1696126    3.3885292 
C     0.9019330    5.4260307   -3.8152465 
C     3.0346157   -4.0313538    3.4502417 
C     3.5925718    2.9020447    4.5217056 
H    -3.0435267   -2.2519766   -2.2598883 
H    -3.0463183   -3.9078493    0.3099287 
H    -0.7728870   -3.8736611   -0.9646067 
H    -0.6157014   -2.8330537   -2.3900528 
H    -4.6399742   -5.3854958   -0.8986423 
H    -4.5092146   -4.3738153   -2.3506230 
H    -0.8607922   -5.2546389   -3.0381198 
H    -2.2257650   -4.2978070   -3.6466290 
H    -3.0783810   -6.4053394   -2.5968531 
H    -2.2257730   -6.0231433   -1.0893466 
H    -2.3027745   -0.3125338   -2.3173612 
H    -0.8394942    0.0223540   -1.3720713 
H    -0.1825141   -1.4771322    0.2419622 
H    -1.2993891   -2.7255284    0.8366192 
H    -5.2505514   -2.4516817   -0.9800688 
H    -5.3201106   -3.3138211    0.4036842 
H    -3.6646688   -1.3293478    1.5917434 
H    -4.4864213   -0.1109593   -0.6118144 
H    -0.2047355    1.0254674    4.3066334 
H    -2.3293229    4.2894872    0.2422989 
H    -5.8779254    1.8372637    0.1201895 
H    -4.3113067   -0.1699919    3.7325857 
H    -4.7817431    4.0673123    0.4995987 
H    -2.5449935    0.9716150    5.1025842 
H     2.3462853    3.4831885   -1.3966634 
H     1.3675790    5.0482166    0.1079742 
H     3.9094924   -0.9390495    2.2822945 
H     2.5760891    2.4101430    1.2909528 
H    -1.3136814    2.4413824    2.2972681 
H    -1.8353257    3.8631522   -2.4776342 
H    -0.0332478   -2.6633711    2.8273114 
H     1.8524790   -0.0319949    4.7925068 
H     4.9348577   -3.0260823    3.1491715 
H     2.9525329    5.1372629   -3.1566241 
H     1.7049761    6.4014598    2.1437358 
H     3.8983790    4.0089455    2.6801103 
H    -0.9471077    3.7820287    4.3438034 
H     3.1502799    1.5728954    6.1809726 
H     1.0008215   -4.7583093    3.6567082 
H    -1.2185697    5.4766153   -4.2667603 
H     3.4893524   -4.9486812    3.8380596 
H     4.1747390    3.5993703    5.1332011 
H     0.5803340    5.7713506    4.2896752 
H     1.1685945    6.1451169   -4.5965085 
