121
Energy =
C     1.6955226   -1.1631264   -2.5484775 
C     0.3793915   -0.8268544   -2.9530809 
C     0.0195051    0.5023140   -3.2938220 
H    -0.3917088   -1.6072246   -2.9242867 
Pd    0.7048228    0.3368975   -1.1261769 
P    -0.2693822    2.3853683   -0.3794028 
P     1.9981107   -0.1479405    0.8236430 
H     2.5103686   -0.5014713   -2.8788929 
H     0.8330628    1.1798180   -3.5922270 
C     2.7764647   -5.2645513   -1.8702751 
C     1.6081717   -4.7464119   -1.2870200 
C     1.2625984   -3.4070377   -1.4838644 
C     2.0808337   -2.5568896   -2.2590288 
C     3.2656557   -3.0821570   -2.8198870 
C     3.6016171   -4.4294420   -2.6385382 
H     3.0474394   -6.3141380   -1.7172915 
H     0.9716608   -5.3870940   -0.6680185 
H     0.3651005   -2.9974721   -1.0116222 
H     3.9145930   -2.4327750   -3.4184108 
H     4.5143547   -4.8279775   -3.0934571 
C    -3.7875336    1.5067084   -5.0066470 
C    -2.6589903    2.3024285   -5.2532943 
C    -1.4350953    1.9899056   -4.6519062 
C    -1.3114805    0.8682274   -3.8015958 
C    -2.4658612    0.0930639   -3.5366376 
C    -3.6883156    0.4068312   -4.1376386 
H    -4.7447611    1.7475206   -5.4802336 
H    -2.7330100    3.1715429   -5.9142815 
H    -0.5557283    2.6116572   -4.8516047 
H    -2.4065903   -0.7602833   -2.8523457 
H    -4.5700549   -0.2083484   -3.9296582 
N    -2.1172360   -1.2151533    1.3759995 
N    -4.0477827   -2.3416708    3.1240457 
C    -2.9345627   -2.3782655    0.9602388 
C    -3.3455188   -3.2197792    2.1869323 
C    -2.3008251   -3.2493468   -0.1432849 
C    -4.2637775   -4.3765043    1.7503860 
C    -3.2346205   -4.3952759   -0.5646599 
C    -3.6284474   -5.2457087    0.6544349 
C    -0.7323179   -1.5074811    1.7220911 
C    -2.2560538   -0.0262930    0.5443662 
C    -0.1226501   -0.4803382    2.6690277 
C    -2.2446109    1.2671542    1.3494677 
C     1.0862976    0.2067688    2.3873095 
C    -1.3819322    2.3597520    1.0991263 
C    -3.2125839    1.3874027    2.3682227 
C    -0.7864402   -0.2102136    3.8788520 
C    -1.5351282    3.5511707    1.8474469 
C     1.5672513    1.1665966    3.3038068 
C    -0.3077802    0.7443571    4.7802905 
C    -3.3299931    2.5508635    3.1300346 
C     0.8702428    1.4449668    4.4845648 
C    -2.4849998    3.6413790    2.8673492 
C     1.1517006    3.5012321   -0.0448090 
C     3.5655924    0.8180820    0.8422641 
C     2.7179033   -1.8295509    1.1094259 
C    -1.4018597    3.3611784   -1.4804192 
C     3.9368081    1.5391720   -0.3054018 
C     3.8060529   -2.2196236    0.2996280 
C     1.6039987    3.8206426    1.2498107 
C    -1.0995087    4.6319158   -2.0065987 
C     4.4783161    0.7062267    1.9153891 
C     2.2808404   -2.6958322    2.1299419 
C    -2.6956757    2.8322899   -1.6816814 
C     1.8960627    3.9552793   -1.1587342 
C    -2.0708763    5.3522401   -2.7202273 
C     2.7553356    4.6027546    1.4250346 
C     4.4295552   -3.4557929    0.4969166 
C     5.1872672    2.1711192   -0.3731555 
C     2.9021945   -3.9396016    2.3170458 
C    -3.6627195    3.5588793   -2.3821461 
C     3.0257185    4.7613885   -0.9789298 
C     5.7181652    1.3515694    1.8513764 
C     3.4592379    5.0879608    0.3155441 
C    -3.3534001    4.8226009   -2.9073020 
C     3.9721312   -4.3253252    1.4988380 
C     6.0740621    2.0865707    0.7076718 
H    -3.8743535   -1.9454878    0.5705098 
H    -2.4159282   -3.6735012    2.6135392 
H    -1.3536042   -3.6820954    0.2318849 
H    -2.0413572   -2.6115372   -1.0101557 
H    -4.5194189   -4.9918849    2.6329012 
H    -5.2114370   -3.9348413    1.3875652 
H    -2.7469769   -5.0186897   -1.3357972 
H    -4.1476681   -3.9720141   -1.0271494 
H    -4.3268196   -6.0470253    0.3552294 
H    -2.7254909   -5.7479197    1.0551239 
H    -3.2259686   -0.0949241    0.0205523 
H    -1.4685707    0.0098720   -0.2538074 
H    -0.0945664   -1.5872029    0.8072253 
H    -0.7049011   -2.4998853    2.2052854 
H    -4.2355804   -2.8279677    4.0066652 
H    -3.4403946   -1.5428147    3.3364312 
H    -1.7096943   -0.7565742    4.0968826 
H    -3.8801126    0.5375700    2.5499327 
H     2.4909233    1.7091939    3.0881481 
H    -0.9246983    4.4274498    1.6097303 
H    -4.0923470    2.6192240    3.9130581 
H    -0.8524073    0.9436216    5.7085783 
H    -2.5820276    4.5703027    3.4385710 
H     1.2545640    2.2012484    5.1767106 
H    -0.1227454    5.0908266   -1.8361943 
H     1.0609154    3.4574568    2.1250233 
H     4.1800731   -1.5436883   -0.4755030 
H     3.2402297    1.5983169   -1.1492391 
H     1.5964165    3.6670873   -2.1728807 
H    -2.9609902    1.8540504   -1.2744871 
H     1.4867320   -2.3903212    2.8152554 
H     4.2270572    0.0959949    2.7894363 
H     5.2730766   -3.7421871   -0.1382618 
H    -1.8212592    6.3436303   -3.1127717 
H     3.0975593    4.8368440    2.4384067 
H     5.4640742    2.7315134   -1.2717201 
H     3.5802274    5.1201579   -1.8523085 
H     6.4180719    1.2665633    2.6891796 
H     2.5569008   -4.5989768    3.1202979 
H    -4.6602222    3.1314731   -2.5210693 
H     4.4590071   -5.2942709    1.6494719 
H     7.0497468    2.5810937    0.6573157 
H     4.3510902    5.7065475    0.4568620 
H    -4.1113201    5.3929266   -3.4539777 
