121
Energy =
C     3.2389838    0.4795345    0.1855550 
C     2.4731307    1.2952569    1.0546091 
C     2.0475244    0.8575454    2.3324705 
H     2.1473354    2.2754458    0.6856500 
Pd    1.1703396   -0.4285259    0.5981011 
P    -0.4991405   -1.5314895    1.9196549 
P     0.7391454   -1.4378665   -1.5168964 
H     3.7885109   -0.3610080    0.6353320 
H     2.6015899    0.0306250    2.7955618 
C     4.9976582    2.1042483   -3.3754999 
C     3.6847894    2.4630793   -3.0246809 
C     3.0856556    1.9130021   -1.8894453 
C     3.7867533    0.9876675   -1.0816537 
C     5.0923974    0.6077231   -1.4661698 
C     5.6981447    1.1736627   -2.5943469 
H     5.4667213    2.5406898   -4.2631681 
H     3.1241654    3.1670750   -3.6478053 
H     2.0563685    2.1834177   -1.6328885 
H     5.6436774   -0.1164399   -0.8556818 
H     6.7185589    0.8848321   -2.8665950 
C    -0.0932380    3.3349783    5.1370316 
C    -0.0289808    3.7079699    3.7837782 
C     0.6541731    2.9075936    2.8645547 
C     1.2902403    1.7085241    3.2676850 
C     1.2322551    1.3609927    4.6365142 
C     0.5472573    2.1611185    5.5581788 
H    -0.6290727    3.9620808    5.8569535 
H    -0.5099086    4.6318910    3.4447847 
H     0.6919040    3.2219720    1.8184106 
H     1.7361327    0.4535494    4.9800689 
H     0.5172161    1.8637152    6.6113240 
N    -1.7104223    1.9858873   -0.4207162 
N    -4.0530828    3.3168252   -1.4398055 
C    -1.7226011    3.4441160   -0.5911578 
C    -2.7225165    3.8893574   -1.6924563 
C    -0.3247012    4.0609400   -0.8464249 
C    -2.7279288    5.4312665   -1.8209648 
C    -0.3638562    5.5926953   -0.9467373 
C    -1.3324618    6.0289198   -2.0559495 
C    -1.5701492    1.4487187    0.9197102 
C    -1.0432112    1.2074106   -1.4407276 
C    -2.5769385    0.3648467    1.2784179 
C    -1.7487198   -0.0916955   -1.7993004 
C    -2.2310783   -0.8866297    1.8401814 
C    -1.0573990   -1.3189695   -1.9571134 
C    -3.1300817   -0.0333571   -2.0682058 
C    -3.9410254    0.6750866    1.1010716 
C    -1.7614783   -2.4453247   -2.4387357 
C    -3.2615411   -1.7524558    2.2879821 
C    -4.9480027   -0.1933232    1.5248326 
C    -3.8198621   -1.1626762   -2.5189120 
C    -4.6063858   -1.4057321    2.1471146 
C    -3.1297021   -2.3688017   -2.7195721 
C     1.5716103   -0.8038064   -3.0351682 
C    -0.0278569   -1.5603473    3.6993323 
C    -0.7633464   -3.3359018    1.5736381 
C     1.2269650   -3.2099343   -1.5863698 
C    -0.9169660   -1.1921842    4.7251555 
C    -0.1451254   -4.3619879    2.3156982 
C     2.9243700   -1.1437188   -3.2524793 
C     1.1635705   -3.9434495   -2.7922536 
C     1.2617849   -2.0276745    4.0383777 
C    -1.5835715   -3.6876197    0.4824114 
C     1.7495847   -3.8233420   -0.4335188 
C     0.8893612   -0.0445720   -4.0062873 
C     1.5722857   -5.2822547   -2.8214919 
C     3.5744248   -0.7405205   -4.4232777 
C    -0.3196819   -5.7045808    1.9491886 
C    -0.5296820   -1.3140809    6.0689212 
C    -1.7495674   -5.0279429    0.1157609 
C     2.1638940   -5.1620014   -0.4676772 
C     1.5498316    0.3678133   -5.1727397 
C     1.6372040   -2.1673595    5.3809113 
C     2.8910981    0.0209360   -5.3842438 
C     2.0666341   -5.8949870   -1.6583311 
C    -1.1092214   -6.0427978    0.8414548 
C     0.7381108   -1.8119935    6.4004441 
H    -2.1017108    3.8527698    0.3659581 
H    -2.3705983    3.4638890   -2.6546679 
H     0.0821486    3.6516035   -1.7913037 
H     0.3620519    3.7361039   -0.0442505 
H    -3.4174090    5.7195494   -2.6361292 
H    -3.1538421    5.8505292   -0.8862652 
H     0.6506279    5.9881735   -1.1336854 
H    -0.6958723    6.0163279    0.0217955 
H    -1.3935549    7.1303088   -2.1100627 
H    -0.9451418    5.6852540   -3.0354293 
H     0.0171304    0.9793343   -1.1474867 
H    -0.9777840    1.8147828   -2.3606152 
H    -1.7040447    2.2683250    1.6454148 
H    -0.5358368    1.0556183    1.0869507 
H    -4.4640090    3.7705028   -0.6136391 
H    -4.6796065    3.5559740   -2.2167994 
H    -4.1885085    1.6114787    0.5898204 
H    -3.6431013    0.9239517   -1.9031362 
H    -3.0012296   -2.7178297    2.7334985 
H    -1.2456853   -3.4013307   -2.5578882 
H    -4.8944767   -1.1031825   -2.7211820 
H    -6.0000241    0.0730395    1.3774896 
H    -3.6574669   -3.2568022   -3.0830381 
H    -5.3844827   -2.0884392    2.5035882 
H     0.8117193   -3.4611481   -3.7105165 
H     3.4625240   -1.7449794   -2.5125528 
H     0.4655412   -4.1283874    3.1913910 
H    -1.9107325   -0.8069144    4.4776087 
H    -0.1706102    0.1915214   -3.8781143 
H     1.8308614   -3.2428451    0.4920327 
H    -2.1150084   -2.9101984   -0.0695861 
H     1.9738070   -2.2870243    3.2448764 
H     0.1641674   -6.4894420    2.5400428 
H     1.5152353   -5.8466318   -3.7580821 
H     4.6213156   -1.0161436   -4.5826068 
H    -1.2271255   -1.0180320    6.8593028 
H     1.0053567    0.9470815   -5.9259151 
H     2.6340047   -2.5446266    5.6318920 
H    -2.3886556   -5.2763084   -0.7381376 
H     2.5605297   -5.6304255    0.4384028 
H    -1.2363925   -7.0916100    0.5546361 
H     1.0314807   -1.9145442    7.4501965 
H     3.4031239    0.3363621   -6.2991272 
H     2.3884314   -6.9412930   -1.6860541 
