121
Energy =
C     3.2060009   -0.9748171    0.0645474 
C     2.9602786   -0.6995190   -1.3172569 
C     2.3967476    0.5193761   -1.7422430 
H     3.0913100   -1.5002049   -2.0553900 
Pd    1.0255061   -0.6186038   -0.2469814 
P    -1.0681219   -0.7516416   -1.3527657 
P     0.3460561   -1.2380863    1.9381601 
H     3.4968938   -0.1366676    0.7094326 
H     2.3609336    1.3448842   -1.0140465 
C     4.4006399   -4.8716231    1.4727931 
C     3.7513926   -4.7434858    0.2333389 
C     3.3567060   -3.4839021   -0.2283736 
C     3.6156827   -2.3149519    0.5304218 
C     4.2779620   -2.4605325    1.7716091 
C     4.6600564   -3.7242945    2.2387939 
H     4.7045993   -5.8584560    1.8366870 
H     3.5427805   -5.6318890   -0.3719939 
H     2.8304372   -3.4116689   -1.1857505 
H     4.4896836   -1.5732983    2.3758476 
H     5.1666226   -3.8109779    3.2054130 
C     1.8716437    1.8508219   -5.7880729 
C     1.2511803    2.5287411   -4.7269891 
C     1.4111707    2.0703008   -3.4172262 
C     2.1843202    0.9191119   -3.1383785 
C     2.7903136    0.2366286   -4.2200857 
C     2.6405956    0.7046303   -5.5293447 
H     1.7582272    2.2149468   -6.8142490 
H     0.6421713    3.4167397   -4.9225465 
H     0.9346276    2.6031135   -2.5903656 
H     3.4170392   -0.6414046   -4.0341825 
H     3.1347484    0.1787996   -6.3528026 
N    -1.0051471    2.8712517    0.8281991 
N    -2.4578437    5.1536173    1.7028822 
C    -0.4524319    4.2342845    0.6656953 
C    -1.5868516    5.2732999    0.5325153 
C     0.5825053    4.3796211   -0.4680302 
C    -0.9973652    6.6938284    0.4539755 
C     1.1588352    5.8034269   -0.5319709 
C     0.0305888    6.8375543   -0.6784625 
C    -1.5503510    2.2418106   -0.3702525 
C    -0.2226042    1.9585910    1.6507324 
C    -2.6312950    1.2163888   -0.0482887 
C    -1.0685253    1.1494586    2.6260625 
C    -2.5414789   -0.1477538   -0.4253209 
C    -0.9677218   -0.2513323    2.7952770 
C    -1.9577652    1.8699209    3.4491074 
C    -3.7655819    1.6458166    0.6639646 
C    -1.7423957   -0.8871537    3.7942704 
C    -3.5684716   -1.0409101   -0.0477085 
C    -4.7762912    0.7569958    1.0396204 
C    -2.7394421    1.2312822    4.4138767 
C    -4.6706106   -0.5971476    0.6908235 
C    -2.6322554   -0.1574601    4.5865469 
C    -0.1930765   -2.9877315    1.9711744 
C    -1.3476962   -2.5407493   -1.7122664 
C    -1.2727426   -0.0743839   -3.0565893 
C     1.6712986   -1.0604116    3.2145967 
C    -2.4540602   -2.9609691   -2.4833817 
C    -2.2089232    0.9224737   -3.3908373 
C    -1.5480592   -3.3304554    1.7757664 
C     2.4518414    0.1137155    3.1900186 
C    -0.3875822   -3.4882734   -1.3120570 
C    -0.4873230   -0.6550046   -4.0762673 
C     1.8460983   -1.9775970    4.2682251 
C     0.7789194   -4.0108827    2.0041498 
C     3.4106639    0.3534290    4.1824080 
C    -1.9261598   -4.6731658    1.6533801 
C    -2.3555053    1.3318794   -4.7253008 
C    -2.6068728   -4.3134632   -2.8119549 
C    -0.6500177   -0.2556093   -5.4061063 
C     2.8182548   -1.7427729    5.2516475 
C     0.3924717   -5.3519595    1.8785647 
C    -0.5350096   -4.8392641   -1.6558444 
C    -0.9589655   -5.6876558    1.7085830 
C     3.6050431   -0.5826960    5.2102159 
C    -1.5811111    0.7429563   -5.7337997 
C    -1.6483356   -5.2544052   -2.3987502 
H     0.0439971    4.4601632    1.6272416 
H    -2.1140613    5.0767820   -0.4346074 
H     0.0941440    4.1491953   -1.4346310 
H     1.3887300    3.6344566   -0.3273915 
H    -1.8194333    7.4222791    0.3249702 
H    -0.5260683    6.9177212    1.4299595 
H     1.8762183    5.8854571   -1.3682920 
H     1.7267381    6.0090641    0.3962620 
H     0.4450795    7.8610569   -0.6851667 
H    -0.4712324    6.6941818   -1.6559902 
H     0.4958904    2.5569763    2.2384018 
H     0.3924279    1.2649357    1.0156763 
H    -0.7477135    1.7601574   -0.9779214 
H    -1.9885472    3.0323137   -1.0047642 
H    -3.2742856    5.7668366    1.6119083 
H    -2.8029976    4.1896503    1.7572870 
H    -3.8392072    2.7039812    0.9363149 
H    -2.0192151    2.9558266    3.3178988 
H    -3.5028541   -2.0951003   -0.3302263 
H    -1.6374726   -1.9624404    3.9656861 
H    -3.4190206    1.8156831    5.0428666 
H    -5.6426083    1.1176255    1.6031521 
H    -3.2262885   -0.6715293    5.3491207 
H    -5.4509088   -1.3076098    0.9823886 
H     2.3099170    0.8453898    2.3873223 
H    -2.3081516   -2.5465240    1.7186588 
H    -2.8565619    1.3537754   -2.6219972 
H    -3.1867008   -2.2274917   -2.8374759 
H     1.8374922   -3.7658592    2.1267028 
H     1.2268863   -2.8774810    4.3275256 
H     0.2340885   -1.4412805   -3.8282042 
H     0.4790419   -3.1629126   -0.7248568 
H    -3.0940396    2.1005691   -4.9762183 
H     4.0098839    1.2693050    4.1504414 
H    -2.9811173   -4.9255840    1.5054298 
H    -3.4698141   -4.6332687   -3.4053321 
H     1.1584577   -6.1336293    1.9121905 
H     0.2195753   -5.5630803   -1.3328039 
H    -0.0432782   -0.7206439   -6.1888517 
H     2.9545081   -2.4702027    6.0587041 
H    -1.7056660    1.0557425   -6.7756051 
H    -1.7682080   -6.3095696   -2.6661506 
H    -1.2572460   -6.7365855    1.6116576 
H     4.3607656   -0.4027969    5.9816299 
