121
Energy =
C    -2.3076968   -2.7146758   -0.1599861 
C    -2.3035431   -2.0686778   -1.4179277 
C    -1.2372027   -2.2093464   -2.3412637 
H    -3.1213855   -1.3805792   -1.6603912 
Pd   -0.5219819   -1.2477562   -0.3629220 
P     1.6505954   -0.6734169   -1.1715617 
P    -0.3043483   -0.9712330    1.9686343 
H    -1.6108215   -3.5536030   -0.0234763 
H    -0.5739484   -3.0781723   -2.2185878 
C    -5.5446748   -2.7262554    2.6767450 
C    -4.4154008   -3.5344023    2.8703852 
C    -3.3748813   -3.5251615    1.9346169 
C    -3.4309634   -2.6934249    0.7922254 
C    -4.5902707   -1.9033603    0.5988424 
C    -5.6321763   -1.9198383    1.5290621 
H    -6.3602799   -2.7329005    3.4070309 
H    -4.3435163   -4.1804028    3.7513029 
H    -2.5053917   -4.1718370    2.0847675 
H    -4.6818679   -1.2653924   -0.2864419 
H    -6.5205270   -1.3024299    1.3599543 
C    -1.3372298   -0.6684448   -6.3601917 
C    -2.2127699   -0.1454145   -5.3935661 
C    -2.1759167   -0.6177045   -4.0789469 
C    -1.2710000   -1.6379596   -3.6984972 
C    -0.4042020   -2.1577314   -4.6865420 
C    -0.4305446   -1.6755778   -5.9996566 
H    -1.3643408   -0.2929032   -7.3881067 
H    -2.9251560    0.6396140   -5.6684097 
H    -2.8522849   -0.1792931   -3.3375155 
H     0.2856973   -2.9638599   -4.4184548 
H     0.2536490   -2.0922634   -6.7455974 
N     0.8540965    3.0324811    0.6918736 
N    -1.8356291    2.5776414   -0.4323981 
C    -0.0867919    4.1408213    0.4144901 
C    -1.1479784    3.8577197   -0.6855502 
C     0.6827830    5.4379333    0.0944905 
C    -2.0939815    5.0704615   -0.8304310 
C    -0.2589512    6.6412906   -0.0766823 
C    -1.3288001    6.3659837   -1.1448817 
C     1.3980048    2.4037641   -0.5155112 
C     0.3384724    2.0281804    1.6195219 
C     2.7568935    1.7756325   -0.2852338 
C     1.3967290    1.2306318    2.3664601 
C     2.9814460    0.3841727   -0.4121235 
C     1.2211054   -0.1575277    2.5971970 
C     2.5439094    1.8573588    2.8783720 
C     3.8282399    2.6137045    0.0699465 
C     2.2036245   -0.8901684    3.2949932 
C     4.2692548   -0.1330041   -0.1528345 
C     5.1018816    2.0970096    0.3231801 
C     3.5226933    1.1270406    3.5624336 
C     5.3179454    0.7152343    0.2227144 
C     3.3581037   -0.2515835    3.7643528 
C    -1.6382382    0.0024772    2.7875677 
C     1.7452481   -0.0106266   -2.8880184 
C     2.3821938   -2.3635937   -1.2058891 
C    -0.3152137   -2.6205738    2.7968491 
C     0.6820503    0.7667061   -3.3831338 
C     2.4476402   -3.1353072   -2.3831485 
C    -2.7894763    0.3472347    2.0585077 
C    -0.8557819   -2.8286264    4.0813685 
C     2.9228526   -0.1477397   -3.6521195 
C     2.7733613   -2.9495172    0.0194363 
C     0.2164101   -3.7201556    2.0921728 
C    -1.4828391    0.4827217    4.1052675 
C    -0.8555340   -4.1118474    4.6472482 
C    -3.7925857    1.1299478    2.6450844 
C     2.8922663   -4.4650318   -2.3349174 
C     0.7887708    1.3920619   -4.6324994 
C     3.2270997   -4.2740522    0.0607494 
C     0.2239686   -5.0000121    2.6628616 
C    -2.4870778    1.2675750    4.6894229 
C     3.0163519    0.4612927   -4.9100509 
C    -3.6449601    1.5879264    3.9631968 
C    -0.3153622   -5.1990581    3.9433697 
C     3.2830871   -5.0378442   -1.1157933 
C     1.9510126    1.2331744   -5.4003671 
H    -0.6359136    4.3072382    1.3623036 
H    -0.6099401    3.7378370   -1.6470119 
H     1.2669887    5.2932868   -0.8362169 
H     1.4125123    5.6148639    0.9036928 
H    -2.8386825    4.8563204   -1.6211311 
H    -2.6608264    5.1893700    0.1155548 
H     0.3236091    7.5432530   -0.3352054 
H    -0.7556619    6.8529470    0.8906597 
H    -2.0300508    7.2159813   -1.2203990 
H    -0.8422333    6.2684695   -2.1355311 
H    -0.3265336    1.3256419    1.0717976 
H    -0.3021779    2.5387144    2.3625239 
H     1.5000666    3.1706042   -1.3019297 
H     0.6784843    1.6477737   -0.8951668 
H    -2.3527066    2.6318360    0.4548537 
H    -2.5512999    2.4309977   -1.1539824 
H     3.6373787    3.6883026    0.1655433 
H     2.6688124    2.9296613    2.6997292 
H     4.4708392   -1.2010335   -0.2657941 
H     2.0597153   -1.9596985    3.4802746 
H     4.4173657    1.6339501    3.9382781 
H     5.9238658    2.7665241    0.5969860 
H     4.1204755   -0.8281972    4.2981965 
H     6.3087354    0.2925249    0.4187944 
H    -1.3023486   -1.9990988    4.6355465 
H    -2.8782917    0.0203263    1.0192611 
H     2.1577279   -2.6941480   -3.3407274 
H    -0.2250653    0.8870660   -2.7814860 
H    -0.5653330    0.2680544    4.6641768 
H     0.6143164   -3.5763669    1.0825434 
H     2.7273030   -2.3627196    0.9439831 
H     3.7719261   -0.7168930   -3.2580843 
H     2.9402308   -5.0523182   -3.2579824 
H    -1.2873583   -4.2622497    5.6421664 
H    -4.6906405    1.3818249    2.0710794 
H    -0.0435596    1.9936989   -5.0100809 
H    -2.3598315    1.6376820    5.7120634 
H     3.9303764    0.3463193   -5.5019653 
H     3.5319679   -4.7107526    1.0176282 
H     0.6424326   -5.8412347    2.1002473 
H     3.6357391   -6.0738073   -1.0830695 
H     2.0310638    1.7162711   -6.3797416 
H    -4.4262100    2.2029531    4.4218668 
H    -0.3211815   -6.1992824    4.3886866 
