121
Energy =
C    -2.3603532   -2.6664028   -0.2299909 
C    -2.3284508   -2.0002225   -1.4770394 
C    -1.2555404   -2.1493182   -2.3912195 
H    -3.1283987   -1.2904331   -1.7166649 
Pd   -0.5423407   -1.2347488   -0.3886356 
P     1.6494866   -0.6884254   -1.1644136 
P    -0.3456689   -0.9991886    1.9492830 
H    -1.6834693   -3.5225762   -0.1002057 
H    -0.6114034   -3.0332251   -2.2746475 
C    -5.6268253   -2.6516369    2.5728424 
C    -5.6861578   -1.8283980    1.4353677 
C    -4.6344208   -1.8204311    0.5161330 
C    -3.4930971   -2.6359588    0.7106972 
C    -3.4658131   -3.4840526    1.8420423 
C    -4.5160447   -3.4849254    2.7668964 
H    -6.4499650   -2.6516222    3.2946552 
H    -6.5601805   -1.1910524    1.2655811 
H    -4.7040713   -1.1690755   -0.3613562 
H    -2.6112408   -4.1502877    1.9921146 
H    -4.4663443   -4.1441163    3.6395409 
C    -1.2729156   -0.5426572   -6.3854791 
C    -0.3879978   -1.5702557   -6.0285904 
C    -0.3886760   -2.0739910   -4.7233700 
C    -1.2610920   -1.5559768   -3.7393230 
C    -2.1440804   -0.5153119   -4.1160217 
C    -2.1541326   -0.0213175   -5.4231169 
H    -1.2788595   -0.1500086   -7.4073215 
H     0.3001898   -1.9859548   -6.7714003 
H     0.2841414   -2.8954852   -4.4586229 
H    -2.8245982   -0.0783608   -3.3775780 
H    -2.8500253    0.7792632   -5.6953120 
N     0.9072345    3.0013800    0.7491877 
N    -1.7772985    2.6221742   -0.4143944 
C    -0.0069954    4.1338044    0.4802089 
C    -1.0607296    3.8920846   -0.6367079 
C     0.7929282    5.4199582    0.1919999 
C    -1.9799295    5.1265569   -0.7704205 
C    -0.1218395    6.6454589    0.0319766 
C    -1.1846607    6.4112798   -1.0529418 
C     1.4533698    2.3827620   -0.4624086 
C     0.3600913    1.9919271    1.6527339 
C     2.7959599    1.7224416   -0.2262889 
C     1.3930425    1.1624937    2.4004695 
C     2.9923852    0.3284714   -0.3714347 
C     1.1875728   -0.2252155    2.6080317 
C     2.5459571    1.7587306    2.9353778 
C     3.8802852    2.5319219    0.1547668 
C     2.1470847   -0.9874127    3.3061578 
C     4.2649580   -0.2202811   -0.1022476 
C     5.1389963    1.9840910    0.4170935 
C     3.5017843    0.9992000    3.6201071 
C     5.3264109    0.5994751    0.2998195 
C     3.3078767   -0.3787607    3.7991119 
C    -1.6697788   -0.0108385    2.7668186 
C     1.7748471    0.0035467   -2.8673110 
C     2.3484207   -2.3917511   -1.2217346 
C    -0.3987875   -2.6600811    2.7525344 
C     2.9590112   -0.1385402   -3.6202753 
C     2.7069944   -3.0092163   -0.0019184 
C    -1.5211375    0.4460054    4.0936018 
C    -0.9549656   -2.8754005    4.0292004 
C     0.7300093    0.8068397   -3.3601628 
C     2.4186118   -3.1415077   -2.4127847 
C     0.1151910   -3.7604715    2.0361165 
C    -2.8039444    0.3696347    2.0288340 
C    -0.9884179   -4.1667050    4.5753308 
C    -2.5163061    1.2424386    4.6775821 
C     3.1326204   -4.3434687    0.0209025 
C     3.0771393    0.4921612   -4.8654228 
C     2.8354863   -4.4807775   -2.3833931 
C     0.0890703   -5.0486889    2.5871490 
C    -3.7980844    1.1638619    2.6152205 
C     0.8613418    1.4531306   -4.5964372 
C    -3.6580203    1.5979798    3.9421910 
C    -0.4663944   -5.2550155    3.8595440 
C     3.1930836   -5.0852924   -1.1694266 
C     2.0300353    1.2899065   -5.3535757 
H    -0.5637693    4.2953080    1.4244163 
H    -0.5140616    3.7781327   -1.5940218 
H     1.3846323    5.2796821   -0.7346433 
H     1.5168559    5.5672744    1.0122692 
H    -2.7196740    4.9420281   -1.5731464 
H    -2.5551216    5.2403933    0.1711559 
H     0.4820474    7.5395978   -0.2038283 
H    -0.6252361    6.8502283    0.9973468 
H    -1.8673786    7.2768345   -1.1211629 
H    -0.6887009    6.3212163   -2.0396345 
H    -0.3102404    1.3111179    1.0844838 
H    -0.2811110    2.5021204    2.3954896 
H     1.5810478    3.1609358   -1.2338480 
H     0.7232157    1.6486662   -0.8639283 
H    -2.3028499    2.6709761    0.4681882 
H    -2.4879262    2.5036592   -1.1460709 
H     3.7113042    3.6089086    0.2636882 
H     2.6939308    2.8308562    2.7741805 
H     4.4450725   -1.2907173   -0.2280647 
H     1.9801846   -2.0565920    3.4730599 
H     4.4014412    1.4827552    4.0143477 
H     5.9715070    2.6315951    0.7112561 
H     4.0522275   -0.9781934    4.3332552 
H     6.3050087    0.1524912    0.5031335 
H    -1.3880860   -2.0446723    4.5921609 
H    -0.6152192    0.2041700    4.6602655 
H     2.6573321   -2.4394988    0.9330625 
H     3.7944004   -0.7280324   -3.2268859 
H    -2.8860005    0.0613059    0.9833711 
H     0.5257570   -3.6104632    1.0324154 
H     2.1542061   -2.6759907   -3.3661796 
H    -0.1819934    0.9308837   -2.7666991 
H     3.4120929   -4.8048816    0.9739355 
H    -1.4323462   -4.3223942    5.5640859 
H    -2.3943241    1.5941318    5.7073372 
H     3.9962609    0.3736390   -5.4486701 
H    -4.6832105    1.4435420    2.0340396 
H     0.0431804    2.0749149   -4.9723502 
H     2.8875258   -5.0507992   -3.3169992 
H     0.4939087   -5.8904365    2.0154406 
H     3.5235927   -6.1288819   -1.1512399 
H     2.1293748    1.7897460   -6.3227309 
H    -4.4322851    2.2218234    4.4007928 
H    -0.4987371   -6.2615184    4.2892996 
