121
Energy =
C    -1.6299922   -1.0143982   -2.5182227 
C    -2.5847603   -1.2210231   -1.4732600 
C    -2.8904404   -0.2172378   -0.5328268 
H    -2.9909345   -2.2278792   -1.3148037 
Pd   -0.6341575   -0.7227847   -0.5476575 
P     1.5761997   -0.5725217   -1.3805364 
P    -0.1624889   -1.0958482    1.7375018 
H    -1.5659814   -0.0139754   -2.9623615 
H    -2.5376970    0.8133280   -0.7161075 
C    -0.2018482   -4.2378296   -5.0048286 
C    -0.7546764   -4.5165192   -3.7437173 
C    -1.2145429   -3.4760847   -2.9301737 
C    -1.1516027   -2.1281052   -3.3636440 
C    -0.6005493   -1.8660656   -4.6394142 
C    -0.1257154   -2.9075726   -5.4463890 
H     0.1647633   -5.0517722   -5.6387064 
H    -0.8163311   -5.5501924   -3.3874734 
H    -1.6157722   -3.7150875   -1.9398336 
H    -0.5410447   -0.8342632   -4.9980824 
H     0.3017545   -2.6771983   -6.4276003 
C    -5.9813165   -0.3666762    2.4453115 
C    -4.9885317    0.6247451    2.4946894 
C    -3.9695205    0.6413459    1.5393593 
C    -3.9168610   -0.3310659    0.5121106 
C    -4.9141280   -1.3347880    0.4875183 
C    -5.9370510   -1.3476368    1.4418621 
H    -6.7857531   -0.3768595    3.1878688 
H    -5.0058307    1.3799556    3.2865159 
H    -3.1855673    1.4015508    1.5817358 
H    -4.9158838   -2.0872155   -0.3075990 
H    -6.7121007   -2.1196897    1.3956644 
N     0.3549821    3.0406975    0.8716145 
N    -2.3787813    3.1393348   -0.2771264 
C    -0.4006169    4.2946344    0.6889387 
C    -1.4623375    4.2818324   -0.4428634 
C     0.5697956    5.4809686    0.5003953 
C    -2.1815084    5.6468481   -0.5253187 
C    -0.1548204    6.8325488    0.3986043 
C    -1.2038108    6.8146787   -0.7225487 
C     0.8835970    2.4020986   -0.3220711 
C    -0.1185684    2.0880516    1.8675439 
C     2.3263194    1.9238310   -0.2098135 
C     1.0457159    1.3359095    2.5109046 
C     2.7582076    0.6459550   -0.6364315 
C     1.1778156   -0.0760597    2.4799629 
C     2.0597166    2.0960945    3.1214814 
C     3.2905472    2.8426218    0.2480697 
C     2.3432244   -0.6756837    3.0057500 
C     4.1413489    0.3487488   -0.6504551 
C     4.6512358    2.5306174    0.2656225 
C     3.2017450    1.4954548    3.6578196 
C     5.0811388    1.2776744   -0.1969470 
C     3.3530878    0.1032004    3.5806876 
C    -1.5121913   -1.0421883    2.9963603 
C     1.6990794   -0.0226128   -3.1419537 
C     2.3923792   -2.2092963   -1.2745915 
C     0.3020579   -2.8746798    1.9024389 
C     2.6697537   -0.5294291   -4.0274631 
C     3.1179309   -2.5754893   -0.1198741 
C    -2.5293127   -2.0167585    2.8933583 
C     0.2402857   -3.7057305    0.7680731 
C     0.8696635    1.0356730   -3.5667869 
C     2.1421224   -3.1801137   -2.2673757 
C     0.5711577   -3.4482205    3.1647493 
C    -1.5282783   -0.1413905    4.0778374 
C     0.4661570   -5.0843746    0.8827142 
C    -3.5275024   -2.1012599    3.8682451 
C     3.6247900   -3.8735704    0.0135356 
C     2.7741492   -0.0155209   -5.3280826 
C     2.6454255   -4.4801775   -2.1220688 
C     0.8155474   -4.8227821    3.2732796 
C    -2.5402772   -0.2231006    5.0472629 
C     0.9881609    1.5588146   -4.8610005 
C    -3.5359873   -1.2039274    4.9484545 
C     0.7634296   -5.6426897    2.1331869 
C     3.3945668   -4.8280831   -0.9884767 
C     1.9337818    1.0250436   -5.7501261 
H    -0.9441134    4.4557966    1.6408571 
H    -0.9306820    4.1241754   -1.4022144 
H     1.1638283    5.3117369   -0.4201496 
H     1.2831331    5.4792451    1.3432884 
H    -2.9219470    5.6136830   -1.3469277 
H    -2.7558125    5.7964875    0.4120558 
H     0.5787334    7.6415875    0.2339878 
H    -0.6546656    7.0507969    1.3628803 
H    -1.7540059    7.7715106   -0.7579048 
H    -0.6960201    6.7052036   -1.7011651 
H    -0.8430757    1.3643779    1.4244991 
H    -0.6654771    2.6478455    2.6470278 
H     0.8499779    3.1243012   -1.1561552 
H     0.2230185    1.5498896   -0.6286370 
H    -2.9381782    3.2874374    0.5732678 
H    -3.0706626    3.1568268   -1.0371818 
H     2.9443343    3.8194847    0.5986038 
H     1.9531767    3.1860301    3.1345941 
H     4.4892172   -0.6161408   -1.0300090 
H     2.4636846   -1.7617560    2.9637397 
H     3.9795731    2.1107324    4.1213683 
H     5.3781493    3.2670577    0.6237452 
H     4.2526052   -0.3796931    3.9760682 
H     6.1461842    1.0246719   -0.2127602 
H     0.0173064   -3.2645827   -0.2107938 
H    -2.5221244   -2.7265220    2.0590099 
H     3.2837150   -1.8454905    0.6777587 
H     3.3474355   -1.3266339   -3.7077179 
H    -0.7321671    0.6001998    4.1918271 
H     0.5690353   -2.8228253    4.0640484 
H     1.5556653   -2.9263829   -3.1548339 
H     0.1229251    1.4504288   -2.8818823 
H     4.1895106   -4.1430616    0.9117502 
H     0.4185525   -5.7150393   -0.0104808 
H    -4.3054195   -2.8659374    3.7816338 
H     3.5233850   -0.4279395   -6.0119010 
H    -2.5355788    0.4735332    5.8923057 
H     0.3362254    2.3797233   -5.1777275 
H     2.4463305   -5.2202294   -2.9041030 
H     1.0300189   -5.2596683    4.2541878 
H     3.7894260   -5.8435147   -0.8804312 
H     2.0210818    1.4249671   -6.7655309 
H    -4.3176371   -1.2724024    5.7120637 
H     0.9447762   -6.7187396    2.2255224 
