121
Energy =
C    -2.0152731   -0.3237618   -2.4400228 
C    -2.4890406   -1.3728920   -1.6263494 
C    -2.9502317   -1.0827166   -0.3074562 
H    -2.4553370   -2.4087352   -1.9843443 
Pd   -0.7329704   -0.6690471   -0.4725943 
P    -0.3758478   -0.9408239    1.8251008 
P     1.4142445   -0.3294497   -1.4180813 
H    -2.2814373    0.6830131   -2.0975600 
H    -3.2581906   -0.0431260   -0.1304902 
C    -0.8436544   -0.4077279   -6.5703633 
C    -1.1121220    0.8062920   -5.9205771 
C    -1.4811677    0.8095872   -4.5709638 
C    -1.6045345   -0.3989323   -3.8441596 
C    -1.3634705   -1.6150974   -4.5254678 
C    -0.9750763   -1.6178934   -5.8671760 
H    -0.5453528   -0.4144962   -7.6237491 
H    -1.0288104    1.7528059   -6.4646720 
H    -1.6721048    1.7610339   -4.0630432 
H    -1.4773892   -2.5671394   -4.0019161 
H    -0.7771523   -2.5692892   -6.3709365 
C    -4.8946052   -3.9147069    2.2809776 
C    -5.0170911   -2.5361707    2.5066791 
C    -4.3591012   -1.6266826    1.6702882 
C    -3.5637904   -2.0752015    0.5906196 
C    -3.4328333   -3.4696987    0.3902897 
C    -4.0965721   -4.3762912    1.2207628 
H    -5.4141182   -4.6283017    2.9288080 
H    -5.6355216   -2.1656257    3.3308121 
H    -4.4712382   -0.5519313    1.8434336 
H    -2.8028184   -3.8516044   -0.4189818 
H    -3.9856283   -5.4511322    1.0463997 
N     0.8148017    2.2533497    1.0221471 
N    -1.4952530    2.4531001   -0.7046666 
C    -0.1115812    3.4275075    1.0995910 
C    -0.9123759    3.6973061   -0.1910920 
C     0.5206394    4.7549553    1.5833569 
C    -2.0230851    4.7232286    0.1015036 
C    -0.5703606    5.8021434    1.8702901 
C    -1.4490351    6.0445125    0.6333073 
C     1.2086224    1.8940770    2.4025671 
C     2.0405613    2.4293679    0.2129267 
C     1.9261938    0.5717021    2.6284009 
C     1.8574624    2.4975296   -1.2962690 
C     1.3058118   -0.7092121    2.5624173 
C     1.5855988    1.3656269   -2.1214713 
C     2.0160031    3.7477857   -1.9244129 
C     3.2494593    0.6403234    3.1059437 
C     1.4041673    1.5471857   -3.5085611 
C     1.9954277   -1.8339140    3.0619420 
C     3.9424135   -0.4885162    3.5606117 
C     1.8493067    3.9178001   -3.3052460 
C     3.2963887   -1.7277684    3.5692548 
C     1.5215051    2.8124886   -4.0978809 
C     3.0512818   -0.6728480   -0.6219309 
C    -0.7665522   -2.7004962    2.2157842 
C    -1.4294803    0.1048560    2.9111435 
C     1.6345708   -1.5537317   -2.7894973 
C    -1.5340089   -3.1161277    3.3185753 
C    -1.2943962    0.0210965    4.3152351 
C     3.1954130   -1.8796192    0.0852501 
C     0.9237126   -2.7649408   -2.6911862 
C    -0.2325233   -3.6773315    1.3452367 
C    -2.3090117    1.0519013    2.3540086 
C     2.6175736   -1.4142983   -3.7910981 
C     4.1922265    0.1122444   -0.8871990 
C     1.1707651   -3.8132263   -3.5890708 
C     4.4568396   -2.2932042    0.5304039 
C    -2.0719293    0.8378464    5.1460579 
C    -1.7296834   -4.4834724    3.5637994 
C    -3.0799767    1.8719061    3.1924686 
C     2.8411449   -2.4508064   -4.7057952 
C     5.4509656   -0.2985313   -0.4275449 
C    -0.4147035   -5.0411092    1.6030782 
C     5.5869770   -1.5020853    0.2796386 
C     2.1203737   -3.6522966   -4.6067563 
C    -2.9728774    1.7587241    4.5857930 
C    -1.1597755   -5.4473911    2.7208574 
H    -0.8519716    3.1201888    1.8602210 
H    -0.2251804    4.1585911   -0.9306710 
H     1.2080996    5.1494182    0.8108066 
H     1.1250072    4.5884225    2.4919284 
H    -2.6066732    4.8974644   -0.8218588 
H    -2.7202144    4.2808615    0.8393327 
H    -0.1083662    6.7464471    2.2094253 
H    -1.2031142    5.4410511    2.7048706 
H    -2.2664754    6.7483524    0.8706391 
H    -0.8402125    6.5237107   -0.1584859 
H     2.6822936    1.5696126    0.4622406 
H     2.6058720    3.3321738    0.5316325 
H     0.2880659    1.8993085    3.0086936 
H     1.8675150    2.6782944    2.8340931 
H    -1.8187515    2.6181871   -1.6641048 
H    -0.7391851    1.7553345   -0.7750137 
H     3.7348238    1.6221917    3.1486388 
H     2.2703912    4.6137914   -1.3031147 
H     1.5118822   -2.8140330    3.0540041 
H     1.1739070    0.6884272   -4.1422920 
H     1.9736203    4.9084664   -3.7541452 
H     4.9696684   -0.3911471    3.9254799 
H     1.3730221    2.9207490   -5.1771798 
H     3.8020988   -2.6188601    3.9548971 
H     0.1679964   -2.8785280   -1.9033028 
H     2.3197263   -2.5066363    0.2777681 
H    -0.5649163   -0.6666462    4.7568851 
H    -2.0004476   -2.3805301    3.9784186 
H     4.1035506    1.0396092   -1.4629737 
H     3.2219993   -0.5031832   -3.8500315 
H    -2.3481280    1.1976286    1.2687493 
H     0.3289135   -3.3609446    0.4583146 
H    -1.9666522    0.7633223    6.2334094 
H     0.6124012   -4.7511395   -3.4987228 
H     4.5542673   -3.2346847    1.0799518 
H    -2.3397588   -4.7930408    4.4183746 
H     6.3299746    0.3206192   -0.6352915 
H     0.0175408   -5.7855646    0.9262323 
H    -3.7554036    2.6115193    2.7493280 
H     3.5965460   -2.3275983   -5.4888222 
H    -3.5761785    2.3992534    5.2376057 
H    -1.3107316   -6.5127558    2.9233237 
H     6.5726532   -1.8251330    0.6300414 
H     2.3091633   -4.4644662   -5.3164746 
