121
Energy =
C    -2.3666941   -2.6593938   -0.2245571 
C    -2.3323893   -1.9938153   -1.4716307 
C    -1.2587556   -2.1452283   -2.3849829 
H    -3.1307854   -1.2825965   -1.7122841 
Pd   -0.5442075   -1.2308665   -0.3850525 
P     1.6509077   -0.6990272   -1.1582523 
P    -0.3502583   -0.9883669    1.9527538 
H    -1.6903401   -3.5157225   -0.0929938 
H    -0.6184151   -3.0319831   -2.2692562 
C    -5.6344626   -2.6369462    2.5764623 
C    -5.6930666   -1.8165390    1.4368911 
C    -4.6408485   -1.8110434    0.5182154 
C    -3.4998350   -2.6264126    0.7154032 
C    -3.4733227   -3.4717571    1.8488297 
C    -4.5239725   -3.4699959    2.7731979 
H    -6.4580121   -2.6350006    3.2978064 
H    -6.5669221   -1.1795252    1.2650214 
H    -4.7099888   -1.1620750   -0.3610755 
H    -2.6189613   -4.1377910    2.0009612 
H    -4.4748516   -4.1269513    3.6475570 
C    -1.2763579   -0.5381216   -6.3791100 
C    -2.1489066   -0.0086824   -5.4132755 
C    -2.1380339   -0.5026602   -4.1061707 
C    -1.2631067   -1.5513397   -3.7329416 
C    -0.3986022   -2.0765969   -4.7200992 
C    -0.3987905   -1.5731051   -6.0254348 
H    -1.2829996   -0.1457034   -7.4010380 
H    -2.8384587    0.7982890   -5.6827306 
H    -2.8110372   -0.0591986   -3.3646893 
H     0.2684613   -2.9036859   -4.4580039 
H     0.2830829   -1.9946336   -6.7707698 
N     0.9116231    3.0028877    0.7392308 
N    -1.7720714    2.6213396   -0.4259987 
C    -0.0000046    4.1352929    0.4612271 
C    -1.0522122    3.8880200   -0.6559364 
C     0.8032552    5.4176348    0.1653466 
C    -1.9683703    5.1235142   -0.8003498 
C    -0.1084000    6.6439955   -0.0055531 
C    -1.1696527    6.4043027   -1.0907711 
C     1.4574035    2.3745448   -0.4674180 
C     0.3610377    2.0008910    1.6490560 
C     2.7990395    1.7138085   -0.2270997 
C     1.3915059    1.1716715    2.4003294 
C     2.9948714    0.3194877   -0.3692377 
C     1.1833166   -0.2150298    2.6115455 
C     2.5448037    1.7674543    2.9349713 
C     3.8837488    2.5237122    0.1521173 
C     2.1405695   -0.9769001    3.3131235 
C     4.2680483   -0.2288130   -0.1016444 
C     5.1426300    1.9761719    0.4140237 
C     3.4984722    1.0082156    3.6230010 
C     5.3300787    0.5914557    0.2976741 
C     3.3018693   -0.3688905    3.8056894 
C    -1.6743350    0.0038250    2.7656494 
C     1.7849474   -0.0200435   -2.8657679 
C     2.3425403   -2.4057198   -1.2016342 
C    -0.4065087   -2.6469863    2.7603091 
C     0.7504427    0.7932974   -3.3639577 
C     2.7087374   -3.0126973    0.0211473 
C    -1.5268030    0.4650578    4.0910306 
C    -0.9652062   -2.8585730    4.0364936 
C     2.9671788   -0.1821219   -3.6177224 
C     2.3984569   -3.1678724   -2.3856894 
C     0.1081678   -3.7494794    2.0476722 
C    -2.8075790    0.3823573    2.0252071 
C    -0.9999626   -4.1483662    4.5861187 
C    -2.5217593    1.2647289    4.6709674 
C     3.1297599   -4.3482699    0.0532441 
C     0.8902199    1.4301109   -4.6042371 
C     2.8101661   -4.5084121   -2.3467563 
C     0.0807229   -5.0361632    2.6022038 
C    -3.8014521    1.1798662    2.6075433 
C     3.0932960    0.4387579   -4.8670094 
C    -3.6622236    1.6189068    3.9329911 
C    -0.4769498   -5.2387834    3.8742388 
C     3.1770607   -5.1020101   -1.1301211 
C     2.0566246    1.2468902   -5.3603132 
H    -0.5580257    4.3044506    1.4033606 
H    -0.5039477    3.7660201   -1.6113445 
H     1.3966114    5.2692859   -0.7589866 
H     1.5257805    5.5693924    0.9860388 
H    -2.7070210    4.9347492   -1.6031026 
H    -2.5450667    5.2455402    0.1392748 
H     0.4980315    7.5349630   -0.2467546 
H    -0.6132093    6.8570643    0.9572843 
H    -1.8502438    7.2708949   -1.1666441 
H    -0.6720153    6.3058411   -2.0758074 
H    -0.3123833    1.3196487    1.0851293 
H    -0.2774743    2.5178644    2.3894516 
H     1.5865648    3.1468452   -1.2445277 
H     0.7262900    1.6386339   -0.8640489 
H    -2.2994833    2.6776307    0.4550253 
H    -2.4812909    2.4989660   -1.1583991 
H     3.7149468    3.6008918    0.2593258 
H     2.6949119    2.8388631    2.7709598 
H     4.4480391   -1.2993815   -0.2265612 
H     1.9714807   -2.0452588    3.4830289 
H     4.3985290    1.4912644    4.0169481 
H     5.9754283    2.6240256    0.7065992 
H     4.0445214   -0.9681135    4.3424293 
H     6.3090717    0.1448089    0.4998367 
H    -1.3989632   -2.0261039    4.5964077 
H    -0.6218841    0.2240461    4.6596365 
H     2.6683210   -2.4341383    0.9510940 
H    -0.1604347    0.9320396   -2.7721003 
H    -2.8889893    0.0699664    0.9808973 
H     0.5208568   -3.6022441    1.0444272 
H     2.1270422   -2.7107605   -3.3412258 
H     3.7947724   -0.7801342   -3.2207705 
H     3.4157337   -4.8013949    1.0083115 
H    -1.4457071   -4.3012374    5.5744964 
H    -2.4006512    1.6198907    5.6996358 
H     0.0800176    2.0597516   -4.9842870 
H    -4.6857597    1.4581852    2.0244664 
H     4.0106512    0.3042953   -5.4495753 
H     2.8512851   -5.0879848   -3.2750105 
H     0.4863917   -5.8795607    2.0335218 
H     3.5041737   -6.1465158   -1.1045547 
H     2.1622986    1.7390156   -6.3327369 
H    -4.4361991    2.2454623    4.3883726 
H    -0.5101744   -6.2440599    4.3067924 
