121
Energy =
C    -3.1062427   -0.9964248    0.1787713 
C    -2.7123485   -0.4519035   -1.0650426 
C    -2.1140041   -1.2624342   -2.0674755 
H    -2.7717548    0.6336578   -1.2278220 
Pd   -0.7930770   -1.1028984   -0.2191158 
P     1.3500921   -1.2862024   -1.2333337 
P    -0.1870909   -1.2779446    2.0896935 
H    -3.2301150   -2.0866945    0.2360083 
H    -2.2918818   -2.3469369   -2.0051998 
C    -5.2207936    1.1683437    3.2375293 
C    -4.5368750    1.8712172    2.2305316 
C    -3.8410522    1.1804640    1.2349096 
C    -3.7987695   -0.2343474    1.2295124 
C    -4.5048388   -0.9266156    2.2389376 
C    -5.2084739   -0.2336404    3.2305806 
H    -5.7674942    1.7121990    4.0148438 
H    -4.5554797    2.9666893    2.2207180 
H    -3.3213018    1.7347508    0.4492138 
H    -4.5002702   -2.0207153    2.2430517 
H    -5.7460955   -0.7938307    4.0023255 
C    -1.5161835    0.2468639   -6.0448231 
C    -1.1766088    1.0454366   -4.9391318 
C    -1.3399864    0.5549767   -3.6412958 
C    -1.8373612   -0.7495072   -3.4209700 
C    -2.1466315   -1.5529373   -4.5406929 
C    -2.0024429   -1.0526632   -5.8407984 
H    -1.3906558    0.6339012   -7.0611523 
H    -0.7714219    2.0510263   -5.0936459 
H    -1.0690165    1.1721865   -2.7797693 
H    -2.5255105   -2.5695759   -4.3860743 
H    -2.2642301   -1.6819237   -6.6977791 
N     0.2427190    2.6748279    0.3152441 
N    -2.2481821    3.0469309   -1.3066693 
C    -0.2129037    3.9728028   -0.2160161 
C    -1.0608670    3.8995025   -1.5163571 
C     0.9951700    4.9188092   -0.3941286 
C    -1.4183115    5.3116370   -2.0309108 
C     0.6037593    6.3109346   -0.9120822 
C    -0.1856856    6.2056998   -2.2243214 
C     0.9518711    1.8016145   -0.5959018 
C    -0.6130201    1.9610306    1.2535347 
C     2.2066305    1.1420767   -0.0378423 
C     0.0814970    1.5764758    2.5546144 
C     2.5710908   -0.1855807   -0.3833825 
C     0.2213053    0.2572025    3.0463546 
C     0.5737149    2.6415116    3.3391246 
C     3.1007781    1.9156050    0.7237836 
C     0.7987594    0.0548562    4.3272138 
C     3.8550049   -0.6619553   -0.0440416 
C     4.3635252    1.4264779    1.0778774 
C     1.1511006    2.4327011    4.5920422 
C     4.7539357    0.1441494    0.6640602 
C     1.2493651    1.1265331    5.0989730 
C    -1.5339674   -2.1327201    3.0166765 
C     1.5895405   -0.8611640   -3.0086293 
C     2.0263589   -2.9950266   -1.1827345 
C     1.2747859   -2.3409827    2.5210490 
C     1.0953780   -1.7479520   -3.9887775 
C     1.3497058   -3.9800010   -0.4414100 
C    -2.0200944   -1.6884107    4.2592458 
C     2.5583919   -1.7585569    2.5229418 
C     2.2917632    0.2910237   -3.4142782 
C     3.1805886   -3.3520236   -1.9159009 
C     1.1503721   -3.7106124    2.8307741 
C    -2.0500899   -3.3262907    2.4637944 
C     3.6908494   -2.5348048    2.8005231 
C    -2.9786802   -2.4445785    4.9517873 
C     1.8326272   -5.2952398   -0.3997750 
C     1.3080578   -1.4883997   -5.3464873 
C     3.6618833   -4.6659538   -1.8705189 
C     2.2866615   -4.4833240    3.1060772 
C    -2.9943305   -4.0873137    3.1652377 
C     2.4910226    0.5532618   -4.7774660 
C    -3.4568530   -3.6486974    4.4169602 
C     3.5618060   -3.9015274    3.0838403 
C     2.9921442   -5.6376960   -1.1084312 
C     2.0003168   -0.3340281   -5.7449065 
H    -0.8618426    4.4067459    0.5698344 
H    -0.4432032    3.4015037   -2.2899048 
H     1.7100928    4.4564360   -1.1038321 
H     1.5190460    4.9907737    0.5753465 
H    -1.9877979    5.2149845   -2.9746740 
H    -2.1030768    5.7848548   -1.2971145 
H     1.5090315    6.9287250   -1.0477817 
H    -0.0179855    6.8240951   -0.1522097 
H    -0.4916330    7.2057481   -2.5788939 
H     0.4627303    5.7744565   -3.0126432 
H    -1.0466197    1.0540283    0.7739312 
H    -1.4623235    2.6095364    1.5204010 
H     1.2674778    2.3879685   -1.4775531 
H     0.2694462    1.0065955   -0.9918008 
H    -2.7468368    2.9457740   -2.1996425 
H    -2.9073171    3.5542988   -0.7012670 
H     2.7852367    2.9197421    1.0232251 
H     0.4907656    3.6583107    2.9389348 
H     4.1425426   -1.6852068   -0.2986867 
H     0.9155015   -0.9637056    4.7108947 
H     1.5165700    3.2823384    5.1783394 
H     5.0476848    2.0504511    1.6623622 
H     1.6878156    0.9419055    6.0848683 
H     5.7465175   -0.2427162    0.9166888 
H     2.6730217   -0.6875949    2.3372911 
H    -1.6624897   -0.7472188    4.6862899 
H     0.4373637   -3.7081129    0.1001593 
H     0.5592421   -2.6533173   -3.6855983 
H    -1.7092609   -3.6605875    1.4756421 
H     0.1667261   -4.1851929    2.8729583 
H     3.6923030   -2.6045721   -2.5316776 
H     2.7192272    0.9673665   -2.6684009 
H     1.3009219   -6.0509280    0.1872250 
H     4.6778709   -2.0611285    2.7987805 
H    -3.3547463   -2.0838535    5.9146476 
H     0.9243462   -2.1859281   -6.0971863 
H    -3.3754797   -5.0175888    2.7313307 
H     3.0469566    1.4466795   -5.0807427 
H     4.5585282   -4.9351582   -2.4383919 
H     2.1696429   -5.5452503    3.3462319 
H     3.3701970   -6.6649217   -1.0782018 
H     2.1619706   -0.1320824   -6.8087370 
H    -4.1978486   -4.2389707    4.9657050 
H     4.4481054   -4.5066251    3.3005876 
