121
Energy =
C     1.7164910   -1.8097340    2.2394439 
C     2.5376008   -1.8460010    1.0688330 
C     2.9076007   -0.6716432    0.3849466 
H     2.7812253   -2.8140251    0.6144301 
Pd    0.5987346   -0.9316825    0.5199079 
P    -0.1469473   -0.7365156   -1.7220890 
P    -1.4832814   -0.7329986    1.6360275 
H     1.8281836   -0.9542037    2.9166957 
H     2.7431655    0.2892498    0.8975513 
C     0.0973382   -5.3768704    4.0423266 
C     0.2329075   -4.1965260    4.7898989 
C     0.7681780   -3.0439385    4.2013194 
C     1.1707516   -3.0410168    2.8454808 
C     1.0227200   -4.2395951    2.1033002 
C     0.5006565   -5.3933319    2.6965091 
H    -0.3166274   -6.2786206    4.5050615 
H    -0.0760069   -4.1717083    5.8398638 
H     0.8729864   -2.1313660    4.7958044 
H     1.3072894   -4.2696466    1.0465026 
H     0.3981774   -6.3081840    2.1034357 
C     5.6438141   -0.3503791   -2.9053898 
C     4.8219793    0.7312162   -2.5516431 
C     3.9192294    0.6048407   -1.4932142 
C     3.8081098   -0.6069124   -0.7720630 
C     4.6316591   -1.6938867   -1.1506922 
C     5.5450296   -1.5613933   -2.2012999 
H     6.3610304   -0.2503255   -3.7264564 
H     4.8868626    1.6745908   -3.1025933 
H     3.2855374    1.4499710   -1.2122710 
H     4.5886878   -2.6358008   -0.5946452 
H     6.1916123   -2.4040394   -2.4670746 
N    -0.0759569    3.1516828   -0.0593799 
N    -0.7084905    5.9022217   -0.4028381 
C     0.9273783    4.2040641    0.2150919 
C     0.6621087    5.4531619   -0.6529735 
C     2.3940863    3.7409065    0.1056396 
C     1.6595274    6.5700364   -0.2932820 
C     3.3742690    4.8685630    0.4677099 
C     3.1200440    6.1075867   -0.4062990 
C     0.0764688    2.4163099   -1.3106414 
C    -0.4327192    2.2998668    1.0673965 
C    -1.2487075    1.8698288   -1.8293513 
C    -1.9317392    2.0549124    1.1871591 
C    -1.4821237    0.4892459   -2.0541326 
C    -2.5184505    0.7803382    1.3668490 
C    -2.7664559    3.1908613    1.1799965 
C    -2.2887732    2.7805715   -2.0886645 
C    -3.9174552    0.6806281    1.5548647 
C    -2.7549028    0.0635910   -2.4943410 
C    -3.5475863    2.3537254   -2.5197277 
C    -4.1495041    3.0815923    1.3377797 
C    -3.7846116    0.9850632   -2.7125487 
C    -4.7293548    1.8172676    1.5251900 
C    -2.5466455   -2.1784913    1.2717864 
C    -0.8031507   -2.3966203   -2.1932701 
C     1.0627345   -0.4988586   -3.0948610 
C    -1.3397336   -0.6210442    3.4755080 
C    -1.2147288   -2.6636899   -3.5178767 
C     1.0400295    0.6032020   -3.9706010 
C    -3.4587800   -2.1513214    0.1952291 
C    -0.3452849    0.2275337    4.0042745 
C    -0.7871397   -3.4431830   -1.2528864 
C     2.0069083   -1.5278861   -3.3030834 
C    -2.2486372   -1.2419153    4.3532660 
C    -2.3200823   -3.3940011    1.9528245 
C    -0.2415082    0.4295005    5.3863851 
C    -4.1577330   -3.3092284   -0.1673727 
C     1.9486603    0.6733052   -5.0379567 
C    -1.6356039   -3.9502596   -3.8757871 
C     2.8979451   -1.4609705   -4.3782536 
C    -2.1321343   -1.0506793    5.7379596 
C    -3.0218058   -4.5488552    1.5820639 
C    -1.1943273   -4.7338916   -1.6181952 
C    -3.9450900   -4.5095611    0.5266433 
C    -1.1286989   -0.2208082    6.2585866 
C     2.8747417   -0.3574884   -5.2460296 
C    -1.6263088   -4.9869187   -2.9270678 
H     0.7347327    4.5213388    1.2564663 
H     0.8483713    5.1702004   -1.7194636 
H     2.5936167    3.4155353   -0.9337586 
H     2.5503594    2.8592450    0.7561070 
H     1.4787105    7.4435778   -0.9469259 
H     1.4403599    6.8974759    0.7409044 
H     4.4157587    4.5172198    0.3552586 
H     3.2424624    5.1380844    1.5338011 
H     3.7998623    6.9284167   -0.1174094 
H     3.3516717    5.8632175   -1.4620514 
H    -0.0937051    2.7967675    1.9936252 
H     0.1096971    1.3169579    1.0221084 
H     0.8097516    1.5815562   -1.2053401 
H     0.4960889    3.1050928   -2.0648266 
H    -0.9553238    6.6788642   -1.0247599 
H    -1.3493109    5.1288201   -0.6088237 
H    -2.0976001    3.8474929   -1.9320894 
H    -2.3006682    4.1740710    1.0518954 
H    -2.9434508   -0.9999531   -2.6638517 
H    -4.3759804   -0.2948045    1.7418097 
H    -4.7743254    3.9808049    1.3322211 
H    -4.3415863    3.0844320   -2.7036272 
H    -5.8102819    1.7155770    1.6664380 
H    -4.7670026    0.6336572   -3.0443034 
H     0.3543098    0.7325665    3.3295795 
H    -3.6218717   -1.2238885   -0.3603974 
H     0.2890351    1.3896109   -3.8516076 
H    -1.1916856   -1.8681787   -4.2706504 
H    -1.5970558   -3.4439775    2.7716811 
H    -3.0497871   -1.8765528    3.9631721 
H     2.0239359   -2.3959274   -2.6349508 
H    -0.4552785   -3.2421666   -0.2276747 
H     1.9155125    1.5295688   -5.7198857 
H     0.5354406    1.0912792    5.7830378 
H    -4.8653751   -3.2737734   -1.0019968 
H    -1.9586328   -4.1489970   -4.9030072 
H    -2.8385546   -5.4820932    2.1245685 
H    -1.1793050   -5.5350557   -0.8727723 
H     3.6176510   -2.2699166   -4.5357807 
H    -2.8365942   -1.5495810    6.4116359 
H     3.5744134   -0.3061607   -6.0866187 
H    -1.9478543   -5.9934261   -3.2148089 
H    -4.4922940   -5.4135935    0.2404040 
H    -1.0435905   -0.0728025    7.3399782 
