121
Energy =
C    -2.8659429   -1.7956192   -0.0069293 
C    -2.6520749   -1.0415228   -1.1811788 
C    -1.7464618   -1.4790198   -2.1873000 
H    -3.1141318   -0.0541654   -1.2913958 
Pd   -0.6643624   -1.0494780   -0.2510149 
P     1.5194138   -1.0032362   -1.1904757 
P    -0.0462998   -1.1211279    2.0462970 
H    -2.5192912   -2.8395498   -0.0179335 
H    -1.5625665   -2.5620131   -2.2549402 
C    -5.9391344   -1.1066927    2.9122734 
C    -5.1563384   -2.2699848    2.9554675 
C    -4.1426432   -2.4653072    2.0127537 
C    -3.8821850   -1.5021418    1.0101082 
C    -4.6704014   -0.3262345    0.9912297 
C    -5.6905374   -0.1361865    1.9270973 
H    -6.7390375   -0.9542945    3.6439771 
H    -5.3375180   -3.0267415    3.7249357 
H    -3.5430932   -3.3817401    2.0424074 
H    -4.4907673    0.4410523    0.2315683 
H    -6.3003673    0.7725881    1.8888603 
C    -1.4139984    0.6890501   -5.8874746 
C    -1.1942315    1.3509386   -4.6682524 
C    -1.2917200    0.6507663   -3.4616103 
C    -1.5953076   -0.7269261   -3.4529523 
C    -1.7996878   -1.3863651   -4.6838677 
C    -1.7237006   -0.6792934   -5.8904698 
H    -1.3355729    1.2366453   -6.8322535 
H    -0.9335226    2.4147931   -4.6610712 
H    -1.1081903    1.1514725   -2.5055857 
H    -2.0307284   -2.4576205   -4.6920679 
H    -1.8966083   -1.2006363   -6.8377726 
N     0.5210087    2.8744356    0.4241880 
N    -2.1581567    2.6186064   -0.7837963 
C    -0.2456188    4.0326802   -0.0722406 
C    -1.2658459    3.7198319   -1.1980449 
C     0.7051492    5.1718605   -0.4949492 
C    -2.0119086    5.0012563   -1.6289976 
C    -0.0537953    6.4352477   -0.9312174 
C    -1.0505831    6.1205361   -2.0568917 
C     1.2144637    2.0882078   -0.5858385 
C    -0.1277249    2.0389178    1.4293771 
C     2.4632120    1.3987599   -0.0468286 
C     0.8347162    1.5450440    2.5010878 
C     2.7208264    0.0169758   -0.2367582 
C     1.0241138    0.1803692    2.8190146 
C     1.5358508    2.5161253    3.2425037 
C     3.4028815    2.1715798    0.6584559 
C     1.8754724   -0.1715464    3.8917995 
C     3.8908541   -0.5538045    0.3091052 
C     4.5577489    1.5998546    1.1995662 
C     2.3991577    2.1622134    4.2808365 
C     4.7975627    0.2279772    1.0329801 
C     2.5684625    0.8078369    4.6084931 
C    -1.3739838   -1.0744423    3.3316243 
C     1.8193463   -0.4786065   -2.9380011 
C     2.1676919   -2.7253063   -1.2784107 
C     0.7855153   -2.7438260    2.2706753 
C     1.3783955   -1.3345520   -3.9693452 
C     1.3401801   -3.7954667   -0.8931352 
C    -2.3074892   -0.0203151    3.2607082 
C    -0.0206388   -3.9039362    2.3121995 
C     2.5083398    0.7019096   -3.2779444 
C     3.4317825   -2.9976486   -1.8473930 
C     2.1869252   -2.8879318    2.2439657 
C    -1.3697111   -1.9157234    4.4613071 
C     0.5659497   -5.1739887    2.3716074 
C    -3.2119653    0.1958058    4.3059024 
C     1.7741766   -5.1197156   -1.0471436 
C     1.6030545   -1.0043037   -5.3097245 
C     3.8686859   -4.3205659   -1.9849863 
C     2.7693624   -4.1620557    2.2966450 
C    -2.2920152   -1.7064287    5.4974175 
C     2.7240684    1.0332006   -4.6236104 
C    -3.2091662   -0.6490356    5.4260406 
C     1.9637982   -5.3061849    2.3694017 
C     3.0412627   -5.3832020   -1.5845817 
C     2.2662006    0.1867531   -5.6418923 
H    -0.8247178    4.3968337    0.7999416 
H    -0.6927885    3.3515225   -2.0729106 
H     1.3402833    4.8246182   -1.3337974 
H     1.3842075    5.3858887    0.3489761 
H    -2.7123558    4.7519325   -2.4489465 
H    -2.6316813    5.3486322   -0.7770966 
H     0.6626600    7.2121869   -1.2515147 
H    -0.6023979    6.8502554   -0.0629170 
H    -1.6182585    7.0247789   -2.3390400 
H    -0.4957602    5.8001608   -2.9610436 
H    -0.6542160    1.1809828    0.9478639 
H    -0.9065628    2.6431366    1.9267366 
H     1.5101998    2.7613947   -1.4088219 
H     0.5318883    1.3261608   -1.0354005 
H    -2.6907734    2.9129763    0.0450261 
H    -2.8647075    2.4752482   -1.5160287 
H     3.1896717    3.2351732    0.8046485 
H     1.3960905    3.5692903    2.9751931 
H     4.0918081   -1.6197947    0.1730295 
H     1.9814273   -1.2194098    4.1867669 
H     2.9287570    2.9371526    4.8447342 
H     5.2671374    2.2206744    1.7560717 
H     3.2262926    0.5131393    5.4325598 
H     5.6937221   -0.2342984    1.4594735 
H    -1.1122337   -3.8109396    2.3053525 
H    -2.3267933    0.6316520    2.3828267 
H     0.3523484   -3.5834689   -0.4677381 
H     0.8714583   -2.2722864   -3.7210223 
H    -0.6366894   -2.7232231    4.5496414 
H     2.8262047   -2.0039841    2.1804454 
H     4.0640168   -2.1753881   -2.1993488 
H     2.9183857    1.3485001   -2.4984091 
H     1.1210785   -5.9426960   -0.7408416 
H    -0.0711256   -6.0634579    2.4182354 
H    -3.9311573    1.0177128    4.2380217 
H     1.2529946   -1.6779357   -6.0977509 
H    -2.2799228   -2.3667184    6.3710122 
H     3.2681307    1.9505225   -4.8721131 
H     4.8518905   -4.5244996   -2.4216819 
H     3.8597780   -4.2575058    2.2750085 
H     3.3829351   -6.4167428   -1.7037393 
H     2.4374290    0.4452737   -6.6918837 
H    -3.9208751   -0.4827337    6.2411989 
H     2.4216166   -6.2995257    2.4136819 
