121
Energy =
C    -1.8364216   -1.7393429   -2.3617029 
C    -2.2407986   -2.5492768   -1.2714692 
C    -2.9207463   -2.0119750   -0.1492616 
H    -1.9376300   -3.6021088   -1.2540719 
Pd   -0.8121564   -1.1182979   -0.3990068 
P     1.2161990   -0.5388461   -1.4587955 
P    -0.5293189   -0.7091873    1.9337173 
H    -2.3511615   -0.7744301   -2.4789571 
H    -3.4532084   -1.0630571   -0.3008682 
C    -0.0459419   -3.1862854   -5.9977400 
C    -0.5101738   -1.8665473   -5.9043101 
C    -1.0800034   -1.4068002   -4.7116228 
C    -1.1886539   -2.2498993   -3.5817588 
C    -0.7080531   -3.5765686   -3.6915353 
C    -0.1511962   -4.0388474   -4.8861860 
H     0.3937862   -3.5517889   -6.9314143 
H    -0.4393466   -1.1945164   -6.7657625 
H    -1.4583605   -0.3819264   -4.6567424 
H    -0.7671385   -4.2573693   -2.8377244 
H     0.2105602   -5.0697170   -4.9494566 
C    -4.5040297   -4.3770995    3.0770397 
C    -4.9064309   -3.0452933    2.9021575 
C    -4.3647465   -2.2787172    1.8635066 
C    -3.4040464   -2.8236515    0.9808110 
C    -2.9892208   -4.1608615    1.1881162 
C    -3.5407233   -4.9290269    2.2160260 
H    -4.9344446   -4.9826812    3.8812753 
H    -5.6544520   -2.6035744    3.5686893 
H    -4.6985051   -1.2460182    1.7238007 
H    -2.2254789   -4.6075165    0.5444579 
H    -3.2103378   -5.9632335    2.3541126 
N     1.0470119    3.1517440    0.9247502 
N    -1.6381501    3.2588718   -0.3083824 
C     0.4227664    4.4207448    0.4858214 
C    -0.6366959    4.2889719   -0.6440543 
C     1.5077365    5.4398438    0.0837897 
C    -1.2346289    5.6731598   -0.9772613 
C     0.9126152    6.8105060   -0.2777382 
C    -0.1499586    6.6845325   -1.3804175 
C     1.4485154    2.2918005   -0.1842971 
C     0.2546042    2.3893539    1.8969909 
C     2.6169394    1.3611633    0.0906505 
C     1.1140417    1.4722506    2.7472845 
C     2.6414384    0.0459085   -0.4408038 
C     0.9455749    0.0652476    2.7649480 
C     2.1291517    2.0468303    3.5317971 
C     3.7285512    1.8173485    0.8168440 
C     1.8445527   -0.7278702    3.5111541 
C     3.7544024   -0.7874696   -0.2005932 
C     4.8294898    0.9871612    1.0545350 
C     3.0032388    1.2582488    4.2850009 
C     4.8390872   -0.3221426    0.5521880 
C     2.8726086   -0.1374989    4.2553794 
C    -0.5775513   -2.3772075    2.7203386 
C     1.1156221    0.7550190   -2.7710281 
C     1.8708048   -2.0545347   -2.2800978 
C    -1.9024287    0.2618951    2.6990827 
C     2.2894911    1.2503028   -3.3766148 
C     1.8196074   -3.2613919   -1.5495250 
C     0.2773880   -3.3632840    2.1814255 
C    -1.8928049    0.5440725    4.0816830 
C    -0.1210426    1.3511212   -3.0804584 
C     2.4371792   -2.0604459   -3.5682142 
C    -2.9140722    0.8173556    1.8930829 
C    -1.3837488   -2.7023939    3.8261995 
C    -2.9097079    1.3243238    4.6495270 
C     0.3494527   -4.6386693    2.7552626 
C     2.3674684   -4.4388868   -2.0733879 
C     2.2146986    2.2945361   -4.3096466 
C     2.9738421   -3.2438858   -4.0951339 
C    -3.9238965    1.6059991    2.4608683 
C    -1.3132902   -3.9824301    4.3948297 
C    -0.1931531    2.3986850   -4.0079587 
C    -0.4443352   -4.9490176    3.8701352 
C    -3.9299211    1.8514988    3.8425375 
C     2.9547692   -4.4297116   -3.3475174 
C     0.9741160    2.8667647   -4.6310414 
H    -0.0961469    4.8216209    1.3790847 
H    -0.1146113    3.9263200   -1.5509661 
H     2.0714767    5.0434861   -0.7843915 
H     2.2274082    5.5250255    0.9164553 
H    -1.9805510    5.5585484   -1.7874055 
H    -1.7855309    6.0462057   -0.0896624 
H     1.7164583    7.5004570   -0.5905326 
H     0.4492650    7.2548380    0.6251029 
H    -0.6035479    7.6678535   -1.5977411 
H     0.3324585    6.3432283   -2.3179896 
H    -0.5249193    1.8094043    1.3671312 
H    -0.2721704    3.1031953    2.5554103 
H     1.7240013    2.9247809   -1.0467195 
H     0.5686627    1.6949917   -0.5092739 
H    -2.1576720    3.5413767    0.5330234 
H    -2.3405479    3.2212785   -1.0565525 
H     3.6984745    2.8362997    1.2144954 
H     2.2427644    3.1361376    3.5132587 
H     3.7817119   -1.8003132   -0.6124250 
H     1.7325613   -1.8147200    3.5336452 
H     3.7888294    1.7272790    4.8865388 
H     5.6806318    1.3611776    1.6329540 
H     3.5572614   -0.7718576    4.8276455 
H     5.6951285   -0.9800602    0.7339363 
H    -1.0794687    0.1691805    4.7122045 
H     0.9078650   -3.1166016    1.3203690 
H     1.3414215   -3.2743244   -0.5644335 
H     3.2655716    0.8382786   -3.0983743 
H    -2.0849077   -1.9716750    4.2363222 
H    -2.8810704    0.6643164    0.8104938 
H     2.4458187   -1.1515546   -4.1747888 
H    -1.0215064    1.0212450   -2.5530147 
H     2.3294782   -5.3641980   -1.4889386 
H    -2.8979399    1.5300336    5.7249291 
H     1.0273033   -5.3882475    2.3333443 
H     3.1307565    2.6702166   -4.7771923 
H    -1.9536286   -4.2250404    5.2488143 
H    -1.1603437    2.8592754   -4.2360771 
H     3.4038381   -3.2364297   -5.1019060 
H    -4.7041571    2.0344078    1.8223906 
H     3.3824852   -5.3481348   -3.7626314 
H     0.9196087    3.6877572   -5.3534970 
H    -0.3927076   -5.9451519    4.3216233 
H    -4.7190128    2.4661346    4.2880825 
