121
Energy =
C    -2.7415947   -1.9981486    0.1200058 
C    -2.5149720   -1.7070623   -1.2532593 
C    -1.4827633   -2.3412634   -1.9785679 
H    -3.1083773   -0.9211504   -1.7351575 
Pd   -0.6776033   -1.0971200   -0.1731413 
P     1.4553117   -0.7693659   -1.1491594 
P    -0.1743142   -0.9162798    2.1549027 
H    -2.3819242   -2.9727976    0.4786978 
H    -1.0365883   -3.2422317   -1.5342819 
C    -6.1281231   -0.5017150    2.3025880 
C    -5.5926601    0.2572546    1.2481606 
C    -4.4713198   -0.2002400    0.5498946 
C    -3.8659890   -1.4346269    0.8840458 
C    -4.4042406   -2.1758594    1.9598160 
C    -5.5246612   -1.7163600    2.6602005 
H    -7.0065725   -0.1418226    2.8478606 
H    -6.0534312    1.2119495    0.9728154 
H    -4.0485513    0.4112774   -0.2546469 
H    -3.9414282   -3.1283419    2.2402241 
H    -5.9266799   -2.3068624    3.4893603 
C    -0.6529952   -1.9111800   -6.1755275 
C     0.1197838   -2.7641996   -5.3742524 
C    -0.1730784   -2.9073219   -4.0136769 
C    -1.2303168   -2.1804276   -3.4187157 
C    -2.0186462   -1.3450421   -4.2467947 
C    -1.7332534   -1.2139286   -5.6081336 
H    -0.4268721   -1.8002464   -7.2409441 
H     0.9517971   -3.3265484   -5.8101357 
H     0.4240802   -3.5862859   -3.3981663 
H    -2.8654172   -0.7929016   -3.8259341 
H    -2.3568580   -0.5670693   -6.2340065 
N     0.6961056    3.0371005    0.6721183 
N    -1.7875365    2.4725867   -0.8344246 
C    -0.0858429    4.0989897   -0.0036680 
C    -0.9436599    3.6255074   -1.2111363 
C     0.8378867    5.2598804   -0.4245098 
C    -1.7279796    4.8125978   -1.8104153 
C     0.0555133    6.4306090   -1.0412793 
C    -0.7999997    5.9638964   -2.2291564 
C     1.3825242    2.1596755   -0.2692753 
C    -0.0580757    2.2572113    1.6586987 
C     2.5643472    1.3760402    0.2729448 
C     0.8264393    1.6887268    2.7515609 
C     2.7425638    0.0188154   -0.0973042 
C     0.9257386    0.3050270    3.0214377 
C     1.5551426    2.5929726    3.5480303 
C     3.5373611    1.9895378    1.0778682 
C     1.7182000   -0.1323358    4.1078462 
C     3.8763874   -0.6938920    0.3419410 
C     4.6497636    1.2726551    1.5352223 
C     2.3645301    2.1529505    4.5970930 
C     4.8217818   -0.0708999    1.1670093 
C     2.4431026    0.7803944    4.8797218 
C    -1.5834963   -0.8207160    3.3419679 
C     1.5230192    0.2794086   -2.6688017 
C     2.1553642   -2.4041453   -1.6407072 
C     0.5994634   -2.5694842    2.4002713 
C     2.7540404    0.7643487   -3.1591006 
C     1.7415642   -3.5468877   -0.9248038 
C    -2.4989006    0.2384914    3.1746924 
C     2.0000547   -2.7382823    2.3698516 
C     0.3274604    0.6943003   -3.2804132 
C     3.0312046   -2.5616544   -2.7346901 
C    -0.2252040   -3.7172145    2.4306811 
C    -1.6745498   -1.6387999    4.4847670 
C     2.5602409   -4.0229971    2.3968782 
C    -3.4819864    0.4818553    4.1401340 
C     2.1969643   -4.8208213   -1.2911145 
C     2.7809649    1.6159348   -4.2727798 
C     3.4808417   -3.8378554   -3.1014903 
C     0.3401135   -4.9990872    2.4535165 
C    -2.6760451   -1.4032786    5.4384868 
C     0.3565620    1.5424979   -4.3947168 
C    -3.5756148   -0.3409628    5.2726116 
C     1.7354830   -5.1559869    2.4412390 
C     3.0649136   -4.9697410   -2.3831875 
C     1.5839157    2.0004129   -4.8969264 
H    -0.7831369    4.4906990    0.7633584 
H    -0.2506515    3.2557646   -1.9914066 
H     1.5763962    4.8857826   -1.1611167 
H     1.4104658    5.5844781    0.4615348 
H    -2.3194849    4.4542862   -2.6750551 
H    -2.4562508    5.1745088   -1.0558537 
H     0.7537461    7.2266025   -1.3551874 
H    -0.6034675    6.8753095   -0.2696086 
H    -1.3908659    6.8031869   -2.6370659 
H    -0.1366678    5.6157416   -3.0455739 
H    -0.6304431    1.4449348    1.1602189 
H    -0.7985580    2.9288779    2.1287622 
H     1.7457969    2.7621674   -1.1214029 
H     0.6401504    1.4467059   -0.6887966 
H    -2.4858032    2.7720628   -0.1415608 
H    -2.3333818    2.1792348   -1.6531873 
H     3.3950221    3.0376884    1.3575976 
H     1.4815379    3.6607102    3.3147027 
H     4.0152156   -1.7367567    0.0383138 
H     1.7569938   -1.1932863    4.3699502 
H     2.9207978    2.8746109    5.2043649 
H     5.3896911    1.7649494    2.1746539 
H     3.0550531    0.4185496    5.7123872 
H     5.6964708   -0.6313268    1.5132070 
H     2.6562748   -1.8661763    2.3107937 
H    -2.4436473    0.8707119    2.2839719 
H     1.0463237   -3.4412290   -0.0854557 
H     3.6898693    0.5032050   -2.6527512 
H    -0.9556431   -2.4480338    4.6472253 
H    -1.3145656   -3.6078766    2.4466273 
H     3.3436057   -1.6955176   -3.3233957 
H    -0.6266424    0.3743423   -2.8543523 
H     1.8650991   -5.6950525   -0.7221253 
H     3.6491034   -4.1353272    2.3740083 
H    -4.1873908    1.3062699    3.9981701 
H     3.7403147    1.9885920   -4.6467184 
H    -2.7403404   -2.0457150    6.3230526 
H    -0.5822859    1.8498060   -4.8668796 
H     4.1532702   -3.9475922   -3.9587257 
H    -0.3125668   -5.8776909    2.4869151 
H     3.4131148   -5.9652530   -2.6775445 
H     1.6083201    2.6680570   -5.7644633 
H    -4.3493881   -0.1544973    6.0244382 
H     2.1761401   -6.1579687    2.4632138 
