121
Energy =
C    -2.4145957   -2.5999199   -0.1982268 
C    -2.3893925   -1.9125264   -1.4322670 
C    -1.3321484   -2.0648224   -2.3666949 
H    -3.1786764   -1.1827778   -1.6467113 
Pd   -0.5623765   -1.1948513   -0.3804174 
P     1.6337599   -0.7298997   -1.1853983 
P    -0.3098852   -0.9760812    1.9561590 
H    -1.7444065   -3.4640656   -0.0887045 
H    -0.7157791   -2.9720276   -2.2855223 
C    -5.6126005   -2.5445951    2.6805032 
C    -5.7028084   -1.7439449    1.5289814 
C    -4.6743364   -1.7514619    0.5837276 
C    -3.5268699   -2.5615706    0.7654757 
C    -3.4706144   -3.3903835    1.9100453 
C    -4.4963984   -3.3737067    2.8616735 
H    -6.4168100   -2.5313257    3.4232256 
H    -6.5828504   -1.1124622    1.3685509 
H    -4.7672859   -1.1177970   -0.3044263 
H    -2.6120695   -4.0534165    2.0503092 
H    -4.4237931   -4.0160855    3.7451612 
C    -1.4180489   -0.3780462   -6.3268287 
C    -2.2240375    0.1758174   -5.3178080 
C    -2.1873231   -0.3437225   -4.0210505 
C    -1.3536997   -1.4426220   -3.7019899 
C    -0.5526054   -1.9883524   -4.7305456 
C    -0.5788141   -1.4604491   -6.0259977 
H    -1.4447962    0.0338152   -7.3407469 
H    -2.8807649    1.0221745   -5.5452073 
H    -2.8050063    0.1189317   -3.2438747 
H     0.0848681   -2.8506107   -4.5101272 
H     0.0532377   -1.8992467   -6.8044961 
N     0.9339408    2.9948513    0.7217764 
N    -1.7766235    2.5966857   -0.3800897 
C     0.0166922    4.1231709    0.4441499 
C    -1.0597901    3.8582700   -0.6458113 
C     0.8145505    5.3991950    0.1088519 
C    -1.9773471    5.0924350   -0.7923496 
C    -0.0991304    6.6237215   -0.0642304 
C    -1.1835332    6.3667027   -1.1222476 
C     1.4465015    2.3412311   -0.4853931 
C     0.4018490    2.0130442    1.6647590 
C     2.7950202    1.6847760   -0.2742609 
C     1.4470551    1.1748286    2.3842809 
C     2.9941550    0.2929205   -0.4321467 
C     1.2403015   -0.2129575    2.5878333 
C     2.6146785    1.7631140    2.8958792 
C     3.8861173    2.4982763    0.0789505 
C     2.2106883   -0.9831077    3.2615832 
C     4.2803698   -0.2486049   -0.2165214 
C     5.1561082    1.9568465    0.2945145 
C     3.5820164    0.9955405    3.5549582 
C     5.3496371    0.5749134    0.1549263 
C     3.3849701   -0.3823232    3.7318757 
C    -1.6109421    0.0042218    2.8203072 
C     1.7737543   -0.0933756   -2.9092622 
C     2.2932210   -2.4493230   -1.1955008 
C    -0.3484507   -2.6464162    2.7399422 
C     2.9208035   -0.3540363   -3.6873260 
C     2.7333236   -3.0194430    0.0203023 
C    -2.7710808    0.3814506    2.1219869 
C     0.1215584   -3.7423635    1.9878609 
C     0.7918374    0.7903945   -3.3943316 
C     2.2386876   -3.2589148   -2.3486938 
C    -0.8542492   -2.8726235    4.0357322 
C    -1.4232197    0.4528710    4.1448904 
C     0.0996334   -5.0382569    2.5208851 
C    -3.7519800    1.1632457    2.7460076 
C     3.1265115   -4.3631193    0.0729139 
C     3.0642283    0.2434109   -4.9462010 
C     2.6218798   -4.6065552   -2.2879766 
C    -0.8836127   -4.1712466    4.5641890 
C    -2.4050939    1.2374729    4.7663221 
C     0.9503612    1.4026446   -4.6446119 
C    -3.5728241    1.5887740    4.0710557 
C    -0.4073869   -5.2558773    3.8113793 
C     3.0690538   -5.1618410   -1.0797286 
C     2.0816021    1.1244471   -5.4247418 
H    -0.5208743    4.3091298    1.3949201 
H    -0.5320407    3.7193847   -1.6104527 
H     1.3883540    5.2335211   -0.8248287 
H     1.5542278    5.5643280    0.9114480 
H    -2.7330840    4.8906308   -1.5758002 
H    -2.5337755    5.2318776    0.1569677 
H     0.5030375    7.5093999   -0.3338264 
H    -0.5831604    6.8543863    0.9052079 
H    -1.8646400    7.2328143   -1.1987820 
H    -0.7071478    6.2501891   -2.1157994 
H    -0.3035821    1.3376321    1.1347507 
H    -0.1987201    2.5495384    2.4228024 
H     1.5538098    3.0973526   -1.2816745 
H     0.7050480    1.5971655   -0.8472336 
H    -2.2870275    2.6685169    0.5097581 
H    -2.4998489    2.4625985   -1.0965873 
H     3.7136093    3.5733070    0.2005405 
H     2.7649133    2.8353866    2.7374370 
H     4.4634290   -1.3163510   -0.3602332 
H     2.0418426   -2.0522610    3.4268181 
H     4.4928707    1.4725276    3.9310533 
H     5.9936829    2.6074648    0.5666103 
H     4.1378193   -0.9877473    4.2470440 
H     6.3383528    0.1335555    0.3175899 
H     0.4962860   -3.5816582    0.9718199 
H    -2.8856488    0.0793275    1.0779601 
H     2.7664131   -2.4093600    0.9297940 
H     3.7089667   -1.0113612   -3.3044687 
H    -0.4983212    0.2131140    4.6809920 
H    -1.2511432   -2.0440913    4.6280057 
H     1.9041493   -2.8318990   -3.2983836 
H    -0.0951587    0.9996204   -2.7877314 
H     3.4707811   -4.7875278    1.0218260 
H     0.4707145   -5.8762570    1.9215337 
H    -4.6575455    1.4394070    2.1955345 
H     3.9541250    0.0323765   -5.5483301 
H    -2.2526025    1.5826823    5.7942218 
H     0.1803406    2.0866315   -5.0141293 
H     2.5779826   -5.2221972   -3.1925589 
H    -1.2878324   -4.3358084    5.5684360 
H     3.3751428   -6.2121693   -1.0374178 
H     2.2012937    1.5974012   -6.4050015 
H    -4.3370035    2.2025677    4.5591777 
H    -0.4369496   -6.2681851    4.2275302 
