121
Energy =
C    -2.6153508   -1.8561715   -0.2684720 
C    -2.2403893   -1.7273354   -1.6293202 
C    -1.1278192   -2.4016582   -2.1713757 
H    -2.8026529   -1.0414911   -2.2736302 
Pd   -0.5458794   -0.8698377   -0.4307458 
P     1.7252786   -0.8134786   -1.0661720 
P    -0.3927525   -0.4014062    1.8862301 
H    -2.2455993   -2.7366546    0.2706880 
H    -0.7002341   -3.2285711   -1.5877276 
C    -6.1026494   -0.1185530    1.5610099 
C    -5.3662946   -1.1196189    2.2130543 
C    -4.2450032   -1.6849271    1.5965627 
C    -3.8256326   -1.2552300    0.3154062 
C    -4.5915058   -0.2595539   -0.3398861 
C    -5.7145985    0.3024676    0.2777721 
H    -6.9795355    0.3248785    2.0435602 
H    -5.6667159   -1.4615360    3.2087405 
H    -3.6727766   -2.4624589    2.1124399 
H    -4.3128128    0.0826182   -1.3420946 
H    -6.2947564    1.0692912   -0.2464465 
C    -0.0379768   -2.4976662   -6.3307882 
C     0.5549662   -3.3733225   -5.4099852 
C     0.1847409   -3.3292811   -4.0610298 
C    -0.7697889   -2.3958742   -3.5958696 
C    -1.3727708   -1.5332063   -4.5432638 
C    -1.0134622   -1.5863012   -5.8916256 
H     0.2468040   -2.5314340   -7.3872706 
H     1.3007933   -4.1015287   -5.7455526 
H     0.6289327   -4.0324347   -3.3502695 
H    -2.1254970   -0.8047016   -4.2241216 
H    -1.4923820   -0.9107420   -6.6080366 
N     0.6595590    2.2567379    0.5980232 
N    -1.5597808    1.5298178   -1.1954261 
C    -0.4684373    3.1919862    0.3451100 
C    -1.1739614    2.9465118   -1.0116925 
C    -0.0901309    4.6931688    0.4642246 
C    -2.3976313    3.8842294   -1.1437180 
C    -1.3201057    5.6058722    0.3439579 
C    -2.0424790    5.3690709   -0.9884079 
C     1.6403995    2.2753976   -0.5122122 
C     1.2529670    2.4538564    1.9268790 
C     2.9396731    1.5738958   -0.1903287 
C     1.8945314    1.2161919    2.5456778 
C     3.0562297    0.1602616   -0.2168853 
C     1.2734070   -0.0630227    2.6140977 
C     3.1460032    1.3786927    3.1684009 
C     4.0638882    2.3378605    0.1650425 
C     1.9413786   -1.1181691    3.2728431 
C     4.2549617   -0.4458231    0.2013972 
C     5.2663663    1.7314280    0.5533799 
C     3.8046261    0.3237741    3.8103773 
C     5.3501714    0.3354411    0.6000668 
C     3.2015221   -0.9375704    3.8555709 
C    -1.4494453    0.8590327    2.7335679 
C     2.0398217   -0.2100008   -2.7839702 
C     2.3748425   -2.5357480   -1.0133291 
C    -0.9160752   -1.9575006    2.7686836 
C     0.9836911    0.3428348   -3.5277126 
C     2.3584722   -3.1928037    0.2367170 
C    -1.0744377    1.3891966    3.9884117 
C    -1.5904522   -1.9420318    4.0061490 
C     3.3452355   -0.2046139   -3.3215895 
C     2.8461805   -3.2290950   -2.1444162 
C    -0.6553967   -3.2022341    2.1559657 
C    -2.6666343    1.2707586    2.1645211 
C    -1.9952269   -3.1425571    4.6094448 
C    -1.8922393    2.3250960    4.6370218 
C     2.7947038   -4.5174625    0.3527969 
C     1.2176026    0.8716207   -4.8049462 
C     3.2764239   -4.5608606   -2.0253127 
C    -1.0502675   -4.4012387    2.7641669 
C    -3.4863711    2.2042132    2.8139490 
C     3.5735468    0.3135468   -4.6020853 
C    -3.0980739    2.7396808    4.0497676 
C    -1.7276485   -4.3737704    3.9931485 
C     3.2491150   -5.2087850   -0.7827257 
C     2.5098976    0.8504048   -5.3462811 
H    -1.2092899    2.9792852    1.1371680 
H    -0.4654604    3.1913829   -1.8259522 
H     0.6403712    4.9610471   -0.3234277 
H     0.4082216    4.8696001    1.4329786 
H    -2.8795470    3.7000904   -2.1228107 
H    -3.1352172    3.5960210   -0.3666735 
H    -1.0182752    6.6637578    0.4419832 
H    -2.0135406    5.3935278    1.1817422 
H    -2.9547218    5.9879403   -1.0585445 
H    -1.3845138    5.6777562   -1.8241774 
H     0.4362419    2.7862958    2.5921473 
H     2.0085738    3.2680270    1.9418963 
H     1.8863823    3.3174909   -0.8070585 
H     1.1561938    1.8012024   -1.3809536 
H    -2.3207396    1.3194653   -0.5389494 
H    -1.9861204    1.4349083   -2.1249300 
H     3.9861579    3.4308542    0.1497154 
H     3.6233341    2.3635034    3.1259465 
H     4.3518648   -1.5349083    0.1932006 
H     1.4567227   -2.0950252    3.3567755 
H     4.7846998    0.4898077    4.2688710 
H     6.1280955    2.3480231    0.8287469 
H     3.6957072   -1.7770009    4.3551696 
H     6.2747683   -0.1549635    0.9213777 
H    -1.8192485   -0.9928739    4.4984171 
H    -0.1347932    1.0762622    4.4564115 
H     2.0231436   -2.6497170    1.1254323 
H    -0.0159150    0.3674230   -3.0832965 
H    -2.9883432    0.8512449    1.2104943 
H    -0.1492404   -3.2257229    1.1840615 
H     2.8710966   -2.7378060   -3.1206155 
H     4.1839468   -0.5912594   -2.7325538 
H     2.7801099   -5.0096421    1.3310194 
H    -2.5268691   -3.1121734    5.5663871 
H    -1.5840523    2.7313244    5.6061194 
H     0.3871793    1.2954397   -5.3787149 
H    -4.4298040    2.5050774    2.3476369 
H     4.5872331    0.3102506   -5.0161257 
H     3.6367935   -5.0915501   -2.9130294 
H    -0.8364574   -5.3555911    2.2712993 
H     3.5867833   -6.2466829   -0.6962831 
H     2.6933831    1.2608232   -6.3447369 
H    -3.7330028    3.4730232    4.5576508 
H    -2.0489540   -5.3075117    4.4660836 
