121
Energy =
C    -2.3512096   -2.6596060   -0.3410411 
C    -2.3029514   -1.9457905   -1.5598064 
C    -1.2132132   -2.0534108   -2.4619378 
H    -3.1026521   -1.2308613   -1.7849545 
Pd   -0.5305116   -1.2116067   -0.4293935 
P     1.6774699   -0.6673903   -1.1496952 
P    -0.3718056   -1.0379485    1.9178897 
H    -1.6669589   -3.5124570   -0.2295258 
H    -0.5752679   -2.9454301   -2.3776783 
C    -5.6493307   -2.7561155    2.4217369 
C    -5.7055290   -1.9044246    1.3051690 
C    -4.6437020   -1.8607672    0.3986952 
C    -3.4953071   -2.6683038    0.5855401 
C    -3.4712371   -3.5458004    1.6943853 
C    -4.5316005   -3.5821457    2.6068485 
H    -6.4803716   -2.7837967    3.1338965 
H    -6.5850155   -1.2729762    1.1417268 
H    -4.7110007   -1.1882070   -0.4627896 
H    -2.6107198   -4.2059577    1.8370569 
H    -4.4842208   -4.2631142    3.4627260 
C    -1.2029780   -0.2824181   -6.3862993 
C    -0.3412145   -1.3442068   -6.0758709 
C    -0.3482841   -1.9004818   -4.7920828 
C    -1.2054341   -1.4035580   -3.7841869 
C    -2.0623776   -0.3254973   -4.1126559 
C    -2.0658199    0.2217716   -5.3984512 
H    -1.2038707    0.1513318   -7.3914020 
H     0.3343372   -1.7450223   -6.8381737 
H     0.3071642   -2.7472492   -4.5649820 
H    -2.7253780    0.0992310   -3.3513663 
H    -2.7412958    1.0510661   -5.6336454 
N     0.8753910    2.9873458    0.8328292 
N    -1.7886906    2.6123915   -0.3810056 
C    -0.0389338    4.1192750    0.5618969 
C    -1.0725824    3.8871362   -0.5756617 
C     0.7612630    5.4112791    0.3019543 
C    -1.9934717    5.1201088   -0.7113056 
C    -0.1546207    6.6356661    0.1401150 
C    -1.1978821    6.4105334   -0.9654291 
C     1.4409994    2.3826320   -0.3763486 
C     0.3175407    1.9667664    1.7174988 
C     2.7857814    1.7295512   -0.1330664 
C     1.3432447    1.1226579    2.4583893 
C     3.0002708    0.3429839   -0.3163912 
C     1.1443535   -0.2714555    2.6238038 
C     2.4837255    1.7114287    3.0273395 
C     3.8562782    2.5402017    0.2835805 
C     2.0980422   -1.0462723    3.3159825 
C     4.2788152   -0.1971922   -0.0571151 
C     5.1194539    2.0003432    0.5399583 
C     3.4343473    0.9395719    3.7054325 
C     5.3264883    0.6228590    0.3784295 
C     3.2469987   -0.4440324    3.8434047 
C    -1.7175335   -0.0843378    2.7416362 
C     1.8505597    0.0405263   -2.8422309 
C     2.3698931   -2.3730583   -1.2087080 
C    -0.4238698   -2.7212405    2.6723607 
C     0.8461236    0.8945908   -3.3340397 
C     2.7503027   -2.9922362    0.0034445 
C    -2.8461422    0.3016139    1.9978381 
C    -0.9965400   -2.9776434    3.9340570 
C     3.0366029   -0.1389547   -3.5840827 
C     2.4042941   -3.1260102   -2.3999635 
C     0.1097674   -3.7959445    1.9319528 
C    -1.5922699    0.3404016    4.0814162 
C    -1.0266436   -4.2844689    4.4421229 
C    -3.8568459    1.0702544    2.5899053 
C     3.1683811   -4.3292300    0.0171741 
C     1.0202241    1.5561988   -4.5568582 
C     2.8132965   -4.4675078   -2.3791898 
C     0.0871720   -5.0997016    2.4452752 
C    -2.6041604    1.1111657    4.6711487 
C     3.1968281    0.5077279   -4.8162922 
C    -3.7395506    1.4727885    3.9290149 
C    -0.4847767   -5.3472220    3.7029235 
C     3.1975150   -5.0723554   -1.1732855 
C     2.1908182    1.3577351   -5.3025065 
H    -0.6122463    4.2677387    1.4983155 
H    -0.5090009    3.7862154   -1.5246410 
H     1.3693933    5.2831910   -0.6158377 
H     1.4704698    5.5516132    1.1361721 
H    -2.7184522    4.9423165   -1.5288896 
H    -2.5854560    5.2213198    0.2212652 
H     0.4502709    7.5343057   -0.0751271 
H    -0.6751718    6.8278187    1.0989372 
H    -1.8823043    7.2745860   -1.0354572 
H    -0.6848123    6.3334290   -1.9444545 
H    -0.3506995    1.2975510    1.1338044 
H    -0.3268710    2.4682446    2.4634699 
H     1.5727076    3.1679711   -1.1399690 
H     0.7211170    1.6466780   -0.7934573 
H    -2.3292919    2.6481433    0.4930864 
H    -2.4863751    2.5006275   -1.1260747 
H     3.6723976    3.6111433    0.4232515 
H     2.6269883    2.7885757    2.8983497 
H     4.4741789   -1.2604878   -0.2164730 
H     1.9357319   -2.1206279    3.4510777 
H     4.3246536    1.4177382    4.1265310 
H     5.9409634    2.6486989    0.8618681 
H     3.9871159   -1.0532047    4.3724054 
H     6.3097656    0.1825549    0.5736297 
H    -1.4445115   -2.1668477    4.5142555 
H    -2.9110082    0.0179654    0.9442316 
H     2.7202018   -2.4240387    0.9399854 
H    -0.0695082    1.0437345   -2.7525143 
H    -0.6917495    0.0937592    4.6545890 
H     0.5347343   -3.6130274    0.9397664 
H     2.1186694   -2.6600161   -3.3471761 
H     3.8411348   -0.7709765   -3.1925862 
H     3.4654554   -4.7920060    0.9641603 
H    -1.4833137   -4.4725153    5.4193993 
H    -4.7371087    1.3547069    2.0036732 
H     0.2327730    2.2168773   -4.9320400 
H    -2.5003436    1.4378941    5.7110772 
H     4.1172054    0.3598600   -5.3907899 
H     2.8388364   -5.0390810   -3.3129341 
H     0.5082389   -5.9209174    1.8557186 
H     3.5229189   -6.1176452   -1.1617228 
H     2.3232977    1.8695701   -6.2613715 
H    -4.5267994    2.0767334    4.3921275 
H    -0.5141679   -6.3658975    4.1032312 
