88
Energy =
C     2.5090992    0.6739703    0.9471947 
C     2.7509974   -0.3989424    0.0606986 
C     2.4925149   -0.2628965   -1.3398585 
H     3.0012614   -1.3877908    0.4647443 
Pd    0.6150645    0.0302888   -0.2094041 
P    -0.7763096   -0.1806112   -2.0842823 
P    -0.9091594    0.1085332    1.5769188 
H     2.4384989    1.6777688    0.5000558 
H     2.6256761    0.7329412   -1.7870732 
C     3.1502731    0.7714347    5.1940214 
C     2.7110855    1.9138142    4.5087316 
C     2.5013002    1.8614697    3.1267933 
C     2.7148100    0.6655895    2.4014279 
C     3.1502474   -0.4793114    3.1089880 
C     3.3702101   -0.4226042    4.4875347 
H     3.3242832    0.8100805    6.2742690 
H     2.5415014    2.8502783    5.0498652 
H     2.1750109    2.7611994    2.5954560 
H     3.3290265   -1.4194536    2.5798763 
H     3.7132896   -1.3168878    5.0167416 
C     2.7993947   -3.5367581   -4.1213673 
C     2.3947605   -3.7813748   -2.7972549 
C     2.2913612   -2.7244300   -1.8868108 
C     2.5926099   -1.3978159   -2.2808919 
C     2.9855077   -1.1664634   -3.6165123 
C     3.0928058   -2.2266826   -4.5258345 
H     2.8824153   -4.3651731   -4.8324177 
H     2.1563608   -4.8008725   -2.4761014 
H     1.9471148   -2.9228791   -0.8649729 
H     3.2019175   -0.1435305   -3.9428839 
H     3.4015165   -2.0254835   -5.5568159 
O    -1.6318950   -2.4589223   -0.0896073 
C    -1.2882464   -1.9317830   -2.4248286 
C    -2.5848609   -0.6830998    1.3092455 
C    -2.2520768   -2.4787855   -1.3737833 
C    -2.5097460   -2.1843171    1.0025814 
C    -2.3445686    0.7848421   -2.0493541 
C     0.0053300    0.4104816   -3.6411678 
C    -0.2318230   -0.8804413    2.9739967 
C    -1.3207027    1.7685969    2.2450106 
C    -3.4391434    0.4662250   -2.8806228 
C     0.5521178    1.7120951   -3.6242935 
C     0.2859963   -2.1586880    2.6610390 
C    -2.3466331    1.9788430    3.1909873 
C    -2.4290138    1.9066136   -1.2025804 
C     0.0858277   -0.3542766   -4.8193339 
C    -0.2252337   -0.4402740    4.3105800 
C    -0.5863922    2.8776255    1.7769620 
C    -4.6045333    1.2434288   -2.8368570 
C     1.1592273    2.2415089   -4.7686044 
C     0.7499486   -3.0005797    3.6801898 
C    -2.6224841    3.2707669    3.6599041 
C    -3.5926623    2.6872124   -1.1649937 
C     0.6953505    0.1804059   -5.9652146 
C     0.2542221   -1.2837142    5.3233396 
C    -0.8644369    4.1690872    2.2443461 
C    -4.6850677    2.3515281   -1.9777203 
C     1.2315617    1.4744084   -5.9438539 
C     0.7273058   -2.5669700    5.0145093 
C    -1.8831297    4.3666951    3.1884638 
H    -1.7614473   -2.0008419   -3.4200188 
H    -0.3573845   -2.5260869   -2.4540501 
H    -3.1943779   -0.5282399    2.2171530 
H    -3.0618365   -0.1289979    0.4813830 
H    -2.5293686   -3.5197147   -1.6387626 
H    -3.1815952   -1.8754530   -1.3680606 
H    -3.5274276   -2.5719322    0.7985139 
H    -2.1168088   -2.7371273    1.8721809 
H    -3.3873955   -0.3819092   -3.5717570 
H     0.4971664    2.3127174   -2.7076455 
H     0.3126168   -2.4928182    1.6162743 
H    -2.9335343    1.1367723    3.5726099 
H    -1.5797646    2.1645737   -0.5623914 
H    -0.3025868   -1.3757085   -4.8557263 
H    -0.5798846    0.5628014    4.5647972 
H     0.2008875    2.7197809    1.0304374 
H    -5.4519011    0.9859938   -3.4807370 
H     1.5754566    3.2539745   -4.7460486 
H     1.1344597   -3.9950557    3.4304505 
H    -3.4193133    3.4216590    4.3954942 
H    -3.6427490    3.5523925   -0.4957068 
H     0.7577639   -0.4262258   -6.8745123 
H     0.2615784   -0.9302312    6.3595130 
H    -0.2882305    5.0210751    1.8688302 
H    -5.5985863    2.9542844   -1.9473888 
H     1.7071037    1.8870127   -6.8394956 
H     1.0927821   -3.2232351    5.8111156 
H    -2.1043073    5.3746199    3.5543729 
