88
Energy =
C     1.8889238    1.7843200    1.5198359 
C     2.5608868    1.1869561    0.4282944 
C     2.1943423    1.5218869   -0.9096677 
H     3.2688667    0.3705960    0.6134284 
Pd    0.4414269    0.6459678    0.1816114 
P    -1.0614135    0.5131615   -1.6338376 
P    -0.8500542   -0.3014763    1.8907500 
H     1.3297543    2.7095542    1.3088322 
H     1.8008058    2.5316318   -1.0862618 
C     2.6459685    1.2531881    5.7127260 
C     1.7576748    2.2409724    5.2627286 
C     1.5147101    2.3886093    3.8922002 
C     2.1501114    1.5503701    2.9452729 
C     3.0327987    0.5507419    3.4171528 
C     3.2803943    0.4100711    4.7846935 
H     2.8459214    1.1395489    6.7830774 
H     1.2651757    2.9064642    5.9791903 
H     0.8417760    3.1791387    3.5394655 
H     3.5333615   -0.1192479    2.7123302 
H     3.9697620   -0.3654363    5.1320681 
C     3.6759220   -0.4303482   -4.4510240 
C     3.8704599   -1.0293906   -3.1946136 
C     3.4022862   -0.4031208   -2.0345462 
C     2.7383760    0.8466371   -2.1022931 
C     2.5673978    1.4446375   -3.3721792 
C     3.0241375    0.8093490   -4.5328512 
H     4.0365705   -0.9254681   -5.3584008 
H     4.3847751   -1.9933270   -3.1203665 
H     3.5394979   -0.9017019   -1.0691945 
H     2.0640300    2.4140481   -3.4451448 
H     2.8722170    1.2880755   -5.5056982 
O    -2.3202173    2.2036857    0.7904596 
C    -2.8458363    0.8064397   -1.1688713 
C    -1.8733396    0.9420936    2.8101816 
C    -3.0794794    2.1245255   -0.4151055 
C    -2.9366552    1.5904532    1.9226499 
C    -0.7487341    1.8608145   -2.8502221 
C    -1.0921969   -1.0164075   -2.6432422 
C    -2.0179618   -1.6312871    1.3818627 
C     0.1563059   -1.1636766    3.1655226 
C    -0.7530966    1.6332435   -4.2401280 
C    -2.2762490   -1.6613620   -3.0534068 
C    -3.2303952   -1.8889338    2.0558241 
C     0.0138971   -0.9587605    4.5500197 
C    -0.4847159    3.1601364   -2.3625745 
C     0.1559359   -1.5592694   -3.0164377 
C    -1.6375822   -2.4621195    0.3087975 
C     1.0884158   -2.1162932    2.6986629 
C    -0.4952357    2.6900012   -5.1263637 
C    -2.2074630   -2.8298960   -3.8267406 
C    -4.0559380   -2.9431777    1.6409897 
C     0.7790583   -1.7121909    5.4524883 
C    -0.2379587    4.2141524   -3.2521417 
C     0.2184542   -2.7214195   -3.7943705 
C    -2.4585015   -3.5242645   -0.0944005 
C     1.8414781   -2.8728693    3.6037688 
C    -0.2376930    3.9788522   -4.6368885 
C    -0.9639085   -3.3614081   -4.1992733 
C    -3.6728490   -3.7607646    0.5657552 
C     1.6843105   -2.6744053    4.9845955 
H    -3.4425643    0.8133447   -2.0987611 
H    -3.1656537   -0.0580858   -0.5585822 
H    -2.3594437    0.4783300    3.6866458 
H    -1.1635421    1.6990358    3.1873347 
H    -4.1618883    2.2377346   -0.2052442 
H    -2.7770715    2.9847721   -1.0343151 
H    -3.4880769    2.3553641    2.5063804 
H    -3.6695774    0.8252478    1.5995056 
H    -0.9430913    0.6290352   -4.6315841 
H    -3.2576017   -1.2711032   -2.7708515 
H    -3.5358988   -1.2800301    2.9129136 
H    -0.6820349   -0.2111451    4.9402510 
H    -0.4587564    3.3430749   -1.2812386 
H     1.0807463   -1.0669132   -2.7013495 
H    -0.6958224   -2.2740000   -0.2181624 
H     1.2163037   -2.2680447    1.6200049 
H    -0.4922826    2.5016325   -6.2050115 
H    -3.1326622   -3.3256261   -4.1385201 
H    -4.9981634   -3.1318096    2.1659097 
H     0.6651932   -1.5416853    6.5279124 
H    -0.0368173    5.2181401   -2.8643569 
H     1.1948689   -3.1246175   -4.0819246 
H    -2.1498502   -4.1560239   -0.9329481 
H     2.5531736   -3.6172143    3.2317683 
H    -0.0343346    4.7998722   -5.3319803 
H    -0.9166568   -4.2723023   -4.8050418 
H    -4.3200931   -4.5846313    0.2478029 
H     2.2728863   -3.2646530    5.6944530 
