88
Energy =
C     2.6493937   -1.1298014   -0.8602412 
C     2.8053920    0.0856541   -0.1507860 
C     2.4948733    0.1672480    1.2364538 
H     3.0532716    0.9966277   -0.7086294 
Pd    0.6838424   -0.4417633    0.0598008 
P    -0.9184956   -0.1890285    1.7820823 
P    -0.8846127   -0.9502679   -1.6124735 
H     2.6433691   -2.0559538   -0.2642172 
H     2.5979633   -0.7481551    1.8350438 
C     3.8182216   -1.7145966   -4.9473074 
C     3.8177888   -2.7862311   -4.0429188 
C     3.3874199   -2.5891748   -2.7254033 
C     2.9711782   -1.3124208   -2.2823133 
C     2.9467016   -0.2490072   -3.2153494 
C     3.3701363   -0.4489389   -4.5309243 
H     4.1543017   -1.8649726   -5.9782910 
H     4.1578048   -3.7766306   -4.3627839 
H     3.4026480   -3.4245073   -2.0156399 
H     2.5812512    0.7369789   -2.9099098 
H     3.3422959    0.3824938   -5.2419611 
C     2.5272370    3.8047351    3.5450889 
C     2.5359538    3.8716260    2.1410833 
C     2.5276026    2.6985751    1.3791624 
C     2.5252398    1.4269128    2.0039779 
C     2.5334101    1.3772887    3.4169103 
C     2.5268342    2.5526287    4.1776966 
H     2.5265831    4.7238325    4.1399365 
H     2.5417348    4.8443691    1.6382202 
H     2.5039423    2.7751079    0.2871142 
H     2.5377413    0.4049323    3.9197543 
H     2.5240783    2.4878220    5.2705996 
O    -0.7009461   -3.1081898    0.8120960 
C    -2.3108837   -1.4239770    1.6684198 
C    -1.7598148   -2.5919915   -1.3824792 
C    -1.8253729   -2.8843987    1.6666102 
C    -0.9861932   -3.5857640   -0.4986232 
C    -0.2026912   -0.5591121    3.4358784 
C    -1.7685657    1.4219989    1.9621952 
C    -2.1998560    0.3333555   -1.6079797 
C    -0.3645304   -1.0077133   -3.3751851 
C     0.6417745   -1.6856581    3.5543554 
C    -0.9533077    2.5674665    2.0914202 
C    -3.5345394    0.0684924   -1.9785070 
C     0.1910003   -2.1909275   -3.9075448 
C    -0.4640736    0.2346752    4.5690871 
C    -3.1694472    1.5715711    1.9376684 
C    -1.8249916    1.6527102   -1.2749788 
C    -0.5012407    0.1236524   -4.2056928 
C     1.2117343   -2.0117764    4.7919965 
C    -1.5301883    3.8374679    2.2032067 
C    -4.4784218    1.1052249   -1.9931869 
C     0.5607542   -2.2516874   -5.2562417 
C     0.1186009   -0.0917403    5.8031048 
C    -3.7412971    2.8478042    2.0431215 
C    -2.7662068    2.6894708   -1.3123067 
C    -0.1215748    0.0579650   -5.5533599 
C     0.9560401   -1.2108810    5.9175061 
C    -2.9268687    3.9812718    2.1772885 
C    -4.0955177    2.4149338   -1.6637390 
C     0.4012338   -1.1299603   -6.0834732 
H    -2.9783569   -1.2702841    2.5353171 
H    -2.8779167   -1.1703495    0.7557858 
H    -2.7492659   -2.3895186   -0.9401632 
H    -1.9415058   -3.0386794   -2.3753744 
H    -2.6631216   -3.5568937    1.3931399 
H    -1.4965356   -3.1612466    2.6824083 
H    -0.0014535   -3.8160054   -0.9387614 
H    -1.5626175   -4.5326440   -0.4403874 
H     0.8523261   -2.3033432    2.6728356 
H     0.1352715    2.4641067    2.1086811 
H    -3.8434160   -0.9403908   -2.2718619 
H     0.3367188   -3.0737207   -3.2764341 
H    -1.1101301    1.1142236    4.4880595 
H    -3.8289856    0.7076674    1.8218970 
H    -0.7919882    1.8611626   -0.9709721 
H    -0.9282382    1.0500222   -3.8086123 
H     1.8624762   -2.8882696    4.8769733 
H    -0.8830141    4.7141181    2.3109480 
H    -5.5143289    0.8905363   -2.2755539 
H     0.9847208   -3.1768079   -5.6583625 
H    -0.0822878    0.5357571    6.6776574 
H    -4.8307389    2.9533648    2.0175476 
H    -2.4639194    3.7056092   -1.0416368 
H    -0.2474810    0.9376173   -6.1931639 
H     1.4103128   -1.4601772    6.8819392 
H    -3.3794016    4.9747446    2.2619068 
H    -4.8360196    3.2212342   -1.6798503 
H     0.6891857   -1.1814990   -7.1383949 
