88
Energy =
C     1.1393865    2.3224166    1.1256236 
C     1.8554517    1.8918732   -0.0099820 
C     1.3356097    2.0155369   -1.3330064 
H     2.7912277    1.3357821    0.1274319 
Pd   -0.0015153    0.7049301   -0.1180560 
P    -1.1325443   -0.2123300   -1.9607000 
P    -0.9104623   -0.4950958    1.7107430 
H     0.2934509    3.0076781    0.9636459 
H     0.6565144    2.8559646   -1.5404702 
C     2.5454229    2.2537927    5.1891928 
C     1.2848146    2.7863350    4.8745849 
C     0.8436334    2.8070106    3.5471680 
C     1.6399969    2.2713942    2.5067815 
C     2.9101481    1.7413608    2.8403608 
C     3.3594728    1.7433789    4.1642319 
H     2.8974116    2.2470065    6.2258955 
H     0.6455443    3.1947422    5.6636700 
H    -0.1357789    3.2325701    3.3099103 
H     3.5584002    1.3281915    2.0621513 
H     4.3490867    1.3388503    4.3997999 
C     3.6489490    0.6088588   -4.6806530 
C     3.5478266   -0.1780509   -3.5215192 
C     2.7829247    0.2648655   -2.4376461 
C     2.1008992    1.5025568   -2.4909247 
C     2.1976316    2.2744642   -3.6672267 
C     2.9700176    1.8339725   -4.7492008 
H     4.2492478    0.2638720   -5.5287860 
H     4.0648945   -1.1417048   -3.4650576 
H     2.6942968   -0.3625286   -1.5428301 
H     1.6690511    3.2312218   -3.7284845 
H     3.0364977    2.4491118   -5.6523062 
O    -3.6213304   -0.2264072    0.2572515 
C    -2.9951891   -0.0119109   -2.0516445 
C    -2.2386655   -1.8013441    1.4881680 
C    -3.8110849   -0.7943674   -1.0332695 
C    -3.6252537   -1.1727211    1.3219920 
C    -0.7135705    0.4566357   -3.6249468 
C    -0.8405141   -2.0180821   -2.1108422 
C     0.4071442   -1.4564740    2.5576817 
C    -1.6754871    0.6119509    2.9595466 
C    -1.1590913    1.7525484   -3.9638823 
C    -1.6373604   -2.8451798   -2.9319499 
C     0.6974588   -2.7671474    2.1126245 
C    -1.7517062    0.2873487    4.3290444 
C     0.0085839   -0.2952688   -4.5706655 
C     0.2433043   -2.5833482   -1.4098309 
C     1.1859256   -0.9002594    3.5939687 
C    -2.2843700    1.7951932    2.4920029 
C    -0.9229797    2.2676950   -5.2448927 
C    -1.3609671   -4.2153578   -3.0299777 
C     1.7418971   -3.4990606    2.6907992 
C    -2.3942542    1.1576230    5.2209947 
C     0.2516672    0.2316118   -5.8472902 
C     0.5237219   -3.9532125   -1.5176551 
C     2.2264364   -1.6418944    4.1718038 
C    -2.9403410    2.6535655    3.3845072 
C    -0.2233067    1.5044723   -6.1919425 
C    -0.2818452   -4.7711042   -2.3233504 
C     2.5113808   -2.9381934    3.7221986 
C    -2.9853287    2.3413324    4.7522296 
H    -3.2033042    1.0658404   -1.9363638 
H    -3.2950662   -0.2916435   -3.0767152 
H    -1.9711489   -2.4081407    0.6040756 
H    -2.2128299   -2.4595989    2.3750754 
H    -3.5209400   -1.8643714   -1.0497411 
H    -4.8845226   -0.7404143   -1.3105309 
H    -3.9109430   -0.6177073    2.2307067 
H    -4.3868051   -1.9615290    1.1563633 
H    -1.6981491    2.3645414   -3.2312458 
H    -2.4683705   -2.4234247   -3.5072078 
H     0.1062273   -3.2282925    1.3159535 
H    -1.3033412   -0.6385961    4.7037195 
H     0.3817886   -1.2911960   -4.3147054 
H     0.8644263   -1.9405011   -0.7741844 
H     0.9725953    0.1043795    3.9665436 
H    -2.2493507    2.0320132    1.4224888 
H    -1.2854966    3.2682957   -5.5026245 
H    -1.9867238   -4.8510624   -3.6648028 
H     1.9489090   -4.5155405    2.3394716 
H    -2.4372956    0.9069521    6.2860077 
H     0.8185504   -0.3593448   -6.5736567 
H     1.3707187   -4.3792454   -0.9696894 
H     2.8141052   -1.1947239    4.9799420 
H    -3.4135059    3.5682943    3.0128736 
H    -0.0391250    1.9072488   -7.1931155 
H    -0.0685021   -5.8418613   -2.4054080 
H     3.3240187   -3.5135275    4.1774403 
H    -3.4883017    3.0164845    5.4523148 
