88
Energy =
C     2.4548333   -0.6060386   -1.3219288 
C     2.7920134    0.0911858   -0.1182208 
C     2.7689032   -0.5817119    1.1222512 
H     2.9675319    1.1748089   -0.1443201 
Pd    0.7194026   -0.5753043    0.0583812 
P    -0.8222731    0.0311753    1.7355682 
P    -0.9178244   -1.2919865   -1.4710867 
H     2.6963704   -1.6780874   -1.3673209 
H     2.8232734   -1.6813473    1.0854138 
C     2.2261301    1.3795822   -5.1366665 
C     1.8194826    2.0527791   -3.9723591 
C     1.8908076    1.4135720   -2.7306772 
C     2.3652706    0.0847918   -2.6247232 
C     2.7688905   -0.5780194   -3.8029341 
C     2.7031690    0.0641851   -5.0455868 
H     2.1703815    1.8800220   -6.1088184 
H     1.4442378    3.0797296   -4.0353044 
H     1.5625183    1.9438469   -1.8285055 
H     3.1398558   -1.6058283   -3.7407845 
H     3.0215503   -0.4688439   -5.9471174 
C     3.8880758    1.0572163    4.9280808 
C     3.2111053    1.8672029    4.0003038 
C     2.8356026    1.3497506    2.7584001 
C     3.1174803    0.0063484    2.4226350 
C     3.7805061   -0.8026731    3.3736369 
C     4.1766537   -0.2773946    4.6086006 
H     4.1807122    1.4657362    5.9006225 
H     2.9667541    2.9035917    4.2536884 
H     2.2880790    1.9816940    2.0518889 
H     3.9974368   -1.8490327    3.1307828 
H     4.7023119   -0.9137986    5.3278378 
O    -0.7873046   -2.9965692    1.3657936 
C    -2.2967335   -1.0960640    1.8868269 
C    -1.8450789   -2.8202318   -0.8873182 
C    -1.8814818   -2.5529867    2.1702093 
C    -1.1188633   -3.6784110    0.1629302 
C    -0.2748452    0.1958181    3.4781481 
C    -1.5315209    1.6707838    1.3139115 
C    -2.2139920   -0.0424884   -1.8221872 
C    -0.3381444   -1.8258987   -3.1338355 
C     0.4804056   -0.8542736    4.0414002 
C    -2.9073309    1.9667551    1.3711950 
C    -1.7938410    1.2973241   -1.9590930 
C     0.4557522   -2.9895311   -3.2259795 
C    -0.6108873    1.3147117    4.2669595 
C    -0.6283732    2.6809033    0.9154522 
C    -3.5758369   -0.3595763   -2.0034074 
C    -0.6685252   -1.1193884   -4.3048204 
C     0.8702309   -0.7951524    5.3851146 
C    -3.3670025    3.2497156    1.0385599 
C    -2.7171334    2.3017781   -2.2717750 
C     0.8775434   -3.4596991   -4.4759333 
C    -0.2055659    1.3721688    5.6073668 
C    -1.0881931    3.9643181    0.5987254 
C    -4.5010899    0.6536658   -2.2947170 
C    -0.2295485   -1.5870884   -5.5523152 
C     0.5302995    0.3180845    6.1685222 
C    -2.4615708    4.2504542    0.6588562 
C    -4.0740398    1.9827389   -2.4310044 
C     0.5324217   -2.7598475   -5.6429271 
H    -2.9427432   -0.7368893    2.7074952 
H    -2.8610712   -0.9979675    0.9429137 
H    -2.8154278   -2.4890353   -0.4828623 
H    -2.0628347   -3.4367641   -1.7768342 
H    -2.7556934   -3.2238053    2.0460988 
H    -1.5441225   -2.6384661    3.2169250 
H    -0.1586448   -4.0525953   -0.2283068 
H    -1.7560444   -4.5595890    0.3881474 
H     0.7746798   -1.7082450    3.4205065 
H    -3.6330439    1.2054064    1.6704512 
H    -0.7380337    1.5468459   -1.8195092 
H     0.7472804   -3.5347723   -2.3205506 
H    -1.1869138    2.1397713    3.8356464 
H     0.4411627    2.4509338    0.8465543 
H    -3.9260511   -1.3943121   -1.9344064 
H    -1.2706069   -0.2077063   -4.2481776 
H     1.4588877   -1.6111681    5.8155352 
H    -4.4393472    3.4661475    1.0796669 
H    -2.3773169    3.3366679   -2.3743272 
H     1.4814646   -4.3710190   -4.5382312 
H    -0.4676430    2.2443483    6.2153722 
H    -0.3762078    4.7402249    0.2986027 
H    -5.5576598    0.3992870   -2.4280356 
H    -0.4890322   -1.0286662   -6.4574045 
H     0.8462162    0.3668678    7.2156527 
H    -2.8251406    5.2516919    0.4056720 
H    -4.7993760    2.7693854   -2.6630625 
H     0.8642704   -3.1257430   -6.6199285 
