88
Energy =
C     2.2746515   -1.7937319   -0.8202546 
C     2.7631492   -0.7193285   -0.0411391 
C     2.4078163   -0.6125865    1.3368996 
H     3.3034754    0.0987225   -0.5316690 
Pd    0.5695279   -0.5645988    0.0525703 
P    -1.0141550   -0.0901606    1.7387048 
P    -0.8030267   -0.5803769   -1.8453871 
H     1.9007964   -2.6721735   -0.2707797 
H     2.2138623   -1.5463081    1.8812509 
C     3.1090314   -2.6752478   -4.9388903 
C     2.4135663   -3.5905090   -4.1351837 
C     2.1398905   -3.2778219   -2.7985617 
C     2.5510584   -2.0440388   -2.2401279 
C     3.2392483   -1.1267970   -3.0685560 
C     3.5187838   -1.4439142   -4.3999209 
H     3.3331839   -2.9187739   -5.9824230 
H     2.0969710   -4.5546958   -4.5460423 
H     1.6208760   -4.0053344   -2.1632693 
H     3.5629871   -0.1608701   -2.6706096 
H     4.0563120   -0.7247112   -5.0253256 
C     3.3015436    2.7479022    3.8775994 
C     2.9059457    1.5181206    4.4248888 
C     2.6407560    0.4266170    3.5896387 
C     2.7501179    0.5442802    2.1847636 
C     3.1551806    1.7906657    1.6465817 
C     3.4333067    2.8760697    2.4841868 
H     3.5125404    3.6006005    4.5310197 
H     2.8056584    1.4051433    5.5092797 
H     2.3370472   -0.5305137    4.0256932 
H     3.2365969    1.9214020    0.5623412 
H     3.7485157    3.8300650    2.0486126 
O    -1.8006321   -2.7594257    0.1336866 
C    -2.6816972   -0.8845885    1.4660803 
C    -1.5196253   -2.2498156   -2.2181153 
C    -2.6148703   -2.4040030    1.2501698 
C    -2.4741158   -2.7311387   -1.1246617 
C    -0.4964436   -0.8142214    3.3512559 
C    -1.3946998    1.6609639    2.1237200 
C    -2.2311910    0.5820676   -1.8183752 
C     0.0692434   -0.0585066   -3.3778281 
C    -0.6076083   -0.1046904    4.5627166 
C    -2.6999186    2.1538921    2.3225063 
C    -2.0702778    1.8015697   -1.1303723 
C     0.7672075    1.1679782   -3.3244419 
C     0.0404191   -2.1208354    3.3611369 
C    -0.2992727    2.5454246    2.2201867 
C    -3.4395845    0.3318244   -2.5023913 
C     0.0379892   -0.7821854   -4.5838853 
C    -0.1863839   -0.6945893    5.7640537 
C    -2.9009956    3.5112889    2.6143181 
C    -3.1017646    2.7503523   -1.1129151 
C     1.3950887    1.6759931   -4.4673924 
C     0.4496997   -2.7093790    4.5649826 
C    -0.5052161    3.8975326    2.5188703 
C    -4.4744035    1.2769597   -2.4715410 
C     0.6785701   -0.2737380   -5.7234475 
C     0.3414297   -1.9939407    5.7688642 
C    -1.8076873    4.3845180    2.7136578 
C    -4.3083570    2.4855155   -1.7764287 
C     1.3479260    0.9564778   -5.6718605 
H    -3.3068451   -0.6751518    2.3526623 
H    -3.1386209   -0.3818990    0.5939257 
H    -2.0470149   -2.2415919   -3.1883701 
H    -0.6587275   -2.9343920   -2.3148788 
H    -3.6425631   -2.8008021    1.1283651 
H    -2.1766705   -2.9023347    2.1302400 
H    -2.8391213   -3.7480746   -1.3747915 
H    -3.3560169   -2.0622101   -1.0787909 
H    -1.0089476    0.9134994    4.5679674 
H    -3.5690099    1.4952549    2.2443496 
H    -1.1342676    2.0083246   -0.6002471 
H     0.8103435    1.7285586   -2.3828176 
H     0.1505563   -2.6733254    2.4198087 
H     0.7177162    2.1725032    2.0661745 
H    -3.5807454   -0.5927422   -3.0715251 
H    -0.4735907   -1.7462149   -4.6495883 
H    -0.2685413   -0.1317864    6.6997273 
H    -3.9189520    3.8857277    2.7643798 
H    -2.9614238    3.6893317   -0.5686516 
H     1.9232977    2.6338626   -4.4183099 
H     0.8616820   -3.7238416    4.5627232 
H     0.3562341    4.5685762    2.5980530 
H    -5.4110836    1.0716776   -3.0001435 
H     0.6535344   -0.8473928   -6.6555767 
H     0.6710940   -2.4494916    6.7081867 
H    -1.9706175    5.4426202    2.9434444 
H    -5.1189461    3.2213090   -1.7578294 
H     1.8392037    1.3516085   -6.5669280 
