88
Energy =
C     2.5785243    0.6150357    1.0440036 
C     2.7604378    0.2171738   -0.3181821 
C     2.2003688    0.9743106   -1.3712391 
H     3.2135565   -0.7581853   -0.5352394 
Pd    0.6093729    0.2157261    0.1197535 
P    -1.0122355   -0.4722823   -1.4344816 
P    -0.5508853    0.1520693    2.1567839 
H     2.4985772    1.6917426    1.2525759 
H     1.9200705    2.0132159   -1.1374812 
C     3.8488595   -1.7721050    4.3960895 
C     3.4408510   -2.4006366    3.2064003 
C     3.0264109   -1.6340410    2.1122341 
C     3.0133248   -0.2194880    2.1830452 
C     3.4146313    0.3964908    3.3879235 
C     3.8328362   -0.3726484    4.4814781 
H     4.1749666   -2.3732602    5.2510727 
H     3.4430423   -3.4934499    3.1348428 
H     2.6817160   -2.1361722    1.2007140 
H     3.3913855    1.4888049    3.4661497 
H     4.1424074    0.1256541    5.4059448 
C     2.4788730    0.2237598   -5.5920402 
C     3.0398791   -0.6926352   -4.6872056 
C     2.9449583   -0.4751487   -3.3103185 
C     2.2937842    0.6749260   -2.8061310 
C     1.7370441    1.5900777   -3.7304997 
C     1.8232201    1.3655935   -5.1083990 
H     2.5566731    0.0485160   -6.6699779 
H     3.5532772   -1.5847630   -5.0587061 
H     3.3907352   -1.2013970   -2.6249443 
H     1.2383137    2.4914489   -3.3601701 
H     1.3871072    2.0880066   -5.8058892 
O    -0.9369605   -2.6636938    0.8212364 
C    -2.4083261   -1.5405879   -0.7895336 
C    -0.5752160   -1.5342032    2.9301928 
C    -1.9329728   -2.8665614   -0.1817280 
C    -1.4354778   -2.5270914    2.1505392 
C    -1.8786473    0.8455602   -2.3742079 
C    -0.2172897   -1.5801947   -2.6712966 
C     0.1651973    1.2663529    3.4335555 
C    -2.3106907    0.6934643    2.1107158 
C    -1.4129325    2.1706859   -2.2499310 
C    -0.4228092   -1.4744440   -4.0594047 
C     0.4971065    0.8556150    4.7376667 
C    -3.2378288    0.3247179    3.1081190 
C    -2.9957668    0.5885655   -3.1973466 
C     0.6255160   -2.5990769   -2.1696443 
C     0.3869310    2.6083240    3.0552553 
C    -2.7254718    1.5449457    1.0686115 
C    -2.0446911    3.2183651   -2.9332358 
C     0.1732719   -2.4001059   -4.9282637 
C     1.0345532    1.7766065    5.6504518 
C    -4.5617904    0.7797271    3.0399104 
C    -3.6253953    1.6367718   -3.8828646 
C     1.2053679   -3.5286366   -3.0428253 
C     0.9226765    3.5238155    3.9681434 
C    -4.0479508    2.0049194    1.0055446 
C    -3.1522128    2.9516507   -3.7521307 
C     0.9734342   -3.4350379   -4.4235928 
C     1.2483230    3.1079753    5.2703432 
C    -4.9699015    1.6163322    1.9883152 
H    -2.9483199   -0.9300569   -0.0441634 
H    -3.1016947   -1.7517877   -1.6228826 
H     0.4766482   -1.8696501    2.9704200 
H    -0.9467558   -1.4712401    3.9680160 
H    -1.4779651   -3.5055484   -0.9568569 
H    -2.8016454   -3.4170972    0.2303906 
H    -2.4882311   -2.1818224    2.1382083 
H    -1.4111441   -3.5112746    2.6618048 
H    -0.5546117    2.3755706   -1.5993109 
H    -1.0356475   -0.6657114   -4.4681037 
H     0.3626816   -0.1828477    5.0524999 
H    -2.9336088   -0.3109041    3.9467623 
H    -3.3791104   -0.4305834   -3.3138564 
H     0.8156286   -2.6644091   -1.0909788 
H     0.1349309    2.9345640    2.0384222 
H    -2.0085926    1.8417400    0.2969503 
H    -1.6746851    4.2430525   -2.8235568 
H     0.0130248   -2.3060880   -6.0072341 
H     1.2950300    1.4442955    6.6606090 
H    -5.2769710    0.4837316    3.8143718 
H    -4.4903298    1.4253872   -4.5200239 
H     1.8441257   -4.3236912   -2.6439887 
H     1.0862472    4.5632998    3.6656133 
H    -4.3541861    2.6611040    0.1842332 
H    -3.6493835    3.7680612   -4.2860318 
H     1.4289173   -4.1591461   -5.1069823 
H     1.6693571    3.8225626    5.9849773 
H    -6.0058389    1.9673886    1.9399891 
