88
Energy =
C     2.4923870    0.7209171    1.1049980 
C     2.8213230    0.1487950   -0.1570403 
C     2.3422306    0.6777403   -1.3767037 
H     3.3456609   -0.8149579   -0.1666367 
Pd    0.6319925    0.0786803    0.0565315 
P    -1.0581097   -0.4758239   -1.4853920 
P    -0.7730214    0.0598524    1.9416426 
H     2.2927474    1.8021498    1.1425881 
H     1.9841874    1.7185397   -1.3715975 
C     4.0031610   -0.9988357    4.7490096 
C     3.5589667   -1.8385197    3.7135321 
C     3.0424943   -1.2881819    2.5356016 
C     2.9604728    0.1143408    2.3689439 
C     3.3867155    0.9448769    3.4261220 
C     3.9110814    0.3926360    4.6016463 
H     4.4126369   -1.4295579    5.6685241 
H     3.6179212   -2.9264060    3.8259038 
H     2.6881213   -1.9489726    1.7353062 
H     3.3148890    2.0323200    3.3195979 
H     4.2436545    1.0535661    5.4083956 
C     3.3001464   -0.8257856   -5.2929352 
C     3.9353316   -1.3679403   -4.1646323 
C     3.6196116   -0.9014075   -2.8850247 
C     2.6693395    0.1315786   -2.7044285 
C     2.0494576    0.6745933   -3.8535046 
C     2.3537155    0.1974624   -5.1316089 
H     3.5454842   -1.1956439   -6.2936031 
H     4.6853152   -2.1567616   -4.2835154 
H     4.1391055   -1.3294989   -2.0221680 
H     1.3117906    1.4756885   -3.7395086 
H     1.8510527    0.6245384   -6.0048905 
O    -0.4260051   -2.8143887    0.4403356 
C    -2.2737081   -1.7220576   -0.8217032 
C    -1.4692465   -1.6251187    2.3601553 
C    -1.5900391   -3.0245813   -0.3607784 
C    -0.6216888   -2.8024257    1.8493714 
C    -2.0943055    0.9365762   -2.0287062 
C    -0.5207868   -1.2914429   -3.0381876 
C    -0.0991272    0.6626693    3.5462465 
C    -2.2429151    1.1355228    1.6865060 
C    -1.4242496    2.1159844   -2.4202592 
C    -1.1392732   -1.0244505   -4.2759415 
C    -0.0250736    2.0518096    3.7799616 
C    -2.0834983    2.2988550    0.9052713 
C    -3.5018302    0.9040382   -2.0685724 
C     0.5012431   -2.2605286   -2.9595875 
C     0.3648628   -0.2263648    4.5362441 
C    -3.4956709    0.8693921    2.2774831 
C    -2.1438924    3.2328332   -2.8599183 
C    -0.7481454   -1.7351172   -5.4189507 
C     0.4697660    2.5382157    4.9970754 
C    -3.1552386    3.1806402    0.7150700 
C    -4.2215473    2.0299021   -2.4961054 
C     0.8794901   -2.9726554   -4.1044163 
C     0.8542892    0.2664474    5.7536774 
C    -4.5714696    1.7435209    2.0679682 
C    -3.5472222    3.1916010   -2.8971060 
C     0.2561565   -2.7107856   -5.3339918 
C     0.9005350    1.6468574    5.9911188 
C    -4.4029684    2.8989082    1.2890324 
H    -2.8304026   -1.2234420   -0.0092588 
H    -2.9928539   -1.9662792   -1.6240872 
H    -1.5924869   -1.6965667    3.4545533 
H    -2.4815448   -1.6790089    1.9285873 
H    -1.2491320   -3.5863697   -1.2468543 
H    -2.3241991   -3.6593507    0.1758769 
H    -1.1015763   -3.7492305    2.1751204 
H     0.3915700   -2.7687459    2.2825475 
H    -0.3309363    2.1578902   -2.3669910 
H    -1.9236916   -0.2636692   -4.3469053 
H    -0.3804036    2.7579646    3.0219778 
H    -1.1155721    2.5048474    0.4338360 
H    -4.0520395    0.0100368   -1.7628803 
H     1.0004327   -2.4477898   -2.0015358 
H     0.3601918   -1.3077328    4.3709232 
H    -3.6389906   -0.0095794    2.9144268 
H    -1.6108412    4.1387506   -3.1665615 
H    -1.2305204   -1.5248961   -6.3792373 
H     0.5060292    3.6184018    5.1727892 
H    -3.0179135    4.0754867    0.1009132 
H    -5.3156014    1.9951530   -2.5163464 
H     1.6755191   -3.7208046   -4.0397194 
H     1.2091530   -0.4364248    6.5137848 
H    -5.5422034    1.5263094    2.5255558 
H    -4.1133085    4.0660207   -3.2341914 
H     0.5604292   -3.2626015   -6.2293064 
H     1.2783097    2.0280137    6.9452697 
H    -5.2457206    3.5797776    1.1312670 
