88
Energy =
C     2.4815511   -0.3811225   -1.2887811 
C     2.8532990   -0.1540592    0.0708602 
C     2.5887969   -1.1367166    1.0525706 
H     3.2192517    0.8317216    0.3808721 
Pd    0.6727817   -0.4496445    0.0310584 
P    -0.6667532   -0.3539827    1.9505491 
P    -0.9752117   -0.6291662   -1.6480973 
H     2.4809674   -1.4200356   -1.6442380 
H     2.3941515   -2.1580424    0.6888385 
C     2.6678482    2.5541497   -4.4348435 
C     2.7762049    2.9640974   -3.0948821 
C     2.7269706    2.0211377   -2.0626173 
C     2.5808109    0.6409574   -2.3471679 
C     2.4925299    0.2434217   -3.7012689 
C     2.5277394    1.1901186   -4.7317587 
H     2.6993197    3.2942967   -5.2409355 
H     2.8934744    4.0259365   -2.8541123 
H     2.7846430    2.3657580   -1.0247041 
H     2.3880229   -0.8193093   -3.9425492 
H     2.4484866    0.8587831   -5.7722669 
C     3.5529962   -1.0463589    5.2355401 
C     3.0447180   -2.2104497    4.6405580 
C     2.7270308   -2.2153473    3.2774408 
C     2.9047719   -1.0570176    2.4837552 
C     3.4080278    0.1113992    3.1021122 
C     3.7328425    0.1120219    4.4607503 
H     3.8108622   -1.0399181    6.2994923 
H     2.9095668   -3.1192995    5.2359196 
H     2.3561539   -3.1335575    2.8067445 
H     3.5518483    1.0250114    2.5183845 
H     4.1253719    1.0232567    4.9220959 
O    -1.2049469   -3.0315096    0.4772098 
C    -1.0379565   -2.0208326    2.6729025 
C    -2.4458630   -1.6704793   -1.1591787 
C    -1.8732307   -2.8888956    1.7307184 
C    -2.0710459   -3.0728568   -0.6559427 
C     0.0952829    0.6246781    3.3078693 
C    -2.2961923    0.4822171    1.7582545 
C    -1.7037336    0.9050735   -2.3365883 
C    -0.3274048   -1.5315699   -3.1172285 
C     0.5663008    1.9129241    2.9721889 
C    -2.3760066    1.5568823    0.8498150 
C    -0.8130045    1.9617747   -2.6219570 
C     0.4642723   -2.6822552   -2.9058895 
C     0.1862644    0.1824201    4.6402471 
C    -3.4341257    0.1364195    2.5171691 
C    -3.0799865    1.0745814   -2.5880329 
C    -0.5837259   -1.1025385   -4.4339375 
C     1.0902188    2.7551145    3.9596354 
C    -3.5739703    2.2664768    0.6901581 
C    -1.2898253    3.1644991   -3.1566912 
C     0.9824555   -3.3954357   -3.9949174 
C     0.7225412    1.0263989    5.6239265 
C    -4.6347118    0.8394588    2.3451954 
C    -3.5531014    2.2842380   -3.1179818 
C    -0.0540455   -1.8144655   -5.5207926 
C     1.1654188    2.3135294    5.2900246 
C    -4.7073772    1.9030251    1.4315601 
C    -2.6622346    3.3296132   -3.4032291 
C     0.7278231   -2.9586880   -5.3053863 
H    -0.0582518   -2.4893013    2.8716168 
H    -1.5599652   -1.9217367    3.6409853 
H    -2.9949464   -1.1063399   -0.3828617 
H    -3.1013920   -1.7696728   -2.0430177 
H    -2.8720052   -2.4312104    1.5888096 
H    -2.0258877   -3.8879596    2.1873016 
H    -1.5376867   -3.6364783   -1.4387366 
H    -2.9965859   -3.6358113   -0.4217037 
H     0.5142752    2.2560816    1.9317080 
H    -1.4971112    1.8372760    0.2592652 
H     0.2570942    1.8398287   -2.4290129 
H     0.6872198   -3.0115927   -1.8835049 
H    -0.1486779   -0.8185589    4.9257796 
H    -3.3925994   -0.6729201    3.2531737 
H    -3.7952864    0.2775099   -2.3682541 
H    -1.1840383   -0.2048829   -4.6118033 
H     1.4423062    3.7565024    3.6909539 
H    -3.6191837    3.0943883   -0.0241477 
H    -0.5844963    3.9717030   -3.3794541 
H     1.5930824   -4.2874512   -3.8209137 
H     0.7942663    0.6712208    6.6570282 
H    -5.5146286    0.5602821    2.9340507 
H    -4.6244285    2.4078061   -3.3076531 
H    -0.2515091   -1.4685187   -6.5407256 
H     1.5758603    2.9702175    6.0639602 
H    -5.6469388    2.4503278    1.3032560 
H    -3.0371366    4.2709572   -3.8182379 
H     1.1414872   -3.5095044   -6.1563028 
