88
Energy =
C     2.3096791    1.4239898    0.5573852 
C     2.7713299    0.2751080   -0.1228398 
C     2.4260943    0.0493948   -1.4926607 
H     3.2753957   -0.5200114    0.4403802 
Pd    0.5853418    0.1304926   -0.2683106 
P    -0.7929985   -0.7834744   -1.9309732 
P    -0.8307845    0.2171647    1.6040116 
H     1.9733758    2.2661565   -0.0673792 
H     2.2897180    0.9317245   -2.1345040 
C     3.0848176    2.5621432    4.6267590 
C     2.3449632    3.3976481    3.7769636 
C     2.0968917    3.0074488    2.4568164 
C     2.5727493    1.7709909    1.9601454 
C     3.3104924    0.9369318    2.8324718 
C     3.5668380    1.3327737    4.1476532 
H     3.2891966    2.8674350    5.6581107 
H     1.9692883    4.3598003    4.1397809 
H     1.5328637    3.6715117    1.7940076 
H     3.6970068   -0.0236749    2.4809357 
H     4.1448282    0.6769352    4.8059519 
C     3.3828663   -3.5780703   -3.6079279 
C     3.3113924   -2.3533920   -4.2869618 
C     2.9964500   -1.1784322   -3.5922372 
C     2.7557374   -1.2041711   -2.2016940 
C     2.8234384   -2.4487018   -1.5287962 
C     3.1348212   -3.6214695   -2.2246737 
H     3.6282700   -4.4964177   -4.1512299 
H     3.4962105   -2.3107376   -5.3652865 
H     2.9288422   -0.2273577   -4.1312595 
H     2.6025958   -2.4997285   -0.4562278 
H     3.1812745   -4.5753699   -1.6887557 
O    -0.9443585   -2.7347903    0.5255805 
C    -0.8501447   -2.6377335   -1.8902823 
C    -2.2590860   -0.9929425    1.6471233 
C    -1.5897975   -3.1767228   -0.6670521 
C    -1.8170219   -2.4617873    1.6224725 
C    -2.5531293   -0.2415524   -1.9264210 
C    -0.2584146   -0.3456438   -3.6359274 
C     0.1300710   -0.2646714    3.0982506 
C    -1.6240921    1.8311739    1.9732165 
C    -2.8792642    0.9830590   -1.3124483 
C    -0.0346010    1.0228963   -3.9006124 
C     0.9394934   -1.4196430    2.9939529 
C    -1.2145274    2.9606020    1.2349257 
C    -3.5702801   -0.9858882   -2.5602243 
C    -0.0655899   -1.2857072   -4.6647904 
C     0.0801919    0.4364963    4.3172737 
C    -2.6333034    1.9815840    2.9481155 
C    -4.2007660    1.4502095   -1.3080059 
C     0.3668372    1.4431658   -5.1736910 
C     1.6409599   -1.8925815    4.1106468 
C    -1.7953070    4.2149931    1.4648509 
C    -4.8924256   -0.5209201   -2.5489201 
C     0.3369638   -0.8604680   -5.9404578 
C     0.7974067   -0.0350664    5.4264034 
C    -3.2121842    3.2372149    3.1789848 
C    -5.2106063    0.6941470   -1.9206514 
C     0.5538200    0.4994493   -6.1979674 
C     1.5645727   -1.2048251    5.3313530 
C    -2.7951477    4.3545837    2.4390515 
H    -1.3344005   -3.0240035   -2.8043752 
H     0.2007223   -2.9785054   -1.8981820 
H    -2.8482324   -0.8067821    2.5625660 
H    -2.8966684   -0.7527180    0.7778229 
H    -1.5927417   -4.2855256   -0.7014929 
H    -2.6446050   -2.8381019   -0.6877284 
H    -2.7101633   -3.1165967    1.5888811 
H    -1.2608694   -2.7129967    2.5410105 
H    -2.0931413    1.5696412   -0.8269954 
H    -0.1789227    1.7611495   -3.1017524 
H     1.0077974   -1.9501818    2.0360114 
H    -0.4420142    2.8437586    0.4658213 
H    -3.3383431   -1.9258793   -3.0722427 
H    -0.2046728   -2.3550714   -4.4839841 
H    -0.5052761    1.3565767    4.4029701 
H    -2.9712384    1.1225853    3.5372853 
H    -4.4368265    2.4015988   -0.8201198 
H     0.5336717    2.5075180   -5.3690109 
H     2.2527645   -2.7967873    4.0250122 
H    -1.4701304    5.0821833    0.8807775 
H    -5.6771991   -1.1077367   -3.0374480 
H     0.4898255   -1.6014826   -6.7318463 
H     0.7581282    0.5210359    6.3686663 
H    -3.9934569    3.3423199    3.9388290 
H    -6.2455148    1.0514307   -1.9144216 
H     0.8694125    0.8265017   -7.1939592 
H     2.1152591   -1.5719979    6.2035372 
H    -3.2524194    5.3327952    2.6199631 
