88
Energy =
C     1.5173023   -1.9414716   -1.7190648 
C     2.2830053   -1.6041893   -0.5789605 
C     1.8478926   -1.9995362    0.7211755 
H     3.1386706   -0.9273246   -0.6865208 
Pd    0.3072141   -0.6892819   -0.2505872 
P    -1.1509266   -0.4564660    1.5915997 
P    -0.7683458    0.6549164   -1.8383462 
H     0.7868011   -2.7571876   -1.5995866 
H     1.2616418   -2.9249324    0.7961447 
C     2.4223337   -1.1487280   -5.8405559 
C     1.3547734   -1.9874238   -5.4882610 
C     1.0664462   -2.2200262   -4.1384093 
C     1.8356950   -1.6170571   -3.1148167 
C     2.8987269   -0.7614179   -3.4876952 
C     3.1901741   -0.5368155   -4.8352008 
H     2.6577182   -0.9712725   -6.8948976 
H     0.7556875   -2.4724834   -6.2657846 
H     0.2497215   -2.8981964   -3.8640872 
H     3.5058771   -0.2712254   -2.7212869 
H     4.0194873    0.1236904   -5.1058773 
C     3.6656837   -0.7690850    4.4262416 
C     3.9796720   -0.0867412    3.2382681 
C     3.4034698   -0.4800127    2.0256506 
C     2.5072210   -1.5758766    1.9701224 
C     2.2162464   -2.2630166    3.1711570 
C     2.7833649   -1.8591646    4.3855097 
H     4.1120547   -0.4553149    5.3753748 
H     4.6730263    0.7606329    3.2594763 
H     3.6399946    0.0839397    1.1172231 
H     1.5321991   -3.1174720    3.1478491 
H     2.5362974   -2.4018302    5.3037562 
O    -2.7074605   -1.6153616   -0.9663521 
C    -2.9563042   -0.3448241    1.1289762 
C    -2.0097914   -0.2719371   -2.8581076 
C    -3.4425373   -1.5085936    0.2519926 
C    -3.1846826   -0.7825172   -2.0231425 
C    -1.1135370   -1.9597151    2.6556317 
C    -0.8856533    0.9345534    2.7554454 
C    -1.6598150    2.1274609   -1.1842410 
C     0.3862867    1.4287413   -3.0421879 
C    -1.0774133   -1.8842156    4.0615250 
C    -1.9203976    1.7578650    3.2429209 
C    -2.7889571    2.6860741   -1.8197230 
C     1.4685182    2.1592034   -2.5040554 
C    -1.1076650   -3.2263990    2.0301998 
C     0.4419144    1.1738357    3.1702932 
C    -1.1396386    2.7517680   -0.0327372 
C     0.2230255    1.3655243   -4.4381682 
C    -1.0332039   -3.0588869    4.8277093 
C    -1.6267253    2.8011981    4.1337303 
C    -3.3985327    3.8324841   -1.2915209 
C     2.3523070    2.8409267   -3.3483462 
C    -1.0739565   -4.3965749    2.8002129 
C     0.7280634    2.2115382    4.0651971 
C    -1.7430785    3.9062610    0.4848538 
C     1.1183670    2.0417150   -5.2800595 
C    -1.0309097   -4.3138999    4.2017316 
C    -0.3060050    3.0299225    4.5472863 
C    -2.8784469    4.4430089   -0.1389776 
C     2.1755220    2.7865640   -4.7400035 
H    -3.5457441   -0.3282743    2.0634186 
H    -3.0975950    0.6226431    0.6131869 
H    -2.3907501    0.3603999   -3.6794286 
H    -1.4599940   -1.1133039   -3.3151090 
H    -4.5248281   -1.3841848    0.0478054 
H    -3.3197671   -2.4691393    0.7784508 
H    -3.8738602   -1.3613567   -2.6711482 
H    -3.7530770    0.0764560   -1.6152024 
H    -1.0682979   -0.9095657    4.5591490 
H    -2.9570191    1.6050183    2.9309145 
H    -3.1949246    2.2411514   -2.7340416 
H     1.6111069    2.1988554   -1.4173959 
H    -1.1155997   -3.2950325    0.9353546 
H     1.2522870    0.5415568    2.7957597 
H    -0.2604723    2.3291613    0.4659107 
H    -0.5901748    0.7872532   -4.8851251 
H    -0.9960710   -2.9898935    5.9198839 
H    -2.4369062    3.4372789    4.5052247 
H    -4.2780369    4.2556657   -1.7877973 
H     3.1808983    3.4147106   -2.9204077 
H    -1.0719444   -5.3736284    2.3060714 
H     1.7623909    2.3775724    4.3833379 
H    -1.3289957    4.3748912    1.3829325 
H     0.9863616    1.9814221   -6.3651807 
H    -0.9931584   -5.2277332    4.8034626 
H    -0.0835605    3.8440549    5.2448838 
H    -3.3568084    5.3399963    0.2676808 
H     2.8661218    3.3186754   -5.4022852 
