88
Energy =
C     2.0792867   -1.4049670   -1.1489541 
C     2.4401886   -1.0156674    0.1755378 
C     1.8882553   -1.6298247    1.3182873 
H     3.0775024   -0.1310956    0.2988288 
Pd    0.2758417   -0.6585073   -0.0665041 
P    -1.1188949    0.1961565    1.6467272 
P    -1.0221253   -0.3564449   -1.9998078 
H     1.7934434   -2.4543128   -1.3148921 
H     1.3847601   -2.5989118    1.1809844 
C     3.8209529    0.6163100   -4.5282308 
C     3.6833706   -0.7792937   -4.5271728 
C     3.0935198   -1.4296125   -3.4361085 
C     2.6417406   -0.6957999   -2.3197235 
C     2.7789648    0.7115325   -2.3364064 
C     3.3609823    1.3610807   -3.4297040 
H     4.2783035    1.1237913   -5.3838211 
H     4.0314739   -1.3663000   -5.3831142 
H     2.9876738   -2.5192315   -3.4431076 
H     2.4059056    1.3004026   -1.4902584 
H     3.4533902    2.4522567   -3.4283744 
C     2.9366026   -0.8006281    5.4055770 
C     3.5443485   -0.0696051    4.3711368 
C     3.2013294   -0.3137538    3.0379448 
C     2.2547324   -1.3133745    2.7061149 
C     1.6722657   -2.0599332    3.7582108 
C     1.9985771   -1.7978234    5.0930763 
H     3.2020390   -0.6017471    6.4489793 
H     4.2865604    0.7000603    4.6061446 
H     3.6806935    0.2763436    2.2514611 
H     0.9479383   -2.8453340    3.5231489 
H     1.5252044   -2.3796679    5.8902466 
O    -3.4398778   -1.1767822    0.1420565 
C    -2.8328111    0.8738654    1.2965718 
C    -2.6607007   -1.2600157   -2.1278038 
C    -3.8614723   -0.2495469    1.1377887 
C    -3.7644601   -0.7953283   -1.1895691 
C    -1.4656387   -1.0474810    2.9518242 
C    -0.3164810    1.6379176    2.4561599 
C    -1.4316060    1.4113307   -2.2749515 
C    -0.2920665   -0.9110407   -3.5973692 
C    -1.5449615   -2.3990442    2.5562915 
C     0.5560848    1.4863594    3.5540275 
C    -2.4369602    1.8215544   -3.1773365 
C     0.1235696    0.0008762   -4.5856155 
C    -1.7371046   -0.6996389    4.2905427 
C    -0.5238610    2.9305924    1.9211542 
C    -0.6839557    2.3878716   -1.5871877 
C    -0.1789046   -2.2969211   -3.8410200 
C    -1.8682311   -3.3917932    3.4910221 
C     1.2002783    2.6041150    4.1039383 
C    -2.6959631    3.1851460   -3.3699028 
C     0.6146351   -0.4701477   -5.8118327 
C    -2.0432862   -1.6981221    5.2259424 
C     0.1278274    4.0408069    2.4719919 
C    -0.9386486    3.7520510   -1.7892851 
C     0.3014856   -2.7602120   -5.0725079 
C    -2.1057826   -3.0433126    4.8297837 
C     0.9937005    3.8811376    3.5653172 
C    -1.9484504    4.1514176   -2.6768993 
C     0.6921765   -1.8467952   -6.0635745 
H    -3.1072434    1.5385595    2.1352128 
H    -2.7727202    1.4876454    0.3795643 
H    -2.9904173   -1.1726403   -3.1779228 
H    -2.4486298   -2.3272927   -1.9433978 
H    -4.8577563    0.1737260    0.8972900 
H    -3.9585692   -0.8219052    2.0749774 
H    -4.7211036   -1.2705701   -1.4912843 
H    -3.9018033    0.3017482   -1.2728706 
H    -1.3617625   -2.6646681    1.5089346 
H     0.7223583    0.5008362    3.9955068 
H    -3.0132252    1.0812496   -3.7422205 
H     0.0658930    1.0777088   -4.4019383 
H    -1.7019256    0.3477607    4.6078028 
H    -1.2005508    3.0807394    1.0746291 
H     0.0979775    2.0692288   -0.8874089 
H    -0.4707756   -3.0219175   -3.0721225 
H    -1.9312385   -4.4382617    3.1752736 
H     1.8675321    2.4662136    4.9607423 
H    -3.4803923    3.4951857   -4.0679097 
H     0.9400164    0.2473089   -6.5718308 
H    -2.2387112   -1.4230222    6.2675850 
H    -0.0491918    5.0359745    2.0503068 
H    -0.3481505    4.5006982   -1.2507282 
H     0.3717708   -3.8372682   -5.2571381 
H    -2.3479065   -3.8192489    5.5634499 
H     1.4982788    4.7505901    3.9989997 
H    -2.1525549    5.2156990   -2.8331923 
H     1.0674405   -2.2090358   -7.0260936 
