88
Energy =
C     2.2816132    1.4252854    0.6440438 
C     2.7655516    0.3098348   -0.0753177 
C     2.4397842    0.1341344   -1.4570368 
H     3.2732873   -0.5007594    0.4619618 
Pd    0.5833267    0.1438559   -0.2532449 
P    -0.7621699   -0.7294594   -1.9635328 
P    -0.8580891    0.1545849    1.6021972 
H     1.9432853    2.2877491    0.0488415 
H     2.2981760    1.0394303   -2.0651441 
C     3.0009893    2.4108517    4.7632115 
C     2.2625593    3.2720817    3.9382650 
C     2.0320664    2.9311758    2.6013628 
C     2.5248256    1.7192967    2.0624518 
C     3.2602967    0.8582272    2.9101638 
C     3.4989647    1.2050336    4.2423709 
H     3.1916210    2.6777273    5.8077739 
H     1.8742414    4.2161316    4.3338460 
H     1.4689078    3.6153713    1.9586046 
H     3.6588806   -0.0849197    2.5262719 
H     4.0757953    0.5291900    4.8811743 
C     3.4914058   -3.3886514   -3.7001744 
C     3.2090703   -3.4940650   -2.3268727 
C     2.8658415   -2.3556973   -1.5899909 
C     2.7994071   -1.0845803   -2.2110830 
C     3.0738847   -0.9966525   -3.5926666 
C     3.4215265   -2.1370181   -4.3282178 
H     3.7621420   -4.2799922   -4.2754679 
H     3.2541880   -4.4694314   -1.8309547 
H     2.6195327   -2.4544446   -0.5262408 
H     3.0067929   -0.0244319   -4.0925459 
H     3.6328185   -2.0461910   -5.3986675 
O    -0.9447699   -2.7612743    0.4299788 
C    -0.8120936   -2.5845743   -1.9791580 
C    -2.2827363   -1.0605780    1.5857322 
C    -1.5709502   -3.1636037   -0.7865459 
C    -1.8350972   -2.5264506    1.5214167 
C    -2.5248336   -0.1955281   -1.9710315 
C    -0.2057846   -0.2407944   -3.6475477 
C     0.0862866   -0.3749524    3.0909663 
C    -1.6631862    1.7519128    2.0165058 
C    -3.5259470   -0.9209982   -2.6506843 
C    -0.0061268    1.1379805   -3.8762966 
C     0.9017162   -1.5226346    2.9569418 
C    -1.2555138    2.9068933    1.3177799 
C    -2.8686485    1.0051624   -1.3206572 
C     0.0258170   -1.1522930   -4.6938788 
C     0.0188330    0.2835878    4.3327182 
C    -2.6805161    1.8650315    2.9880688 
C    -4.8500887   -0.4617347   -2.6494595 
C     0.4081333    1.5962732   -5.1319612 
C     1.5918885   -2.0309360    4.0650931 
C    -1.8462227    4.1496679    1.5829556 
C    -4.1920716    1.4669324   -1.3262459 
C     0.4411396   -0.6887960   -5.9520717 
C     0.7244862   -0.2232956    5.4336448 
C    -3.2691354    3.1090150    3.2544882 
C    -5.1860693    0.7293633   -1.9854944 
C     0.6325838    0.6810092   -6.1744267 
C     1.4978743   -1.3860072    5.3077363 
C    -2.8540679    4.2519389    2.5534992 
H    -1.2788108   -2.9437309   -2.9132195 
H     0.2399622   -2.9216825   -1.9790888 
H    -2.8863817   -0.9049477    2.4974248 
H    -2.9079228   -0.7947953    0.7148547 
H    -1.5728385   -4.2706898   -0.8576063 
H    -2.6255141   -2.8245056   -0.8132012 
H    -2.7251032   -3.1828609    1.4533133 
H    -1.2919437   -2.8049913    2.4398795 
H    -3.2795843   -1.8413030   -3.1909799 
H    -0.1805331    1.8542659   -3.0635901 
H     0.9830637   -2.0203240    1.9825306 
H    -0.4761187    2.8197349    0.5516916 
H    -2.0948249    1.5773370   -0.7995581 
H    -0.0926507   -2.2283868   -4.5403264 
H    -0.5711011    1.1981384    4.4429772 
H    -3.0171642    0.9856215    3.5471228 
H    -5.6223924   -1.0338560   -3.1739610 
H     0.5552041    2.6682257   -5.2997232 
H     2.2084448   -2.9293427    3.9558124 
H    -1.5221390    5.0370716    1.0294402 
H    -4.4420483    2.3995538   -0.8099019 
H     0.6243033   -1.4078116   -6.7571817 
H     0.6713356    0.2997670    6.3939677 
H    -4.0567311    3.1849247    4.0112680 
H    -6.2224286    1.0824631   -1.9876262 
H     0.9579097    1.0379654   -7.1569248 
H     2.0397428   -1.7807997    6.1733663 
H    -3.3191580    5.2209746    2.7617920 
