88
Energy =
C     1.9790815   -1.7477911   -1.0029970 
C     2.5182549   -0.8170450   -0.0918637 
C     2.2607536   -0.8829257    1.3101864 
H     3.0567768    0.0578812   -0.4772883 
Pd    0.3431243   -0.5935189    0.2067727 
P    -0.8833614    0.0729378    2.0951234 
P    -1.2124037   -0.3214512   -1.5593147 
H     1.5791967   -2.6878659   -0.5932925 
H     2.0913862   -1.8750335    1.7543463 
C     2.7473755   -1.8968955   -5.2314734 
C     3.3372293   -0.8863229   -4.4538537 
C     3.0846483   -0.8137916   -3.0807222 
C     2.2492713   -1.7661708   -2.4476353 
C     1.6865578   -2.7952264   -3.2399319 
C     1.9211307   -2.8522183   -4.6179097 
H     2.9411804   -1.9461679   -6.3079037 
H     3.9944751   -0.1467642   -4.9224628 
H     3.5478786   -0.0116538   -2.4989406 
H     1.0488719   -3.5488157   -2.7686953 
H     1.4635079   -3.6494306   -5.2121780 
C     3.9492455    2.0821726    3.9364159 
C     3.9615286    0.7259665    4.2930453 
C     3.3885944   -0.2316899    3.4468800 
C     2.8040242    0.1491601    2.2213186 
C     2.7913484    1.5205146    1.8765441 
C     3.3563018    2.4773404    2.7259242 
H     4.3933785    2.8302236    4.6011631 
H     4.4141678    0.4107342    5.2386232 
H     3.3998257   -1.2883874    3.7328532 
H     2.3147525    1.8375603    0.9414436 
H     3.3317795    3.5357782    2.4460716 
O    -3.3027364   -1.4726428    0.4032518 
C    -2.4101246   -0.9123032    2.5606719 
C    -2.9688681    0.2658791   -1.2622287 
C    -3.6004707   -0.7984099    1.6201796 
C    -3.8657820   -0.8678951   -0.7569118 
C    -0.0227764    0.0075725    3.7223508 
C    -1.4643389    1.8081968    1.9553164 
C    -0.6026916    0.9369746   -2.7519233 
C    -1.4887027   -1.8774166   -2.4935290 
C     0.2453285   -1.2558212    4.2922027 
C    -0.8712923    2.6393353    0.9842511 
C    -0.9353434    2.2971037   -2.5533418 
C    -1.8389168   -1.9016179   -3.8584834 
C     0.3455053    1.1729203    4.4204681 
C    -2.4526811    2.3429525    2.8100438 
C     0.2497449    0.5928184   -3.8219703 
C    -1.4254340   -3.0875864   -1.7715833 
C     0.8329973   -1.3479236    5.5603386 
C    -1.2623146    3.9804401    0.8607517 
C    -0.4243380    3.2851523   -3.4041662 
C    -2.0831309   -3.1252831   -4.4978735 
C     0.9439251    1.0730079    5.6847915 
C    -2.8476016    3.6808774    2.6786445 
C     0.7534186    1.5874614   -4.6724305 
C    -1.6876629   -4.3067973   -2.4106601 
C     1.1766856   -0.1825955    6.2625264 
C    -2.2542442    4.5007093    1.7047364 
C     0.4237537    2.9338433   -4.4660798 
C    -2.0050212   -4.3276261   -3.7778676 
H    -2.0972722   -1.9685626    2.6288456 
H    -2.6955753   -0.5931980    3.5783643 
H    -2.9291859    1.0938982   -0.5313976 
H    -3.3523481    0.6697770   -2.2163443 
H    -3.8470652    0.2677678    1.4412335 
H    -4.4867216   -1.2652450    2.0983801 
H    -3.9480358   -1.6645776   -1.5145066 
H    -4.8879795   -0.4876939   -0.5565381 
H    -0.0083228   -2.1746067    3.7506190 
H    -0.1017318    2.2248506    0.3216906 
H    -1.6005688    2.5943936   -1.7373004 
H    -1.9132645   -0.9688263   -4.4270680 
H     0.1677710    2.1586535    3.9808031 
H    -2.9090996    1.7230143    3.5889721 
H     0.5076355   -0.4523867   -4.0073983 
H    -1.1805070   -3.0650506   -0.7036292 
H     1.0239221   -2.3325399    5.9997930 
H    -0.7913120    4.6161222    0.1036173 
H    -0.6977758    4.3331280   -3.2413464 
H    -2.3403817   -3.1383753   -5.5621022 
H     1.2310864    1.9853024    6.2172065 
H    -3.6175579    4.0870252    3.3426605 
H     1.4075825    1.2983767   -5.5012117 
H    -1.6405999   -5.2413780   -1.8422254 
H     1.6359731   -0.2547662    7.2536578 
H    -2.5642777    5.5463076    1.6081191 
H     0.8183217    3.7066812   -5.1336661 
H    -2.1994786   -5.2805205   -4.2809526 
