88
Energy =
C     2.3006564   -1.6316573   -1.0447868 
C     2.7232254   -0.7003949   -0.0652235 
C     2.3271320   -0.8384146    1.2952742 
H     3.2611906    0.1991986   -0.3876756 
Pd    0.5282182   -0.6257404   -0.0307662 
P    -1.0852180   -0.2951463    1.6676095 
P    -0.9692560   -0.2862109   -1.8082552 
H     1.9896602   -2.6252423   -0.6854221 
H     2.1186717   -1.8522186    1.6636962 
C     3.6204016   -1.5998901   -5.1277464 
C     3.2608877   -2.8019756   -4.5016298 
C     2.7861697   -2.7899022   -3.1846377 
C     2.6843236   -1.5785085   -2.4624517 
C     3.0207828   -0.3709868   -3.1185600 
C     3.4874525   -0.3842106   -4.4346305 
H     3.9911335   -1.6056557   -6.1578158 
H     3.3545992   -3.7516298   -5.0384993 
H     2.5199494   -3.7321671   -2.6917752 
H     2.9023369    0.5845478   -2.5970389 
H     3.7396600    0.5583303   -4.9302082 
C     3.1626577    2.0377718    4.3926098 
C     3.3154900    2.4031884    3.0440017 
C     3.0498890    1.4787925    2.0284003 
C     2.6381470    0.1586992    2.3373988 
C     2.5063111   -0.1977308    3.6991684 
C     2.7583828    0.7334922    4.7138822 
H     3.3634025    2.7649435    5.1860287 
H     3.6361934    3.4172876    2.7834114 
H     3.1464063    1.7950463    0.9845685 
H     2.1962964   -1.2146227    3.9602764 
H     2.6404831    0.4356933    5.7608036 
O    -1.6032274   -2.8722889    0.0570658 
C    -2.7506427   -1.0176503    1.2421503 
C    -2.2816872   -1.6138449   -1.9820764 
C    -2.6917635   -2.5202698    0.9147531 
C    -1.8941341   -2.9543348   -1.3342158 
C    -0.6500370   -1.2032682    3.2073457 
C    -1.4660614    1.4156693    2.1954824 
C    -1.8719329    1.2909369   -1.5333861 
C    -0.3378112   -0.1121325   -3.5262217 
C    -0.1675903   -2.5253231    3.0820642 
C    -2.7628810    1.9665125    2.1795866 
C    -3.1928579    1.5093049   -1.9762219 
C    -0.0969622    1.1605590   -4.0834420 
C    -0.7802229   -0.6301634    4.4869153 
C    -0.3784488    2.2200914    2.5997268 
C    -1.1733908    2.3420073   -0.9013381 
C    -0.0780005   -1.2640355   -4.2994850 
C     0.1741383   -3.2616612    4.2240003 
C    -2.9641428    3.3000261    2.5645673 
C    -3.8071162    2.7523501   -1.7677310 
C     0.3615543    1.2761473   -5.4029980 
C    -0.4260190   -1.3697420    5.6255222 
C    -0.5867336    3.5479034    2.9894173 
C    -1.7829883    3.5893263   -0.7154526 
C     0.3716969   -1.1408508   -5.6192594 
C     0.0512893   -2.6822638    5.4978711 
C    -1.8809923    4.0925134    2.9705678 
C    -3.1033695    3.7927401   -1.1410824 
C     0.5884353    0.1286105   -6.1757535 
H    -3.4218907   -0.8663198    2.1065761 
H    -3.1433494   -0.4205890    0.4006116 
H    -3.2115525   -1.2338090   -1.5276215 
H    -2.4914185   -1.7646456   -3.0552221 
H    -3.6559348   -2.8455845    0.4748915 
H    -2.5434176   -3.0916918    1.8464898 
H    -0.9774733   -3.3601944   -1.7939056 
H    -2.7132904   -3.6830108   -1.5083408 
H    -0.0590644   -2.9733128    2.0868603 
H    -3.6243663    1.3766883    1.8561556 
H    -3.7448821    0.7207191   -2.4983579 
H    -0.2910698    2.0643691   -3.4971848 
H    -1.1443134    0.3960280    4.5961200 
H     0.6331165    1.8045171    2.6133224 
H    -0.1514176    2.1724932   -0.5411194 
H    -0.2267684   -2.2644714   -3.8799833 
H     0.5436122   -4.2870767    4.1194604 
H    -3.9751544    3.7195967    2.5439156 
H    -4.8356314    2.9119280   -2.1077874 
H     0.5300354    2.2699382   -5.8306978 
H    -0.5219283   -0.9140179    6.6165009 
H     0.2670742    4.1548872    3.3080446 
H    -1.2328975    4.3919367   -0.2150415 
H     0.5626870   -2.0414768   -6.2106595 
H     0.3283290   -3.2547087    6.3890604 
H    -2.0448187    5.1324068    3.2717989 
H    -3.5869195    4.7623172   -0.9836059 
H     0.9389674    0.2215278   -7.2086600 
