88
Energy =
C     2.1920841   -1.1751931   -1.1995396 
C     2.5591426   -0.6838173    0.0888733 
C     2.1466942   -1.3113244    1.2820094 
H     3.0795268    0.2804869    0.1447767 
Pd    0.3582389   -0.6205696   -0.0552028 
P    -1.0579297    0.1208699    1.6928005 
P    -1.0570538   -0.5791504   -1.9287588 
H     2.0393891   -2.2590664   -1.3108182 
H     1.7689317   -2.3425948    1.2100945 
C     3.5022379    0.9036416   -4.7350709 
C     3.0007720    1.6304979   -3.6426938 
C     2.5573263    0.9598515   -2.4983072 
C     2.6032015   -0.4515722   -2.4231430 
C     3.0941349   -1.1693442   -3.5334089 
C     3.5452686   -0.4968011   -4.6759894 
H     3.8513445    1.4279211   -5.6306060 
H     2.9526365    2.7236762   -3.6858106 
H     2.1510370    1.5323439   -1.6562304 
H     3.1290469   -2.2628954   -3.4951768 
H     3.9267487   -1.0710405   -5.5263534 
C     3.2661785   -0.1603682    5.2715841 
C     2.4535644   -1.2838740    5.0499301 
C     2.1028782   -1.6495105    3.7459209 
C     2.5331463   -0.8853876    2.6348658 
C     3.3553995    0.2422934    2.8753009 
C     3.7246135    0.5923000    4.1774881 
H     3.5511945    0.1208578    6.2905852 
H     2.0978042   -1.8830067    5.8940783 
H     1.4773325   -2.5317373    3.5819098 
H     3.7168984    0.8507442    2.0412371 
H     4.3699660    1.4613041    4.3413443 
O    -3.2381917   -1.6192101    0.3668773 
C    -2.8624306    0.5460590    1.4049114 
C    -2.5602219   -1.7010267   -1.9358411 
C    -3.7352258   -0.7108821    1.3451689 
C    -3.6729000   -1.3475142   -0.9602672 
C    -1.1724282   -1.0940735    3.0641522 
C    -0.4213800    1.6932001    2.3997659 
C    -1.7178699    1.1032140   -2.2473518 
C    -0.3341466   -1.0971347   -3.5418978 
C    -1.4197606   -0.7212894    4.4007262 
C    -0.8315950    2.9206763    1.8295478 
C    -1.0781453    2.2015895   -1.6392296 
C    -0.0517970   -2.4650326   -3.7467176 
C    -1.0924727   -2.4617378    2.7285924 
C     0.5202071    1.7100808    3.4499674 
C    -2.8124037    1.3330791   -3.1089866 
C    -0.0857233   -0.1773794   -4.5780020 
C    -1.5445210   -1.7056096    5.3913723 
C    -0.3094196    4.1321631    2.2991553 
C    -1.5264066    3.5085392   -1.8792989 
C     0.4294331   -2.9088174   -4.9850934 
C    -1.2348904   -3.4426079    3.7192627 
C     1.0341376    2.9278368    3.9185178 
C    -3.2645346    2.6392191   -3.3391250 
C     0.4075545   -0.6271999   -5.8112134 
C    -1.4490078   -3.0648107    5.0540691 
C     0.6270008    4.1398735    3.3449140 
C    -2.6233545    3.7276929   -2.7252717 
C     0.6529290   -1.9909033   -6.0226514 
H    -3.1858639    1.2065557    2.2292584 
H    -2.9287531    1.1184801    0.4618772 
H    -2.9471576   -1.7072258   -2.9699253 
H    -2.1954953   -2.7203407   -1.7211261 
H    -4.7897121   -0.4361694    1.1399996 
H    -3.7106251   -1.2465953    2.3083709 
H    -4.5676130   -1.9618207   -1.1929386 
H    -3.9640398   -0.2843504   -1.0796600 
H    -1.5067611    0.3356645    4.6729201 
H    -1.5662294    2.9399214    1.0191320 
H    -0.2267485    2.0233941   -0.9713161 
H    -0.2116853   -3.1922221   -2.9419677 
H    -0.9287511   -2.7508268    1.6841859 
H     0.8417339    0.7768085    3.9181394 
H    -3.3087470    0.4972021   -3.6131753 
H    -0.2757736    0.8891995   -4.4263050 
H    -1.7220350   -1.4090102    6.4303242 
H    -0.6429276    5.0744412    1.8514749 
H    -1.0181288    4.3533439   -1.4027313 
H     0.6313648   -3.9740470   -5.1386125 
H    -1.1750745   -4.5021783    3.4500359 
H     1.7583757    2.9196796    4.7393661 
H    -4.1170332    2.8089166   -4.0048240 
H     0.6022545    0.0969390   -6.6086815 
H    -1.5496987   -3.8299408    5.8308504 
H     1.0304527    5.0879793    3.7149707 
H    -2.9784835    4.7465954   -2.9109145 
H     1.0289656   -2.3379227   -6.9904698 
