88
Energy =
C     2.7917222    0.3792126    1.1567338 
C     2.9990917   -0.4186584    0.0072354 
C     2.6933227    0.0406681   -1.3052316 
H     3.2567438   -1.4761809    0.1420169 
Pd    0.8617255    0.0706684   -0.0246841 
P    -0.7670848   -0.1595361   -1.6711786 
P    -0.6075310    0.0294240    1.8212578 
H     2.8009347    1.4720775    1.0318033 
H     2.7512608    1.1222761   -1.4976169 
C     3.4296984   -0.9462319    5.2032768 
C     3.1962193   -1.8922290    4.1906073 
C     2.9881775   -1.4764150    2.8710515 
C     3.0082512   -0.1012280    2.5342199 
C     3.2529597    0.8354075    3.5624672 
C     3.4607290    0.4185097    4.8822792 
H     3.5911224   -1.2743147    6.2352245 
H     3.1765039   -2.9601968    4.4323427 
H     2.7973600   -2.2266170    2.0955552 
H     3.2769853    1.9024616    3.3207810 
H     3.6452147    1.1637202    5.6624970 
C     3.2593364   -2.4487014   -4.7703503 
C     2.9556229   -3.0377287   -3.5316557 
C     2.7403579   -2.2371724   -2.4052324 
C     2.8345638   -0.8271122   -2.4909859 
C     3.1107099   -0.2490653   -3.7486839 
C     3.3270745   -1.0521503   -4.8751207 
H     3.4341470   -3.0764413   -5.6501209 
H     2.8882910   -4.1274435   -3.4444295 
H     2.4935320   -2.7093707   -1.4476723 
H     3.1701249    0.8408475   -3.8377730 
H     3.5479262   -0.5837847   -5.8393858 
O    -0.0095063   -2.6468557    0.3020231 
C    -1.6561877   -1.7601621   -1.3341435 
C    -0.5076210   -1.6968294    2.5078702 
C    -0.7122060   -2.9083032   -0.9130223 
C    -0.7697426   -2.8267271    1.4999090 
C    -2.0369909    1.1644843   -1.6380946 
C    -0.3341269   -0.2171491   -3.4608367 
C    -0.0790427    1.1338437    3.1913676 
C    -2.4089354    0.4177071    1.7067830 
C    -3.3911783    0.9302700   -1.9447465 
C    -0.0922437    0.9980175   -4.1375202 
C     0.3887057    2.4193131    2.8466629 
C    -3.4162753   -0.5667028    1.7754219 
C    -1.6015154    2.4814749   -1.3807136 
C    -0.2406875   -1.4269647   -4.1769864 
C    -0.1703985    0.7734245    4.5490078 
C    -2.7918276    1.7671529    1.5514201 
C    -4.2928647    2.0020512   -1.9948829 
C     0.2035241    1.0022691   -5.5059426 
C     0.7405439    3.3375145    3.8446987 
C    -4.7702405   -0.2119047    1.6703183 
C    -2.5011574    3.5530680   -1.4583839 
C     0.0609192   -1.4170871   -5.5460507 
C     0.2035157    1.6875077    5.5439632 
C    -4.1422097    2.1188987    1.4573839 
C    -3.8485257    3.3132925   -1.7656365 
C     0.2752840   -0.2054358   -6.2159659 
C     0.6508681    2.9706249    5.1960320 
C    -5.1367827    1.1300201    1.5088360 
H    -2.3773576   -1.5405462   -0.5258202 
H    -2.2411902   -2.0603551   -2.2218090 
H     0.5214275   -1.7712470    2.9009941 
H    -1.1985129   -1.8070898    3.3627888 
H     0.0702494   -3.0711764   -1.6716654 
H    -1.2985636   -3.8452840   -0.8277284 
H    -1.8463608   -2.8918669    1.2585933 
H    -0.4824077   -3.7894858    1.9670494 
H    -3.7506704   -0.0830376   -2.1491194 
H    -0.1601702    1.9499806   -3.6010507 
H     0.4876217    2.6928525    1.7889501 
H    -3.1649378   -1.6185970    1.9334478 
H    -0.5521885    2.6602849   -1.1146060 
H    -0.4043627   -2.3891146   -3.6848656 
H    -0.5239681   -0.2189766    4.8436002 
H    -2.0315451    2.5524668    1.5154541 
H    -5.3466499    1.8120061   -2.2227635 
H     0.3718810    1.9544182   -6.0196998 
H     1.0975077    4.3347631    3.5671008 
H    -5.5379487   -0.9904437    1.7298496 
H    -2.1523414    4.5733737   -1.2680223 
H     0.1296528   -2.3658831   -6.0874498 
H     0.1417447    1.3945804    6.5970333 
H    -4.4175957    3.1713528    1.3397701 
H    -4.5552472    4.1477090   -1.8212572 
H     0.5035495   -0.2021185   -7.2866203 
H     0.9333597    3.6832135    5.9777804 
H    -6.1931628    1.4067125    1.4320656 
