88
Energy =
C     2.3858053    1.2473902    0.7725795 
C     2.8020836    0.3223758   -0.2109490 
C     2.3216471    0.3649784   -1.5512508 
H     3.4039383   -0.5424498    0.0952071 
Pd    0.6158770    0.0755296   -0.1474999 
P    -0.9353867   -0.7044106   -1.7320056 
P    -0.8916976    0.0570235    1.6604217 
H     1.9407732    2.1918799    0.4240764 
H     2.0324751    1.3437562   -1.9619981 
C     3.7961482    1.3725844    4.8357004 
C     4.3754791    0.4749217    3.9251805 
C     3.9134514    0.4104921    2.6071925 
C     2.8682127    1.2551716    2.1636009 
C     2.3054474    2.1617445    3.0914539 
C     2.7568929    2.2153845    4.4132138 
H     4.1563697    1.4184165    5.8684057 
H     5.1962903   -0.1759888    4.2435629 
H     4.3911158   -0.2869025    1.9120778 
H     1.4967769    2.8267418    2.7712422 
H     2.2969679    2.9164769    5.1165337 
C     3.6598576   -2.5210552   -4.4494508 
C     3.3711944   -2.9329910   -3.1373720 
C     2.9114172   -2.0064994   -2.1953669 
C     2.7314016   -0.6479822   -2.5467060 
C     3.0012628   -0.2533646   -3.8735207 
C     3.4694651   -1.1802797   -4.8133953 
H     4.0247934   -3.2451315   -5.1851883 
H     3.5072116   -3.9807984   -2.8490456 
H     2.6781290   -2.3361194   -1.1757270 
H     2.8517068    0.7912372   -4.1657786 
H     3.6805467   -0.8537804   -5.8366951 
O    -0.2239162   -2.7985013    0.6639001 
C    -1.5279209   -2.4518072   -1.4267814 
C    -2.0435108   -1.4071540    1.6404148 
C    -0.5453967   -3.3183936   -0.6206085 
C    -1.2888916   -2.7510004    1.6147132 
C    -2.4567102    0.3292171   -1.7275465 
C    -0.4504755   -0.7152276   -3.5090247 
C    -0.1600041   -0.0841664    3.3364839 
C    -1.9999913    1.5153227    1.7509218 
C    -3.7343197   -0.1884051   -2.0257690 
C    -0.5110012    0.4864227   -4.2453623 
C     0.9324764   -0.9593127    3.5114695 
C    -1.4021576    2.7884370    1.6277918 
C    -2.3169377    1.7074888   -1.4617336 
C     0.0022603   -1.8884760   -4.1450305 
C    -0.6937339    0.6004237    4.4465666 
C    -3.3945387    1.4283173    1.9275851 
C    -4.8511267    0.6590568   -2.0354939 
C    -0.1599925    0.5027067   -5.6016335 
C     1.4659527   -1.1654951    4.7895891 
C    -2.1782692    3.9507185    1.6993124 
C    -3.4316973    2.5549137   -1.4948623 
C     0.3477037   -1.8665359   -5.5032173 
C    -0.1473671    0.3959681    5.7210119 
C    -4.1723113    2.5946702    1.9836056 
C    -4.7015548    2.0295962   -1.7728869 
C     0.2599930   -0.6755913   -6.2367200 
C     0.9277113   -0.4882668    5.8944064 
C    -3.5682966    3.8549749    1.8760789 
H    -2.4905835   -2.3856862   -0.8950799 
H    -1.7407327   -2.9292585   -2.3987299 
H    -2.6673396   -1.3694327    2.5514807 
H    -2.7092252   -1.2776818    0.7697210 
H     0.4189442   -3.4049087   -1.1479914 
H    -0.9740765   -4.3378865   -0.5223650 
H    -2.0077688   -3.5767948    1.4374752 
H    -0.8217986   -2.9216904    2.5993081 
H    -3.8670894   -1.2484703   -2.2656485 
H    -0.8595058    1.4085130   -3.7681669 
H     1.3643736   -1.4703829    2.6428112 
H    -0.3216181    2.8630445    1.4643040 
H    -1.3288475    2.1126178   -1.2144270 
H     0.1003483   -2.8278304   -3.5932018 
H    -1.5331306    1.2915337    4.3161228 
H    -3.8904746    0.4579332    2.0158271 
H    -5.8403952    0.2479564   -2.2617916 
H    -0.2278915    1.4383821   -6.1662786 
H     2.3158936   -1.8423540    4.9199711 
H    -1.7004386    4.9317918    1.6098138 
H    -3.3087175    3.6209576   -1.2819973 
H     0.6959392   -2.7860759   -5.9836910 
H    -0.5639070    0.9303717    6.5812061 
H    -5.2563694    2.5144129    2.1137029 
H    -5.5764819    2.6876399   -1.7855989 
H     0.5250882   -0.6634572   -7.2987973 
H     1.3533240   -0.6437505    6.8910575 
H    -4.1791485    4.7622537    1.9252839 
