88
Energy =
C     1.0501462    2.1049173    1.5570166 
C     1.8303244    1.8726862    0.4058285 
C     1.3786818    2.2154531   -0.9035722 
H     2.7636602    1.3032617    0.4981107 
Pd   -0.0057080    0.7175324    0.0026731 
P    -1.0288671    0.1195908   -2.0246905 
P    -0.9886675   -0.7791163    1.5534937 
H     0.2070271    2.8065264    1.4660735 
H     0.7022733    3.0773355   -1.0034033 
C     2.2379767    1.3632458    5.6229302 
C     3.1109694    1.0317622    4.5733239 
C     2.7327575    1.2487044    3.2449532 
C     1.4766688    1.8246675    2.9354858 
C     0.6200767    2.1781633    4.0053972 
C     0.9899327    1.9379199    5.3329962 
H     2.5344197    1.1853588    6.6617608 
H     4.0909341    0.5955304    4.7919751 
H     3.4257624    0.9716355    2.4453031 
H    -0.3496547    2.6357301    3.7889988 
H     0.3051154    2.2081520    6.1430266 
C     3.8710456    1.3876742   -4.3155916 
C     3.7192355    0.4189726   -3.3097823 
C     2.8972681    0.6750835   -2.2076204 
C     2.2074659    1.9039132   -2.0893267 
C     2.3566339    2.8610639   -3.1142805 
C     3.1859434    2.6070301   -4.2138258 
H     4.5158314    1.1887225   -5.1778009 
H     4.2414451   -0.5403892   -3.3879011 
H     2.7698433   -0.0921909   -1.4350335 
H     1.8235122    3.8145380   -3.0425033 
H     3.2921005    3.3638859   -4.9976031 
O    -3.6263417   -0.2896584    0.0241675 
C    -2.8875532    0.3178507   -2.1790184 
C    -2.2816720   -2.0392002    1.0435402 
C    -3.7404106   -0.6325972   -1.3518397 
C    -3.6682602   -1.4024211    0.9124513 
C    -0.5373533    1.0667500   -3.5259790 
C    -0.6999330   -1.6317128   -2.4642476 
C     0.3002318   -1.8599911    2.2939251 
C    -1.8353088    0.0914809    2.9300843 
C    -0.9781049    2.4015402   -3.6559261 
C    -1.4424093   -2.3141720   -3.4523269 
C     0.6394900   -3.0695877    1.6443787 
C    -1.9833045   -0.4688268    4.2149762 
C     0.2348908    0.4907305   -4.5521711 
C     0.3585883   -2.2986255   -1.8158806 
C     1.0109765   -1.4861794    3.4535084 
C    -2.4339672    1.3357037    2.6426480 
C    -0.6866824    3.1313896   -4.8154734 
C    -1.1381549   -3.6452755   -3.7671871 
C     1.6656753   -3.8809331    2.1436008 
C    -2.6872580    0.2282717    5.2069375 
C     0.5328475    1.2313271   -5.7051206 
C     0.6674870   -3.6276377   -2.1401617 
C     2.0332446   -2.3074088    3.9507956 
C    -3.1510993    2.0211045    3.6324434 
C     0.0634286    2.5444818   -5.8460318 
C    -0.0844456   -4.3035913   -3.1121490 
C     2.3675082   -3.5017501    3.2986364 
C    -3.2682434    1.4732883    4.9193491 
H    -3.1194488    1.3587606   -1.8948913 
H    -3.1300795    0.2134314   -3.2511084 
H    -1.9592668   -2.4855252    0.0853222 
H    -2.2898443   -2.8377411    1.8069067 
H    -3.4312020   -1.6818352   -1.5329003 
H    -4.7992094   -0.5417829   -1.6724608 
H    -4.0089195   -1.0114749    1.8852794 
H    -4.4069173   -2.1579764    0.5761509 
H    -1.5561493    2.8765134   -2.8545308 
H    -2.2523007   -1.8081330   -3.9883913 
H     0.1005317   -3.3900977    0.7478038 
H    -1.5436943   -1.4445120    4.4467880 
H     0.6049818   -0.5340697   -4.4549730 
H     0.9369588   -1.7678461   -1.0500129 
H     0.7586386   -0.5642102    3.9827512 
H    -2.3422866    1.7571281    1.6351422 
H    -1.0453675    4.1613855   -4.9128669 
H    -1.7220638   -4.1693994   -4.5307416 
H     1.9112881   -4.8179038    1.6324285 
H    -2.7866390   -0.2060399    6.2071421 
H     1.1384773    0.7757487   -6.4949819 
H     1.4944733   -4.1331539   -1.6305917 
H     2.5677961   -2.0030522    4.8563200 
H    -3.6159428    2.9848189    3.4001670 
H     0.2909861    3.1151351   -6.7521509 
H     0.1509825   -5.3428211   -3.3638391 
H     3.1659233   -4.1396440    3.6914074 
H    -3.8197259    2.0125861    5.6964898 
