88
Energy =
C     1.9688351   -1.5396899   -1.1684765 
C     2.2951857   -1.3013804    0.1998936 
C     1.6146711   -1.9369801    1.2585421 
H     3.0197958   -0.5097821    0.4283235 
Pd    0.2021496   -0.6761885   -0.1115491 
P    -1.1842505    0.1883014    1.6041200 
P    -0.9398009   -0.0653805   -2.0706898 
H     1.5748250   -2.5314860   -1.4358492 
H     1.0155042   -2.8274971    1.0149429 
C     4.1230911    0.5152385   -4.2788513 
C     3.6930074    1.2214799   -3.1433847 
C     2.9777965    0.5636787   -2.1375227 
C     2.6746827   -0.8132448   -2.2472419 
C     3.0987154   -1.5061242   -3.4000955 
C     3.8217302   -0.8487023   -4.4032069 
H     4.6848864    1.0289159   -5.0657807 
H     3.9135450    2.2895643   -3.0446843 
H     2.6305278    1.1252101   -1.2622654 
H     2.8657593   -2.5706794   -3.5047803 
H     4.1458363   -1.4044443   -5.2889126 
C     2.5192585   -1.5677030    5.4463719 
C     1.4979386   -2.4244972    5.0052071 
C     1.2189897   -2.5378757    3.6390313 
C     1.9354823   -1.7775179    2.6840696 
C     2.9642058   -0.9204884    3.1451311 
C     3.2577588   -0.8265682    4.5088077 
H     2.7468801   -1.4862155    6.5142029 
H     0.9216604   -3.0132472    5.7259294 
H     0.4285186   -3.2153748    3.3032003 
H     3.5463587   -0.3246605    2.4361311 
H     4.0640026   -0.1661872    4.8439315 
O    -3.5524495   -0.7759025   -0.1286513 
C    -2.7909802    1.0842574    1.2370865 
C    -2.6605998   -0.7544425   -2.3573927 
C    -3.9256748    0.1034754    0.9278684 
C    -3.7555357   -0.2445315   -1.4325860 
C    -1.7382943   -1.1128166    2.7745899 
C    -0.2769157    1.4564890    2.5769589 
C    -1.1289117    1.7552508   -2.2060929 
C    -0.1874057   -0.5683506   -3.6751170 
C    -2.0465718   -0.8495532    4.1245397 
C    -0.3104971    2.8045275    2.1503385 
C    -2.0257847    2.3553187   -3.1165103 
C    -0.2206567   -1.9326946   -4.0360177 
C    -1.9407094   -2.4089930    2.2567112 
C     0.5077432    1.1156598    3.6985118 
C    -0.3176010    2.5758672   -1.3973830 
C     0.3865156    0.3662628   -4.5572033 
C    -2.5116334   -1.8817494    4.9515359 
C     0.4243701    3.7837385    2.8300217 
C    -2.1161987    3.7512339   -3.1986650 
C     0.2730381   -2.3461256   -5.2799265 
C    -2.4220446   -3.4335975    3.0827267 
C     1.2359387    2.1032492    4.3776330 
C    -0.4031971    3.9726970   -1.4886095 
C     0.8899031   -0.0565916   -5.7959294 
C    -2.6962956   -3.1735911    4.4344972 
C     1.2015023    3.4360337    3.9461813 
C    -1.3063271    4.5612181   -2.3858340 
C     0.8227370   -1.4068545   -6.1657730 
H    -3.0385437    1.7016630    2.1191216 
H    -2.6119633    1.7636098    0.3840010 
H    -2.9176806   -0.5388265   -3.4092577 
H    -2.5823629   -1.8512721   -2.2622091 
H    -4.8544655    0.6568486    0.6815879 
H    -4.1374919   -0.5331626    1.8025939 
H    -4.7417170   -0.5743404   -1.8208980 
H    -3.7614946    0.8642902   -1.4203493 
H    -1.9166309    0.1570358    4.5353198 
H    -0.9159783    3.1006207    1.2885129 
H    -2.6478569    1.7381395   -3.7733598 
H    -0.6374951   -2.6789611   -3.3495873 
H    -1.7280875   -2.6053685    1.1996633 
H     0.5394645    0.0842194    4.0572917 
H     0.3802080    2.1099406   -0.6910103 
H     0.4424238    1.4232375   -4.2810748 
H    -2.7352479   -1.6742049    6.0031317 
H     0.3817883    4.8243453    2.4910977 
H    -2.8174338    4.2089464   -3.9039844 
H     0.2294593   -3.4047626   -5.5564203 
H    -2.5796163   -4.4362438    2.6720807 
H     1.8325085    1.8193366    5.2504481 
H     0.2353507    4.5986023   -0.8564078 
H     1.3390108    0.6774127   -6.4725115 
H    -3.0621648   -3.9758083    5.0837241 
H     1.7709337    4.2033886    4.4805571 
H    -1.3785284    5.6514641   -2.4561760 
H     1.2086011   -1.7301088   -7.1379393 
