88
Energy =
C    -0.0864041    0.9891561    2.6664986 
C    -1.4036312    0.5331274    2.3444795 
C    -1.6467884   -0.8297628    2.0632864 
H    -2.1983553    1.2701433    2.1743128 
Pd   -0.0890366    0.1065530    0.6387463 
P     1.9954564    0.9962930    0.0374266 
P    -0.8632582   -0.8348335   -1.3699110 
H     0.5771461    0.2916470    3.1980184 
H    -0.8904648   -1.5490922    2.4143150 
C     0.9162521    5.1488116    3.1565992 
C    -0.0904304    4.7756643    2.2487442 
C    -0.4226390    3.4271543    2.0821816 
C     0.2441457    2.4207882    2.8227512 
C     1.2606187    2.8099520    3.7212212 
C     1.5893960    4.1612273    3.8897926 
H     1.1736605    6.2048878    3.2877873 
H    -0.6150947    5.5406666    1.6666608 
H    -1.1885733    3.1458415    1.3498354 
H     1.8001910    2.0425571    4.2866851 
H     2.3795404    4.4415380    4.5939406 
C    -5.3959527   -2.6844438    1.0840442 
C    -4.2316094   -3.4532970    1.2279204 
C    -3.0183044   -2.8312039    1.5399793 
C    -2.9393105   -1.4282100    1.7050362 
C    -4.1211703   -0.6668400    1.5486419 
C    -5.3345054   -1.2906177    1.2474531 
H    -6.3496017   -3.1680099    0.8486830 
H    -4.2703978   -4.5407453    1.1073291 
H    -2.1166201   -3.4388994    1.6669353 
H    -4.0977294    0.4194089    1.6727385 
H    -6.2395986   -0.6856253    1.1366243 
O    -0.0853834    2.1421115   -2.0218278 
C    -0.1866912   -0.1213878   -2.9634739 
C     1.8780441    2.6874849   -0.7177258 
C    -0.5007747    1.3688069   -3.1481671 
C     1.2369237    2.6703667   -2.1041934 
C    -0.6376745   -2.6447568   -1.5807115 
C    -2.6656436   -0.4955155   -1.5281711 
C     3.1464131    1.1750415    1.4613967 
C     2.9970388    0.0033988   -1.1471578 
C    -0.1794622   -3.3940115   -0.4775890 
C    -3.0932940    0.8266764   -1.2652741 
C     3.3407501    0.0337783    2.2694496 
C     4.0419294    0.5707985   -1.9065212 
C    -0.8877865   -3.3085305   -2.8007423 
C    -3.6116019   -1.4645385   -1.9107600 
C     3.8256325    2.3657285    1.7779889 
C     2.7407382   -1.3770570   -1.2552482 
C     0.0219391   -4.7765746   -0.5854657 
C    -4.4375685    1.1810329   -1.4388520 
C     4.2058963    0.0812985    3.3684583 
C     4.7924142   -0.2300369   -2.7781410 
C    -0.6882614   -4.6919677   -2.9071276 
C    -4.9581484   -1.1051465   -2.0679638 
C     4.6927463    2.4094997    2.8809743 
C     3.4967037   -2.1780369   -2.1222413 
C    -0.2339698   -5.4276426   -1.8015361 
C    -5.3710679    0.2166982   -1.8482772 
C     4.8848990    1.2724388    3.6764297 
C     4.5195133   -1.6031138   -2.8903881 
H     0.9028660   -0.3012989   -2.9469393 
H    -0.6123262   -0.6892079   -3.8097446 
H     1.2833326    3.2984015   -0.0152070 
H     2.8819338    3.1418161   -0.7895990 
H    -1.5872358    1.5238502   -3.2564930 
H    -0.0215078    1.7356663   -4.0772219 
H     1.8561517    2.0654546   -2.7958079 
H     1.2018988    3.7049448   -2.5029851 
H     0.0303947   -2.8787418    0.4669990 
H    -2.3646515    1.5775717   -0.9347730 
H     2.8109822   -0.8970765    2.0310148 
H     4.2825301    1.6356225   -1.8177195 
H    -1.2447151   -2.7528751   -3.6742144 
H    -3.3060842   -2.5020662   -2.0745249 
H     3.6752783    3.2738435    1.1879584 
H     1.9378043   -1.8249029   -0.6616234 
H     0.3820185   -5.3447184    0.2785139 
H    -4.7566706    2.2111904   -1.2487416 
H     4.3525520   -0.8109928    3.9858193 
H     5.5976461    0.2191441   -3.3686850 
H    -0.8867568   -5.1966188   -3.8582719 
H    -5.6880644   -1.8673302   -2.3595262 
H     5.2114560    3.3432345    3.1214054 
H     3.2792102   -3.2484772   -2.1980440 
H    -0.0761621   -6.5074955   -1.8898096 
H    -6.4225039    0.4919217   -1.9806813 
H     5.5607316    1.3116626    4.5368303 
H     5.1087071   -2.2232024   -3.5738268 
