88
Energy =
C    -2.5406860    0.8653775    1.0703481 
C    -1.5745976    1.4215118    1.9747452 
C    -0.7881633    2.5190404    1.5650927 
H    -1.3766635    0.9194553    2.9301011 
Pd   -0.5254239    0.6701864    0.2049630 
P     1.8171245    0.8194331   -0.0540126 
P    -1.1545329   -0.6008100   -1.6385369 
H    -3.0362720    1.5636058    0.3792024 
H    -1.1359398    3.0677835    0.6763920 
C    -4.8339868   -2.6356124    2.0804823 
C    -3.4607280   -2.5912330    2.3741290 
C    -2.7078446   -1.4606872    2.0406151 
C    -3.3124975   -0.3509190    1.4049824 
C    -4.6883222   -0.4162936    1.1012620 
C    -5.4429341   -1.5458503    1.4419007 
H    -5.4237722   -3.5199482    2.3429502 
H    -2.9764413   -3.4438943    2.8617500 
H    -1.6309712   -1.4402277    2.2484466 
H    -5.1693106    0.4291909    0.5986776 
H    -6.5104120   -1.5764398    1.2010785 
C     2.1680696    4.7080290    3.7771443 
C     1.7586924    5.1355491    2.5052894 
C     0.7968409    4.4035377    1.8001706 
C     0.2311616    3.2260192    2.3463978 
C     0.6540124    2.8103793    3.6303447 
C     1.6089617    3.5464095    4.3362034 
H     2.9152126    5.2807816    4.3360208 
H     2.1795997    6.0472507    2.0689675 
H     0.4569902    4.7512195    0.8174423 
H     0.2312021    1.9090505    4.0826939 
H     1.9228650    3.2121824    5.3298291 
O    -0.0346311    2.4540889   -1.9343499 
C    -0.8313896    0.4434377   -3.1705377 
C     2.1911306    2.3882368   -0.9936568 
C    -0.8993087    1.9706962   -2.9610357 
C     1.3532219    2.5451315   -2.2678201 
C    -0.2381537   -2.1598736   -1.9233585 
C    -2.9118499   -1.1031901   -1.8208126 
C     2.6320694    0.9987577    1.5779351 
C     2.8518528   -0.4797913   -0.8634534 
C    -0.2247681   -2.7895268   -3.1852057 
C    -3.8801366   -0.1905687   -2.2896084 
C     3.6860948    1.8967563    1.8300422 
C     3.7888409   -1.2371153   -0.1292383 
C     0.4553630   -2.7436773   -0.8455462 
C    -3.3125017   -2.4026487   -1.4492285 
C     2.2165013    0.1148942    2.5979011 
C     2.6797459   -0.7684440   -2.2340887 
C     0.4964113   -3.9765831   -3.3661758 
C    -5.2182621   -0.5860536   -2.4233515 
C     4.3193321    1.9006384    3.0811931 
C     4.5292305   -2.2511232   -0.7547938 
C     1.1685030   -3.9356967   -1.0287606 
C    -4.6530531   -2.7887562   -1.5767046 
C     2.8677378    0.1059026    3.8379579 
C     3.4269671   -1.7729464   -2.8587361 
C     1.1949830   -4.5478599   -2.2900638 
C    -5.6061104   -1.8875991   -2.0729391 
C     3.9222192    0.9995088    4.0799467 
C     4.3532423   -2.5221370   -2.1183188 
H     0.1700083    0.1513154   -3.5303366 
H    -1.5488974    0.1517894   -3.9579679 
H     1.9592085    3.2086006   -0.2918539 
H     3.2644460    2.4382052   -1.2457030 
H    -1.9114388    2.2770172   -2.6501341 
H    -0.6798361    2.4745108   -3.9242586 
H     1.6342441    1.7770487   -3.0128655 
H     1.5601526    3.5337573   -2.7248893 
H    -0.7806679   -2.3596168   -4.0255389 
H    -3.5986328    0.8320667   -2.5623447 
H     4.0233845    2.5947613    1.0582745 
H     3.9496137   -1.0366800    0.9336469 
H     0.4447786   -2.2468568    0.1312732 
H    -2.5757154   -3.1167814   -1.0683997 
H     1.3817781   -0.5716661    2.4086217 
H     1.9431720   -0.2188077   -2.8243432 
H     0.5097934   -4.4604963   -4.3483119 
H    -5.9582583    0.1258605   -2.8037000 
H     5.1316075    2.6091767    3.2727477 
H     5.2527044   -2.8271898   -0.1684568 
H     1.7159840   -4.3771633   -0.1903245 
H    -4.9519079   -3.8004436   -1.2849074 
H     2.5467044   -0.5922127    4.6180077 
H     3.2718128   -1.9803124   -3.9220599 
H     1.7609799   -5.4735283   -2.4368316 
H    -6.6511615   -2.1958478   -2.1793208 
H     4.4291931    0.9997925    5.0503614 
H     4.9324349   -3.3148349   -2.6026494 
