88
Energy =
C    -2.3567887    0.3055056    1.4681784 
C    -1.3455208    0.8238983    2.3249631 
C    -0.7284838    2.0698046    2.0546405 
H    -0.9492320    0.2032544    3.1375499 
Pd   -0.4379691    0.6091798    0.3366361 
P     1.7731617    1.0208743   -0.3370593 
P    -1.0358645   -0.5674071   -1.6272100 
H    -2.9685728    1.0267244    0.9091030 
H    -1.2857411    2.7730018    1.4158311 
C    -4.1338030   -3.5997107    1.8609570 
C    -2.9457159   -3.3032088    2.5511071 
C    -2.3588007   -2.0389902    2.4339489 
C    -2.9548105   -1.0330171    1.6336710 
C    -4.1587468   -1.3421708    0.9601400 
C    -4.7365403   -2.6129704    1.0666776 
H    -4.5879550   -4.5920502    1.9480588 
H    -2.4709118   -4.0649974    3.1783400 
H    -1.4177207   -1.8403788    2.9570910 
H    -4.6394988   -0.5773142    0.3419496 
H    -5.6641599   -2.8305725    0.5274779 
C     2.1009351    3.9611056    4.6689574 
C     2.0666294    2.5583081    4.5855384 
C     1.1802319    1.9261733    3.7109634 
C     0.3006901    2.6859801    2.9041021 
C     0.3731944    4.0965298    2.9703002 
C     1.2570672    4.7285023    3.8532437 
H     2.7938588    4.4522055    5.3597600 
H     2.7441184    1.9569965    5.1995801 
H     1.1783032    0.8332623    3.6404253 
H    -0.2960270    4.6982919    2.3443963 
H     1.2841350    5.8217545    3.9076008 
O    -0.5102998    2.4182988   -2.1850854 
C    -0.2817924    0.1529351   -3.1727914 
C     1.9390102    2.1853680   -1.7974344 
C    -0.6278539    1.6384124   -3.3776036 
C     0.7222538    3.1054170   -1.9968140 
C    -0.6409944   -2.3517140   -1.7326681 
C    -2.8369916   -0.4357699   -1.9779826 
C     2.9940004    1.6987650    0.8587552 
C     2.5362000   -0.5673359   -0.8598932 
C    -1.1154275   -3.1778742   -0.6906169 
C    -3.4517490    0.8260923   -1.8170816 
C     3.0522732    3.0907930    1.0852199 
C     2.1450531   -1.7367537   -0.1726881 
C     0.1332141   -2.9190529   -2.7643923 
C    -3.6096338   -1.5362269   -2.3958122 
C     3.8705209    0.8484887    1.5634917 
C     3.5250828   -0.6545939   -1.8614687 
C    -0.8279355   -4.5474224   -0.6868248 
C    -4.8199955    0.9811205   -2.0756627 
C     3.9993977    3.6228042    1.9676666 
C     2.7327649   -2.9707025   -0.4790411 
C     0.4238573   -4.2910444   -2.7510993 
C    -4.9815940   -1.3759911   -2.6426808 
C     4.8113719    1.3877205    2.4518028 
C     4.0945164   -1.8956602   -2.1804819 
C    -0.0552173   -5.1077536   -1.7169301 
C    -5.5886911   -0.1219436   -2.4828881 
C     4.8839621    2.7737144    2.6495711 
C     3.7022660   -3.0523117   -1.4887713 
H     0.8063861   -0.0169854   -3.0974553 
H    -0.6552278   -0.4241469   -4.0378048 
H     2.8487089    2.7951834   -1.6597744 
H     2.0995411    1.5757505   -2.7019514 
H    -1.6795624    1.7275648   -3.6979252 
H     0.0030768    2.0621286   -4.1846078 
H     0.9202935    3.7733166   -2.8611438 
H     0.5623238    3.7402135   -1.1092171 
H    -1.7147106   -2.7484196    0.1170245 
H    -2.8543559    1.6844289   -1.4865248 
H     2.3617536    3.7695258    0.5737057 
H     1.3647836   -1.6771224    0.5956477 
H     0.5305876   -2.3053560   -3.5769775 
H    -3.1462990   -2.5203097   -2.5159993 
H     3.8375516   -0.2336826    1.4019336 
H     3.8687447    0.2422890   -2.3876072 
H    -1.2109321   -5.1748646    0.1247171 
H    -5.2888848    1.9628840   -1.9524273 
H     4.0381230    4.7041850    2.1302399 
H     2.4129136   -3.8706133    0.0548801 
H     1.0310007   -4.7205440   -3.5545445 
H    -5.5775183   -2.2384842   -2.9587410 
H     5.4980242    0.7194651    2.9818447 
H     4.8570700   -1.9561562   -2.9639506 
H     0.1723520   -6.1788167   -1.7137082 
H    -6.6599825   -0.0023626   -2.6745531 
H     5.6248647    3.1928887    3.3378988 
H     4.1523429   -4.0183041   -1.7396929 
