88
Energy =
C    -0.0510970    0.5316336    2.7487141 
C    -1.3845752    0.7647453    2.3439273 
C    -2.1912702   -0.2493521    1.7523105 
H    -1.7692382    1.7923692    2.3517898 
Pd   -0.3818118    0.1018158    0.5005340 
P    -1.1864733   -0.9082286   -1.4637762 
P     1.7538161    0.5873730   -0.3611787 
H     0.2563508   -0.5140039    2.9029417 
H    -1.9945073   -1.2935648    2.0375324 
C     2.5151355    3.4116301    4.6550053 
C     3.0123847    2.1589480    4.2645255 
C     2.1689431    1.2336462    3.6430769 
C     0.8139700    1.5415074    3.3808790 
C     0.3295730    2.8101995    3.7789911 
C     1.1692228    3.7298188    4.4146852 
H     3.1720725    4.1348288    5.1487396 
H     4.0610911    1.9030589    4.4445990 
H     2.5663606    0.2577018    3.3459846 
H    -0.7197214    3.0751551    3.6164935 
H     0.7703831    4.6997646    4.7291584 
C    -6.2351378    0.5964392    0.5478432 
C    -5.2244978    1.5434621    0.3105239 
C    -3.9026681    1.2666252    0.6756918 
C    -3.5648415    0.0361894    1.2867626 
C    -4.5847904   -0.9149536    1.4964208 
C    -5.9090670   -0.6332402    1.1376516 
H    -7.2705466    0.8154572    0.2673759 
H    -5.4700463    2.5015944   -0.1598234 
H    -3.1165081    2.0053600    0.4781021 
H    -4.3370426   -1.8785941    1.9535193 
H    -6.6884506   -1.3813261    1.3145369 
O    -0.4680507    2.2596610   -1.7255431 
C     1.7168977    1.1391861   -2.1402299 
C    -1.3494942    0.2601856   -2.9148935 
C     0.8083044    2.3653017   -2.3582102 
C    -1.5261559    1.7360192   -2.5192090 
C     2.6596502    1.9746781    0.4257776 
C     2.9306386   -0.8189763   -0.3372594 
C    -0.0493829   -2.2339231   -2.0400569 
C    -2.8172915   -1.7624559   -1.4066231 
C     1.9266323    3.1237522    0.7894102 
C     3.0372410   -1.5505071    0.8655956 
C     0.1178757   -2.5584273   -3.4023924 
C    -2.8922604   -3.0608706   -0.8603832 
C     4.0559938    1.9461609    0.6133942 
C     3.7146263   -1.2018680   -1.4427859 
C     0.6402672   -2.9829698   -1.0640055 
C    -3.9949788   -1.1434130   -1.8709595 
C     2.5904357    4.2411854    1.3103667 
C     3.9222732   -2.6296457    0.9680718 
C     0.9777367   -3.6007496   -3.7760050 
C    -4.1175846   -3.7385887   -0.8144546 
C     4.7115131    3.0654499    1.1444726 
C     4.5901649   -2.2934754   -1.3420648 
C     1.4816766   -4.0377851   -1.4401244 
C    -5.2169266   -1.8286345   -1.8266316 
C     3.9819594    4.2130439    1.4888706 
C     4.7007631   -3.0044957   -0.1391176 
C     1.6580600   -4.3418926   -2.7973623 
C    -5.2809700   -3.1285690   -1.3070089 
H     2.7459423    1.4047066   -2.4419756 
H     1.4035695    0.2665231   -2.7390778 
H    -0.4450075    0.1451269   -3.5333184 
H    -2.1984196   -0.0661068   -3.5401067 
H     0.6910525    2.5514793   -3.4452213 
H     1.2904199    3.2544525   -1.9180277 
H    -2.4369578    1.8690646   -1.9125178 
H    -1.6411788    2.3376275   -3.4452359 
H     0.8368908    3.1343238    0.6682890 
H     2.4113971   -1.2749976    1.7213137 
H    -0.4287976   -2.0135994   -4.1789183 
H    -1.9877105   -3.5578469   -0.4940393 
H     4.6295720    1.0524436    0.3461549 
H     3.6491474   -0.6626880   -2.3916379 
H     0.5251538   -2.7259909   -0.0046826 
H    -3.9793401   -0.1220647   -2.2623955 
H     2.0171867    5.1289342    1.5946422 
H     3.9997048   -3.1839490    1.9091466 
H     1.1066258   -3.8420847   -4.8362242 
H    -4.1592916   -4.7525954   -0.4033937 
H     5.7965581    3.0397269    1.2896598 
H     5.1895516   -2.5862049   -2.2101447 
H     2.0146278   -4.6060114   -0.6720864 
H    -6.1227588   -1.3353460   -2.1924692 
H     4.4971611    5.0845271    1.9056749 
H     5.3888588   -3.8528315   -0.0643382 
H     2.3255011   -5.1572951   -3.0945094 
H    -6.2360854   -3.6627602   -1.2787366 
