88
Energy =
C    -2.4041991    0.3434030    1.3752110 
C    -1.4226933    0.8726112    2.2600359 
C    -0.7894208    2.1103317    1.9910034 
H    -1.0602341    0.2647934    3.0977384 
Pd   -0.4455310    0.6140520    0.3098817 
P     1.7919607    1.0022744   -0.2895428 
P    -0.9815123   -0.5889294   -1.6546463 
H    -2.9926799    1.0573031    0.7827289 
H    -1.3174989    2.8042716    1.3182201 
C    -4.2121804   -3.5473412    1.7715203 
C    -3.0466504   -3.2444744    2.4965081 
C    -2.4502621   -1.9847219    2.3788052 
C    -3.0142963   -0.9895419    1.5426749 
C    -4.1962736   -1.3047079    0.8339427 
C    -4.7832667   -2.5712130    0.9414868 
H    -4.6736937   -4.5362108    1.8594041 
H    -2.5967293   -3.9979020    3.1515667 
H    -1.5261752   -1.7815549    2.9297712 
H    -4.6522201   -0.5481439    0.1873569 
H    -5.6932562   -2.7937488    0.3749647 
C     1.9508493    4.0356707    4.6740966 
C     1.1452483    4.7918414    3.8106086 
C     0.2917131    4.1477959    2.9067927 
C     0.2113952    2.7366651    2.8662849 
C     1.0537629    1.9876625    3.7215188 
C     1.9098095    2.6317068    4.6173492 
H     2.6195727    4.5361861    5.3817873 
H     1.1781890    5.8857729    3.8440085 
H    -0.3483262    4.7410603    2.2433760 
H     1.0466976    0.8935804    3.6728895 
H     2.5584631    2.0386242    5.2693451 
O    -0.4151935    2.3851381   -2.2374929 
C    -0.1670481    0.1035653   -3.1823150 
C     2.0172942    2.1444827   -1.7593695 
C    -0.4951417    1.5879104   -3.4216945 
C     0.8140007    3.0682409   -2.0155203 
C    -0.5959451   -2.3772754   -1.7199319 
C    -2.7681453   -0.4511551   -2.0713245 
C     2.9711910    1.6902606    0.9418817 
C     2.5655152   -0.5966668   -0.7614229 
C    -1.1159011   -3.1854234   -0.6854914 
C    -3.5334581   -1.5529785   -2.4989639 
C     3.8064820    0.8430243    1.6985567 
C     3.5937795   -0.7015867   -1.7207874 
C     0.2133665   -2.9643974   -2.7129660 
C    -3.3793757    0.8169864   -1.9514595 
C     3.0375008    3.0854660    1.1452240 
C     2.1400666   -1.7552464   -0.0763662 
C    -0.8382858   -4.5566040   -0.6513811 
C    -4.8949223   -1.3878878   -2.7956592 
C     4.7155122    1.3874644    2.6162604 
C     4.1683170   -1.9495349   -2.0012690 
C     0.4932718   -4.3379646   -2.6694703 
C    -4.7367354    0.9767000   -2.2598050 
C     3.9531737    3.6225507    2.0573853 
C     2.7323494   -2.9961110   -0.3436266 
C    -0.0306921   -5.1366741   -1.6430640 
C    -5.4985127   -0.1276648   -2.6763631 
C     4.7970868    2.7759674    2.7918117 
C     3.7413784   -3.0954737   -1.3121567 
H     0.9165355   -0.0719541   -3.0649213 
H    -0.5126402   -0.4841819   -4.0517336 
H     2.9254190    2.7509898   -1.5986792 
H     2.2060026    1.5203277   -2.6484934 
H    -1.5339491    1.6789708   -3.7811544 
H     0.1674504    1.9951385   -4.2115944 
H     1.0467366    3.7220740   -2.8819040 
H     0.6262773    3.7170275   -1.1435783 
H    -1.7430233   -2.7408462    0.0922776 
H    -3.0731246   -2.5417539   -2.5880228 
H     3.7669195   -0.2415292    1.5552639 
H     3.9636310    0.1869201   -2.2433509 
H     0.6464615   -2.3649165   -3.5178692 
H    -2.7879634    1.6765629   -1.6134940 
H     2.3780928    3.7628089    0.5925244 
H     1.3298976   -1.6818875    0.6591163 
H    -1.2564513   -5.1698253    0.1536532 
H    -5.4855043   -2.2514293   -3.1188114 
H     5.3705219    0.7211191    3.1871848 
H     4.9617316   -2.0238899   -2.7522311 
H     1.1274652   -4.7828622   -3.4430941 
H    -5.2028076    1.9632133   -2.1678511 
H     3.9988189    4.7062669    2.2016231 
H     2.3857231   -3.8875144    0.1878423 
H     0.1891999   -6.2089950   -1.6159204 
H    -6.5616141   -0.0042269   -2.9071585 
H     5.5132620    3.1990927    3.5035058 
H     4.1954412   -4.0669290   -1.5330376 
