88
Energy =
C    -2.3989567    0.2538394    1.3992476 
C    -1.4185123    0.7369407    2.3116970 
C    -0.7904645    1.9897198    2.1092388 
H    -1.0533974    0.0857018    3.1148511 
Pd   -0.4439212    0.5875648    0.3490152 
P    -0.9850495   -0.4933007   -1.6835696 
P     1.7926488    1.0141361   -0.2280326 
H    -2.9916403    0.9976345    0.8492713 
H    -1.3211175    2.7154310    1.4729833 
C    -4.1904655   -3.6604696    1.5765899 
C    -4.7678266   -2.6407104    0.8054307 
C    -4.1860708   -1.3677435    0.7690365 
C    -3.0032832   -1.0889709    1.4915789 
C    -2.4325329   -2.1282671    2.2672336 
C    -3.0236267   -3.3951451    2.3140740 
H    -4.6480644   -4.6545171    1.6092137 
H    -5.6786364   -2.8341157    0.2296236 
H    -4.6470059   -0.5770969    0.1683213 
H    -1.5073758   -1.9532438    2.8260422 
H    -2.5684413   -4.1832733    2.9230488 
C     1.9458491    3.7899938    4.8813476 
C     1.1433215    4.5847245    4.0502578 
C     0.2910081    3.9823497    3.1170936 
C     0.2090641    2.5744493    3.0139585 
C     1.0485725    1.7871952    3.8370710 
C     1.9030652    2.3899492    4.7625999 
H     2.6136134    4.2577889    5.6119667 
H     1.1776257    5.6760564    4.1319831 
H    -0.3469762    4.6050800    2.4791623 
H     1.0402815    0.6963742    3.7405183 
H     2.5489572    1.7677937    5.3897826 
O    -0.4207131    2.5120604   -2.0790729 
C     2.0130813    2.2468838   -1.6233869 
C    -0.1737923    0.2942541   -3.1662034 
C     0.8076433    3.1827334   -1.8174816 
C    -0.5020000    1.7908328   -3.3110452 
C     2.5695090   -0.5491971   -0.8026931 
C     2.9717572    1.6243512    1.0438908 
C    -0.6006586   -2.2741198   -1.8620318 
C    -2.7729193   -0.3306276   -2.0857710 
C     3.6027659   -0.5874981   -1.7617801 
C     3.0502831    3.0053050    1.3247694 
C    -1.1095463   -3.1434776   -0.8726837 
C    -3.3840615    0.9277373   -1.8879053 
C     2.1408612   -1.7522008   -0.2016611 
C     3.7952420    0.7282989    1.7560934 
C     0.1955211   -2.8000115   -2.8989376 
C    -3.5397715   -1.4054216   -2.5750636 
C     4.1785395   -1.8130871   -2.1255662 
C     3.9669661    3.4820099    2.2690048 
C    -0.8347108   -4.5146115   -0.9264131 
C    -4.7427756    1.1047463   -2.1803998 
C     2.7339599   -2.9719221   -0.5521169 
C     4.7054041    1.2120757    2.7060141 
C     0.4733462   -4.1740087   -2.9431772 
C    -4.9024984   -1.2236897   -2.8557882 
C     3.7475015   -3.0041439   -1.5204207 
C     4.7997367    2.5879373    2.9583863 
C    -0.0403850   -5.0336343   -1.9617173 
C    -5.5060629    0.0267090   -2.6586138 
H     2.9210613    2.8433760   -1.4280338 
H     2.1997314    1.6797076   -2.5502392 
H     0.9099862    0.1112392   -3.0619434 
H    -0.5211283   -0.2370103   -4.0705277 
H     1.0365085    3.8907021   -2.6413359 
H     0.6209753    3.7743131   -0.9055770 
H    -1.5411565    1.9042938   -3.6630972 
H     0.1597430    2.2470271   -4.0744697 
H     3.9752528    0.3351603   -2.2193338 
H     2.4000136    3.7188897    0.8081208 
H    -1.7257246   -2.7464028   -0.0611055 
H    -2.7916299    1.7660675   -1.5016783 
H     1.3274233   -1.7297165    0.5335730 
H     3.7459339   -0.3461788    1.5525194 
H     0.6194545   -2.1526691   -3.6709649 
H    -3.0795691   -2.3869270   -2.7246193 
H     4.9757887   -1.8354102   -2.8758051 
H     4.0222710    4.5556011    2.4731517 
H    -1.2445035   -5.1756163   -0.1556381 
H    -5.2086493    2.0839208   -2.0284178 
H     2.3843837   -3.8979587   -0.0858188 
H     5.3515088    0.5087485    3.2416346 
H     1.0974779   -4.5714061   -3.7501138 
H    -5.4940973   -2.0666887   -3.2276601 
H     4.2021464   -3.9581399   -1.8065795 
H     5.5171124    2.9639832    3.6948629 
H     0.1771884   -6.1059723   -2.0034645 
H    -6.5703677    0.1629139   -2.8763046 
