88
Energy =
C     0.5013480   -0.9572598    2.5419835 
C    -0.8864034   -1.0980933    2.2420191 
C    -1.3675107   -2.0678379    1.3383828 
H    -1.5801614   -0.3472335    2.6404765 
Pd    0.1584956   -0.5936863    0.3657538 
P    -0.9237407   -0.3868936   -1.7305074 
P     2.2282992    0.4524905   -0.0057629 
H     1.1300601   -1.8590154    2.4960283 
H    -0.6939359   -2.8990383    1.0798567 
C     1.8039018    2.0917580    5.2887908 
C     2.3509941    0.8017900    5.3456148 
C     1.9423685   -0.1790502    4.4333131 
C     0.9685011    0.1095530    3.4548751 
C     0.4306590    1.4164019    3.4026538 
C     0.8449248    2.3976337    4.3090443 
H     2.1273348    2.8587772    6.0000016 
H     3.1050805    0.5576989    6.1007253 
H     2.3752023   -1.1834054    4.4824348 
H    -0.3051522    1.6670996    2.6295847 
H     0.4221153    3.4060843    4.2503253 
C    -5.4929669   -2.8496916    0.4094878 
C    -4.4699323   -3.6298955   -0.1532405 
C    -3.1327444   -3.3659450    0.1619576 
C    -2.7849499   -2.2996259    1.0253707 
C    -3.8285213   -1.5235692    1.5856274 
C    -5.1655771   -1.8040116    1.2886508 
H    -6.5408285   -3.0620365    0.1736818 
H    -4.7136257   -4.4524334   -0.8330954 
H    -2.3427265   -3.9853320   -0.2726426 
H    -3.5993082   -0.6967227    2.2641342 
H    -5.9580553   -1.1990340    1.7407657 
O     1.8318880   -1.0095575   -2.9751961 
C     3.3811736   -0.2775050   -1.2925661 
C    -0.1038763    0.4421783   -3.2005213 
C     2.9422438   -0.1507317   -2.7437713 
C     0.8785905   -0.4996227   -3.9026606 
C     2.0250569    2.2105797   -0.4917297 
C     3.4094391    0.5036058    1.4068417 
C    -1.4024424   -2.0132143   -2.4344793 
C    -2.4561787    0.6133630   -1.5604941 
C     3.0754069    2.9629356   -1.0608272 
C     4.0462696   -0.6943100    1.7970023 
C    -0.5762682   -3.1178138   -2.1409405 
C    -3.7008431    0.0261740   -1.2516724 
C     0.7860660    2.8350294   -0.2456652 
C     3.7138038    1.7001464    2.0827062 
C    -2.4915649   -2.1763569   -3.3143811 
C    -2.3741303    2.0204302   -1.6778262 
C     2.8770847    4.3100303   -1.3917045 
C     5.0052688   -0.6837936    2.8179521 
C    -0.8486582   -4.3734728   -2.7003003 
C    -4.8357918    0.8302663   -1.0718112 
C     0.5934853    4.1860918   -0.5686088 
C     4.6661286    1.7009794    3.1120972 
C    -2.7701728   -3.4380006   -3.8586136 
C    -3.5103878    2.8168347   -1.4898897 
C     1.6374367    4.9230234   -1.1466772 
C     5.3225444    0.5161906    3.4725459 
C    -1.9532847   -4.5372199   -3.5505299 
C    -4.7459621    2.2240198   -1.1853787 
H     4.3643614    0.2035327   -1.1477037 
H     3.5028214   -1.3448605   -1.0392988 
H    -0.9029070    0.7599825   -3.8941305 
H     0.4107247    1.3486239   -2.8334415 
H     3.7847733   -0.4437661   -3.4043158 
H     2.6924727    0.9038256   -2.9780338 
H     1.3761112    0.0231051   -4.7445499 
H     0.3492847   -1.3732292   -4.3173373 
H     4.0550143    2.5061545   -1.2369101 
H     3.8009892   -1.6409577    1.3014537 
H     0.2870347   -2.9830852   -1.4794387 
H    -3.7939342   -1.0593638   -1.1681420 
H    -0.0291447    2.2510994    0.1985421 
H     3.2103432    2.6318477    1.8086770 
H    -3.1283505   -1.3231676   -3.5704493 
H    -1.4239649    2.5038166   -1.9240095 
H     3.6950324    4.8854942   -1.8371913 
H     5.5045123   -1.6157054    3.1031416 
H    -0.2002448   -5.2251503   -2.4700979 
H    -5.7942414    0.3544763   -0.8409475 
H    -0.3733294    4.6601089   -0.3692529 
H     4.8917800    2.6358753    3.6348089 
H    -3.6258980   -3.5611479   -4.5305432 
H    -3.4314231    3.9045372   -1.5911153 
H     1.4886730    5.9768189   -1.4038665 
H     6.0722685    0.5242084    4.2702830 
H    -2.1730829   -5.5199582   -3.9804393 
H    -5.6351463    2.8471289   -1.0448833 
