88
Energy =
C     0.2046406   -1.1127481    2.5166192 
C    -1.1582301   -1.1314505    2.0946874 
C    -1.6270620   -2.0177558    1.1031923 
H    -1.8278548   -0.3489429    2.4732280 
Pd    0.0814588   -0.6204005    0.3426685 
P    -0.7981983   -0.2272431   -1.8208804 
P     2.2473071    0.2772720    0.2045436 
H     0.7668085   -2.0575639    2.4749507 
H    -0.9943959   -2.8841910    0.8572677 
C     1.4886726    1.6958141    5.5170810 
C     0.6441592    2.1207243    4.4781666 
C     0.2368078    1.2171525    3.4914307 
C     0.6680989   -0.1292900    3.5205096 
C     1.5282293   -0.5383177    4.5606501 
C     1.9291594    0.3649058    5.5530083 
H     1.8065686    2.4021172    6.2909084 
H     0.3055872    3.1613221    4.4363961 
H    -0.4086667    1.5598871    2.6742914 
H     1.8779281   -1.5752320    4.5939855 
H     2.5941601    0.0277650    6.3545438 
C    -5.6996399   -2.4385683   -0.2117320 
C    -4.6887575   -3.2638194   -0.7304524 
C    -3.3691941   -3.1177975   -0.2893828 
C    -3.0243009   -2.1260016    0.6598148 
C    -4.0556212   -1.3032406    1.1741542 
C    -5.3778738   -1.4667927    0.7504397 
H    -6.7350583   -2.5591324   -0.5464982 
H    -4.9292017   -4.0297714   -1.4745322 
H    -2.5896541   -3.7718957   -0.6908638 
H    -3.8289916   -0.5319236    1.9159525 
H    -6.1624087   -0.8279287    1.1684912 
O     2.0025267   -0.9936027   -2.8685127 
C     3.4496278   -0.4722175   -1.0243371 
C     0.2021233    0.6112606   -3.1688693 
C     3.1475046   -0.2355750   -2.4966424 
C     1.1722595   -0.3651403   -3.8403919 
C     2.2186851    2.0690697   -0.1918821 
C     3.3023421    0.1588734    1.7098928 
C    -1.3293196   -1.7746348   -2.6533987 
C    -2.2634475    0.8775626   -1.7180772 
C     3.3678949    2.7646215   -0.6263794 
C     3.8054080   -1.1064887    2.0821658 
C    -0.6101461   -2.9513230   -2.3579938 
C    -2.0688034    2.2782984   -1.7431991 
C     1.0127458    2.7759460   -0.0140192 
C     3.6422575    1.2903389    2.4749564 
C    -2.3496158   -1.8111631   -3.6253787 
C    -3.5698308    0.3735393   -1.5489914 
C     3.2999977    4.1386575   -0.8927532 
C     4.6703823   -1.2279738    3.1772156 
C    -0.9220415   -4.1530507   -3.0078256 
C    -3.1557826    3.1496104   -1.6025887 
C     0.9500999    4.1529861   -0.2718140 
C     4.4995820    1.1594794    3.5770298 
C    -2.6693812   -3.0192126   -4.2609403 
C    -4.6541823    1.2529403   -1.4153591 
C     2.0926758    4.8342464   -0.7162307 
C     5.0252677   -0.0930887    3.9224088 
C    -1.9602786   -4.1904968   -3.9515680 
C    -4.4531780    2.6394763   -1.4373828 
H     4.4494124   -0.0777074   -0.7715659 
H     3.4706990   -1.5575472   -0.8250754 
H    -0.5094915    1.0233071   -3.9067065 
H     0.7461777    1.4565543   -2.7097672 
H     4.0205131   -0.5568537   -3.1022035 
H     2.9949579    0.8458205   -2.6878579 
H     1.7771177    0.1609655   -4.6066075 
H     0.6199440   -1.1733191   -4.3475674 
H     4.3223686    2.2415204   -0.7469339 
H     3.5288227   -2.0031601    1.5151559 
H     0.2020165   -2.9151868   -1.6230242 
H    -1.0678793    2.6985055   -1.8798736 
H     0.1205857    2.2358343    0.3253067 
H     3.2398148    2.2735721    2.2144042 
H    -2.9014900   -0.9010634   -3.8825186 
H    -3.7490610   -0.7042956   -1.5384768 
H     4.1943559    4.6701160   -1.2338533 
H     5.0668171   -2.2118237    3.4490928 
H    -0.3564702   -5.0612911   -2.7754403 
H    -2.9889956    4.2317052   -1.6315281 
H     0.0074526    4.6909284   -0.1262881 
H     4.7535597    2.0447870    4.1685589 
H    -3.4723554   -3.0439337   -5.0049514 
H    -5.6612981    0.8417024   -1.2931338 
H     2.0459199    5.9085345   -0.9223561 
H     5.7015877   -0.1881755    4.7780176 
H    -2.2116609   -5.1309510   -4.4528370 
H    -5.3032709    3.3215637   -1.3337431 
