88
Energy =
C    -2.5492509    0.8226867    1.0807463 
C    -1.5910772    1.3485664    2.0113918 
C    -0.8038347    2.4609124    1.6454906 
H    -1.3990580    0.8137550    2.9500274 
Pd   -0.5278910    0.6615398    0.2243149 
P    -1.1414064   -0.5447253   -1.6672055 
P     1.8171288    0.8228075   -0.0120115 
H    -3.0413766    1.5439378    0.4111020 
H    -1.1468105    3.0396243    0.7741216 
C    -4.8446831   -2.7139598    1.9525576 
C    -3.4728186   -2.6795950    2.2538933 
C    -2.7191923   -1.5372840    1.9650992 
C    -3.3216254   -0.4056315    1.3671976 
C    -4.6958881   -0.4607306    1.0546318 
C    -5.4513566   -1.6021717    1.3508426 
H    -5.4351208   -3.6074559    2.1802336 
H    -2.9901706   -3.5491626    2.7124183 
H    -1.6433584   -1.5235675    2.1787248 
H    -5.1749649    0.4019798    0.5803125 
H    -6.5177117   -1.6245130    1.1041823 
C     2.1331353    4.5779071    3.9513429 
C     1.7316884    5.0478502    2.6919947 
C     0.7759015    4.3388266    1.9558512 
C     0.2086871    3.1424309    2.4576964 
C     0.6234409    2.6840119    3.7296658 
C     1.5722000    3.3971311    4.4667163 
H     2.8755050    5.1323922    4.5344772 
H     2.1539495    5.9744966    2.2898147 
H     0.4420159    4.7193679    0.9832798 
H     0.1991392    1.7671760    4.1481519 
H     1.8798738    3.0297840    5.4505416 
O    -0.0230357    2.5191298   -1.8473372 
C     2.1961562    2.4235731   -0.8939246 
C    -0.8085327    0.5527325   -3.1593607 
C     1.3669409    2.6235374   -2.1677152 
C    -0.8797873    2.0715579   -2.8967011 
C     2.8597768   -0.4463183   -0.8582552 
C     2.6192167    0.9461066    1.6314277 
C    -0.2212871   -2.0920920   -1.9995943 
C    -2.8969387   -1.0416255   -1.8793682 
C     3.7945413   -1.2254718   -0.1443967 
C     3.6702770    1.8357194    1.9227366 
C    -0.1971231   -2.6766633   -3.2828099 
C    -3.8627957   -0.1136025   -2.3221710 
C     2.6965380   -0.6888273   -2.2388719 
C     2.1964391    0.0273055    2.6170017 
C     0.4642941   -2.7131186   -0.9376189 
C    -3.2990123   -2.3535380   -1.5562645 
C     4.5410535   -2.2161965   -0.7993191 
C     4.2933095    1.7973040    3.1784403 
C     0.5266926   -3.8560190   -3.4999017 
C    -5.1998323   -0.5046940   -2.4779663 
C     3.4501681   -1.6697475   -2.8926221 
C     2.8374820   -0.0235208    3.8613673 
C     1.1797831   -3.8976089   -1.1571188 
C    -4.6384987   -2.7355211   -1.7056108 
C     4.3738667   -2.4413810   -2.1722634 
C     3.8889229    0.8622236    4.1424817 
C     1.2169654   -4.4647075   -2.4390443 
C    -5.5890775   -1.8178109   -2.1755419 
H     1.9585423    3.2190538   -0.1658250 
H     3.2711966    2.4830669   -1.1363958 
H     0.1956952    0.2743849   -3.5222357 
H    -1.5202112    0.2882008   -3.9615109 
H     1.6544142    1.8820177   -2.9368417 
H     1.5755456    3.6276938   -2.5888111 
H    -1.8944690    2.3658780   -2.5825160 
H    -0.6539890    2.6092999   -3.8399067 
H     3.9489444   -1.0600294    0.9254372 
H     4.0131551    2.5600135    1.1780698 
H    -0.7466639   -2.2176870   -4.1119031 
H    -3.5803221    0.9180715   -2.5572900 
H     1.9620475   -0.1212287   -2.8144670 
H     1.3641431   -0.6531482    2.3974401 
H     0.4459010   -2.2509875    0.0559825 
H    -2.5641744   -3.0802173   -1.1959922 
H     5.2623163   -2.8102165   -0.2283736 
H     5.1032809    2.4994457    3.4007452 
H     0.5487235   -4.3046327   -4.4985019 
H    -5.9378863    0.2197390   -2.8379271 
H     3.3021448   -1.8412494   -3.9633220 
H     2.5107448   -0.7480413    4.6145022 
H     1.7206396   -4.3683558   -0.3303869 
H    -4.9384228   -3.7570583   -1.4516979 
H     4.9577857   -3.2160664   -2.6795208 
H     4.3879022    0.8297004    5.1164934 
H     1.7848010   -5.3843578   -2.6138567 
H    -6.6333575   -2.1224020   -2.2986694 
