88
Energy =
C    -2.3996105    0.2933433    1.3960446 
C    -1.4145810    0.7941266    2.2932252 
C    -0.7844706    2.0412386    2.0623954 
H    -1.0473215    0.1595648    3.1086845 
Pd   -0.4455905    0.6034454    0.3316967 
P     1.7888532    1.0157894   -0.2639282 
P    -0.9868923   -0.5375624   -1.6686935 
H    -2.9908971    1.0258746    0.8296206 
H    -1.3173116    2.7564237    1.4161135 
C    -4.2036389   -3.6096152    1.6718207 
C    -3.0361450   -3.3293902    2.4027460 
C    -2.4408216   -2.0661083    2.3238188 
C    -3.0078518   -1.0449822    1.5216803 
C    -4.1916446   -1.3381015    0.8065392 
C    -4.7776703   -2.6077655    0.8751591 
H    -4.6642465   -4.6011478    1.7291904 
H    -2.5838866   -4.1031388    3.0320029 
H    -1.5154119   -1.8801049    2.8785970 
H    -4.6499156   -0.5615227    0.1858279 
H    -5.6890697   -2.8126135    0.3042665 
C     1.9645788    3.8805612    4.7964155 
C     1.1521488    4.6638144    3.9640273 
C     0.2955639    4.0489938    3.0429141 
C     0.2191024    2.6399061    2.9538320 
C     1.0682096    1.8641928    3.7779871 
C     1.9273448    2.4793051    4.6910520 
H     2.6355418    4.3582111    5.5176646 
H     1.1822501    5.7560187    4.0351592 
H    -0.3497377    4.6629683    2.4038872 
H     1.0643001    0.7724726    3.6910091 
H     2.5813439    1.8659357    5.3184937 
O    -0.4286588    2.4541045   -2.1587568 
C    -0.1798829    0.2044997   -3.1768516 
C     2.0059824    2.2040452   -1.6981839 
C    -0.5114675    1.6950972   -3.3676132 
C     0.7998499    3.1328333   -1.9202309 
C    -0.5984007   -2.3221543   -1.7922410 
C    -2.7754215   -0.3899414   -2.0735266 
C     2.9725425    1.6679414    0.9825315 
C     2.5631648   -0.5660773   -0.7892623 
C    -1.1112922   -3.1633166   -0.7808317 
C    -3.3879064    0.8729453   -1.9117705 
C     3.0320481    3.0559237    1.2321963 
C     3.5877558   -0.6384482   -1.7555587 
C     0.2065182   -2.8762431   -2.8075562 
C    -3.5409775   -1.4791528   -2.5318738 
C     3.8185380    0.8009024    1.7039870 
C     2.1421535   -1.7467377   -0.1401460 
C    -0.8311093   -4.5343625   -0.7912200 
C    -4.7467330    1.0400971   -2.2095281 
C     3.9515401    3.5678237    2.1548789 
C     4.1631337   -1.8757702   -2.0782218 
C     0.4893768   -4.2499083   -2.8084621 
C    -4.9038806   -1.3069796   -2.8177968 
C     4.7314259    1.3199476    2.6325634 
C     2.7351738   -2.9774395   -0.4495691 
C    -0.0277787   -5.0814396   -1.8048939 
C    -5.5086996   -0.0519727   -2.6570400 
C     4.8063536    2.7022819    2.8537980 
C     3.7406549   -3.0439504   -1.4245893 
H     0.9044794    0.0274181   -3.0691321 
H    -0.5277965   -0.3560202   -4.0631311 
H     2.9135068    2.8070837   -1.5218139 
H     2.1923344    1.6087084   -2.6073036 
H    -1.5516833    1.7956324   -3.7204499 
H     0.1476119    2.1286446   -4.1463735 
H     1.0275994    3.8142892   -2.7664469 
H     0.6142750    3.7532670   -1.0274880 
H    -1.7346968   -2.7443973    0.0140054 
H    -2.7962929    1.7225452   -1.5497194 
H     2.3641881    3.7471952    0.7075750 
H     3.9542003    0.2670380   -2.2506997 
H     0.6338865   -2.2509488   -3.5957052 
H    -3.0797217   -2.4640673   -2.6530920 
H     3.7842690   -0.2784190    1.5245037 
H     1.3349756   -1.6982609    0.6006744 
H    -1.2438153   -5.1733438   -0.0035932 
H    -5.2137901    2.0226033   -2.0852424 
H     3.9915760    4.6463053    2.3354059 
H     4.9535348   -1.9246873   -2.8344275 
H     1.1204012   -4.6690801   -3.5988555 
H    -5.4945791   -2.1609603   -3.1652384 
H     5.3946940    0.6389052    3.1759513 
H     2.3916940   -3.8861263    0.0539277 
H     0.1939778   -6.1536997   -1.8126966 
H    -6.5729545    0.0769435   -2.8793779 
H     5.5260291    3.1057637    3.5733236 
H     4.1955714   -4.0070139   -1.6780605 
