88
Energy =
C    -2.4661152    1.5011422    0.8385853 
C    -1.5608482    1.3367190    1.9151738 
C    -0.3024540    2.0017258    1.9227838 
H    -1.7895834    0.5942837    2.6891574 
Pd   -0.4753389    0.6555621    0.1317116 
P     1.7889509    0.7369165   -0.5513643 
P    -1.1187002   -0.9261413   -1.4810746 
H    -2.3468185    2.4053989    0.2212673 
H    -0.2275796    2.9542665    1.3804040 
C    -6.4292683   -0.1429874    0.7670301 
C    -5.4001187   -0.8468771    1.4161698 
C    -4.0958834   -0.3478298    1.4150168 
C    -3.7938395    0.8744973    0.7697053 
C    -4.8309506    1.5518934    0.0879035 
C    -6.1393637    1.0537953    0.0961879 
H    -7.4512593   -0.5353935    0.7750755 
H    -5.6172728   -1.7958222    1.9161367 
H    -3.2992754   -0.9166098    1.9060004 
H    -4.6096263    2.4954739   -0.4242556 
H    -6.9347018    1.6031017   -0.4181455 
C     2.7664395    1.4039593    4.8872205 
C     1.7028991    0.4899018    4.7926582 
C     0.6986768    0.6726446    3.8363233 
C     0.7256697    1.7844951    2.9584127 
C     1.7931000    2.7037064    3.0784241 
C     2.8050223    2.5110093    4.0265910 
H     3.5553184    1.2554376    5.6316735 
H     1.6607053   -0.3739594    5.4643798 
H    -0.1041017   -0.0681646    3.7619502 
H     1.8297839    3.5733167    2.4145402 
H     3.6258602    3.2323942    4.0935366 
O    -0.1011777    1.9219431   -2.6776518 
C    -1.0576992   -0.3053876   -3.2494195 
C     2.0017705    0.6338084   -2.4007142 
C    -1.1322874    1.2265127   -3.3702712 
C     1.2309709    1.7285474   -3.1594832 
C     0.0333767   -2.3558785   -1.4009792 
C    -2.7757371   -1.7170089   -1.3888195 
C     2.5612647    2.3608720   -0.1623503 
C     2.9435576   -0.5262089    0.0983758 
C     0.3692282   -3.1389924   -2.5246571 
C    -3.8978822   -1.0562832   -1.9335317 
C     3.8567354    2.4729166    0.3779051 
C     3.7183438   -1.3703986   -0.7217096 
C     0.5491249   -2.7083575   -0.1351786 
C    -2.9477430   -2.9730700   -0.7717903 
C     1.8111072    3.5298313   -0.4213786 
C     3.0151622   -0.6697142    1.5011553 
C     1.2238491   -4.2415253   -2.3824931 
C    -5.1589013   -1.6625912   -1.8986602 
C     4.3910793    3.7391349    0.6608424 
C     4.5514641   -2.3393400   -0.1437345 
C     1.3844655   -3.8237915    0.0059728 
C    -4.2151762   -3.5707911   -0.7334742 
C     2.3550525    4.7913026   -0.1460930 
C     3.8537182   -1.6337187    2.0719446 
C     1.7291182   -4.5863299   -1.1191060 
C    -5.3201446   -2.9226073   -1.3029765 
C     3.6443099    4.8975436    0.4016590 
C     4.6232445   -2.4731142    1.2501791 
H    -0.1234906   -0.6717052   -3.7062763 
H    -1.8882537   -0.7647832   -3.8129519 
H     3.0785515    0.7311897   -2.6278800 
H     1.6847078   -0.3819482   -2.6947823 
H    -2.0729628    1.6076400   -2.9387070 
H    -1.1171705    1.4987293   -4.4463529 
H     1.2241809    1.4986933   -4.2439186 
H     1.7461064    2.6950925   -3.0289899 
H    -0.0431295   -2.9057174   -3.5119629 
H    -3.7960779   -0.0665052   -2.3906149 
H     4.4442934    1.5744942    0.5905396 
H     3.6740081   -1.2975107   -1.8114510 
H     0.3040113   -2.0931630    0.7390673 
H    -2.0887515   -3.4983274   -0.3422550 
H     0.7993755    3.4468555   -0.8367761 
H     2.4161577   -0.0222512    2.1477741 
H     1.4854218   -4.8407312   -3.2608233 
H    -6.0199750   -1.1425312   -2.3293103 
H     5.3958213    3.8175184    1.0889392 
H     5.1452034   -2.9937306   -0.7901774 
H     1.7852275   -4.0792623    0.9915363 
H    -4.3343984   -4.5536396   -0.2658284 
H     1.7691506    5.6929350   -0.3527712 
H     3.9032463   -1.7255400    3.1619327 
H     2.3940014   -5.4497219   -1.0133967 
H    -6.3074058   -3.3949666   -1.2788057 
H     4.0647307    5.8832170    0.6260107 
H     5.2778990   -3.2294898    1.6954907 
