88
Energy =
C    -2.5469277    0.8177217    1.0882944 
C    -1.5867124    1.3439261    2.0168086 
C    -0.8050090    2.4599818    1.6502110 
H    -1.3884189    0.8068089    2.9528344 
Pd   -0.5282394    0.6659209    0.2237895 
P     1.8173670    0.8232099   -0.0114517 
P    -1.1439723   -0.5382062   -1.6680223 
H    -3.0452381    1.5396433    0.4239990 
H    -1.1537801    3.0388888    0.7812295 
C    -4.8184490   -2.7381473    1.9449598 
C    -5.4340759   -1.6256512    1.3537737 
C    -4.6866972   -0.4773410    1.0636131 
C    -3.3116296   -0.4161756    1.3714497 
C    -2.7003219   -1.5482976    1.9593893 
C    -3.4458695   -2.6973475    2.2422627 
H    -5.4024884   -3.6370666    2.1677339 
H    -6.5011203   -1.6527232    1.1105956 
H    -5.1726610    0.3858209    0.5972421 
H    -1.6238969   -1.5294932    2.1696267 
H    -2.9563019   -3.5672294    2.6927925 
C     2.1378621    4.5828295    3.9428946 
C     1.7354336    5.0477869    2.6819723 
C     0.7774636    4.3370645    1.9503873 
C     0.2092554    3.1436824    2.4582999 
C     0.6248525    2.6903445    3.7317887 
C     1.5757512    3.4053135    4.4643509 
H     2.8817640    5.1388547    4.5226000 
H     2.1585904    5.9719825    2.2751141 
H     0.4429176    4.7135245    0.9764611 
H     0.1991684    1.7764147    4.1552141 
H     1.8841244    3.0419672    5.4494447 
O    -0.0152898    2.5212431   -1.8509844 
C    -0.8071153    0.5564013   -3.1617073 
C     2.2027096    2.4210551   -0.8956801 
C    -0.8724236    2.0758171   -2.9009074 
C     1.3751694    2.6211401   -2.1705053 
C    -0.2294932   -2.0891489   -1.9986790 
C    -2.9018071   -1.0270672   -1.8809358 
C     2.6181596    0.9465700    1.6326371 
C     2.8562267   -0.4512520   -0.8543593 
C     0.4520699   -2.7123674   -0.9353681 
C    -3.8648219   -0.0869191   -2.3042045 
C     2.1929366    0.0291170    2.6184611 
C     3.7879825   -1.2321714   -0.1384992 
C    -0.2051898   -2.6741824   -3.2816990 
C    -3.3088983   -2.3424542   -1.5795661 
C     3.6702528    1.8347579    1.9244738 
C     2.6926235   -0.6961221   -2.2345121 
C     1.1638579   -3.8993445   -1.1533810 
C    -5.2039644   -0.4690344   -2.4631084 
C     2.8326785   -0.0219483    3.8634744 
C     4.5312498   -2.2268920   -0.7910538 
C     0.5144497   -3.8564047   -3.4971595 
C    -4.6507814   -2.7155156   -1.7313160 
C     4.2919806    1.7961718    3.1808362 
C     3.4432375   -1.6808948   -2.8859650 
C     1.2009150   -4.4671337   -2.4350189 
C    -5.5984120   -1.7855391   -2.1824762 
C     3.8852459    0.8623197    4.1450607 
C     4.3638645   -2.4543141   -2.1636091 
H     0.1958114    0.2737333   -3.5248822 
H    -1.5206939    0.2938621   -3.9628107 
H     1.9669044    3.2186312   -0.1692791 
H     3.2781644    2.4766579   -1.1372197 
H    -1.8863251    2.3747519   -2.5886700 
H    -0.6431971    2.6114409   -3.8444996 
H     1.6611701    1.8773529   -2.9380099 
H     1.5870158    3.6239131   -2.5933023 
H     0.4335888   -2.2499755    0.0580870 
H    -3.5780532    0.9475917   -2.5210988 
H     1.3599000   -0.6502990    2.3984726 
H     3.9423716   -1.0652515    0.9311063 
H    -0.7513475   -2.2133215   -4.1119737 
H    -2.5764616   -3.0785806   -1.2339928 
H     4.0150451    2.5580301    1.1797003 
H     1.9600572   -0.1274409   -2.8114825 
H     1.7020994   -4.3714797   -0.3257340 
H    -5.9397634    0.2649846   -2.8079688 
H     2.5041306   -0.7455546    4.6167015 
H     5.2503648   -2.8220909   -0.2186257 
H     0.5361926   -4.3056132   -4.4954975 
H    -4.9547267   -3.7399039   -1.4941413 
H     5.1027750    2.4972483    3.4035018 
H     3.2948845   -1.8542371   -3.9563213 
H     1.7657709   -5.3888468   -2.6086145 
H    -6.6444237   -2.0831751   -2.3079051 
H     4.3831989    0.8296627    5.1195924 
H     4.9453930   -3.2319864   -2.6690393 
