88
Energy =
C    -2.4658353    0.8216233    0.9310492 
C    -1.4545021    1.1904207    1.8676342 
C    -0.5468495    2.2410203    1.6217771 
H    -1.3105583    0.5546245    2.7502424 
Pd   -0.4511658    0.5553149    0.0081079 
P     1.8988020    0.5553209   -0.2875320 
P    -1.2025615   -0.7998187   -1.7561922 
H    -2.8789845    1.6106996    0.2853371 
H    -0.8011688    2.9556585    0.8242291 
C    -5.1193843   -2.4513308    1.8176641 
C    -5.6144104   -1.2666771    1.2536317 
C    -4.7434678   -0.2145643    0.9439539 
C    -3.3618884   -0.3237845    1.2051643 
C    -2.8742102   -1.5263029    1.7670969 
C    -3.7433025   -2.5797286    2.0686437 
H    -5.8008167   -3.2747352    2.0551214 
H    -6.6843687   -1.1618078    1.0473283 
H    -5.1369084    0.7065006    0.5019494 
H    -1.7991197   -1.6397557    1.9499093 
H    -3.3472315   -3.5060640    2.4977985 
C     2.4538803    3.6953682    4.3372764 
C     1.6544324    2.6011106    4.7076403 
C     0.6874206    2.1035314    3.8290083 
C     0.4819290    2.7050635    2.5636304 
C     1.2772488    3.8233972    2.2165642 
C     2.2610104    4.3047800    3.0869414 
H     3.2150484    4.0779618    5.0250033 
H     1.7900993    2.1288954    5.6859247 
H     0.0852865    1.2436037    4.1365730 
H     1.1268814    4.3104063    1.2486855 
H     2.8724175    5.1631260    2.7911185 
O     1.3050788    0.7527813   -3.3097637 
C    -0.8724319   -0.2392622   -3.5153385 
C     2.7288152   -0.3709723   -1.6922234 
C     0.5776219   -0.2728771   -3.9750881 
C     2.6546305    0.4133656   -3.0054846 
C    -0.5063655   -2.4952060   -1.6596648 
C    -3.0203718   -1.0608193   -1.8995333 
C     2.5798987    2.2470280   -0.4977420 
C     2.7208214   -0.1922777    1.1764577 
C    -0.5536558   -3.3935410   -2.7477364 
C    -3.8238792    0.0154997   -2.3339028 
C     3.8943059    2.5958813   -0.1266626 
C     2.9208561   -1.5919398    1.2122223 
C     0.0566275   -2.9206167   -0.4399957 
C    -3.6208957   -2.3022950   -1.6183017 
C     1.7647718    3.2009240   -1.1418627 
C     3.0976177    0.5791960    2.2954982 
C    -0.0285614   -4.6860182   -2.6164850 
C    -5.1999588   -0.1630963   -2.5252399 
C     4.3679761    3.8942972   -0.3619803 
C     3.4831427   -2.2009243    2.3407846 
C     0.5724531   -4.2180469   -0.3083562 
C    -5.0010583   -2.4706610   -1.8010914 
C     2.2481360    4.4926266   -1.3900409 
C     3.6660271   -0.0374805    3.4195080 
C     0.5350460   -5.0997871   -1.3983740 
C    -5.7900344   -1.4095999   -2.2661149 
C     3.5465088    4.8441063   -0.9892208 
C     3.8571471   -1.4253216    3.4495066 
H    -1.4959735   -0.8706451   -4.1723306 
H    -1.2581004    0.7917087   -3.5967891 
H     3.7801480   -0.5470528   -1.4020277 
H     2.2318484   -1.3532982   -1.7893887 
H     0.6140137   -0.1051337   -5.0717279 
H     1.0186180   -1.2712911   -3.7804318 
H     3.1180329   -0.1693649   -3.8272342 
H     3.2035827    1.3656286   -2.9200883 
H    -1.0101079   -3.0941571   -3.6971046 
H    -3.3782251    0.9977633   -2.5304008 
H     4.5473597    1.8597257    0.3535054 
H     2.6454167   -2.2156067    0.3565539 
H     0.0909145   -2.2235386    0.4060098 
H    -3.0154477   -3.1385139   -1.2566965 
H     0.7530022    2.9199719   -1.4559380 
H     2.9666104    1.6638856    2.2878578 
H    -0.0643448   -5.3752010   -3.4664620 
H    -5.8122918    0.6741224   -2.8761393 
H     5.3850817    4.1630677   -0.0584084 
H     3.6378933   -3.2851578    2.3496723 
H     1.0044414   -4.5369023    0.6460442 
H    -5.4591410   -3.4387308   -1.5747914 
H     1.6099246    5.2261242   -1.8934715 
H     3.9589564    0.5801410    4.2745620 
H     0.9412109   -6.1117741   -1.3001305 
H    -6.8655510   -1.5490314   -2.4156582 
H     3.9218105    5.8561738   -1.1730225 
H     4.3023254   -1.9017345    4.3289829 
