88
Energy =
C    -2.4578388    1.6478756    0.8177937 
C    -1.6840300    1.3213749    1.9516073 
C    -0.3892996    1.9184732    2.1207244 
H    -2.0102144    0.5326762    2.6412494 
Pd   -0.4116467    0.7275395    0.2708714 
P    -1.1669877   -0.6832224   -1.4677129 
P     1.8512861    0.9541886   -0.2127798 
H    -2.1523772    2.5443150    0.2564423 
H    -0.2620751    2.9467947    1.7506090 
C    -6.4013959    0.3278232   -0.2450180 
C    -5.7447977    1.3122031   -0.9986029 
C    -4.4573231    1.7237503   -0.6365356 
C    -3.7964587    1.1551096    0.4792094 
C    -4.4736314    0.1653374    1.2288277 
C    -5.7619058   -0.2392933    0.8702458 
H    -7.4115593    0.0073192   -0.5196979 
H    -6.2422126    1.7687295   -1.8605350 
H    -3.9534710    2.5113258   -1.2092609 
H    -3.9932900   -0.2880004    2.1003363 
H    -6.2726626   -1.0044430    1.4628973 
C     2.2060055    0.8193158    5.3757711 
C     1.5106493   -0.1765149    4.6694686 
C     0.6716469    0.1731353    3.6064646 
C     0.5118773    1.5261727    3.2260300 
C     1.2280932    2.5136351    3.9339974 
C     2.0625038    2.1634054    5.0029379 
H     2.8618446    0.5458096    6.2087574 
H     1.6275874   -1.2292479    4.9477294 
H     0.1499621   -0.6091395    3.0415302 
H     1.1247243    3.5646088    3.6449988 
H     2.6079734    2.9444876    5.5422201 
O    -0.4651472    2.2714742   -2.1017832 
C     1.9857761    1.9275664   -1.8181891 
C    -1.7881076    0.3955554   -2.8583213 
C     0.8185747    2.8938135   -2.1099254 
C    -0.7990332    1.4968443   -3.2567690 
C     2.9216946    1.8908836    0.9496556 
C     2.7944001   -0.5864671   -0.5092141 
C    -0.1145770   -1.9612466   -2.2878863 
C    -2.6062996   -1.6706508   -0.9081313 
C     2.8999017    3.3013964    0.9718017 
C     2.2779849   -1.8006658   -0.0167377 
C    -0.3825121   -3.3387355   -2.1428152 
C    -2.4948022   -2.3020486    0.3501802 
C     3.7443560    1.2000006    1.8621935 
C     4.0231481   -0.5801102   -1.2013570 
C     1.0147509   -1.5709581   -3.0387536 
C    -3.7542836   -1.8918638   -1.6918330 
C     3.7188769    4.0073764    1.8637205 
C     2.9730548   -2.9990201   -0.2260513 
C     0.4587437   -4.2922776   -2.7350182 
C    -3.4997438   -3.1670663    0.8016367 
C     4.5535862    1.9115228    2.7576280 
C     4.7106033   -1.7815159   -1.4157456 
C     1.8465201   -2.5232487   -3.6377508 
C    -4.7689329   -2.7399280   -1.2251744 
C     4.5515329    3.3138237    2.7543784 
C     4.1851077   -2.9903677   -0.9311628 
C     1.5730440   -3.8903083   -3.4836288 
C    -4.6386753   -3.3875737    0.0121187 
H     2.0701293    1.1763482   -2.6221312 
H     2.9339226    2.4940393   -1.8120594 
H    -2.0358728   -0.2196004   -3.7405000 
H    -2.7195545    0.8509609   -2.4782650 
H     1.0026522    3.3944027   -3.0821627 
H     0.7603352    3.6795362   -1.3390267 
H    -1.2653497    2.1519404   -4.0200849 
H     0.1062266    1.0560720   -3.7151456 
H     2.2514178    3.8609540    0.2892428 
H     1.3201194   -1.7995486    0.5158226 
H    -1.2518868   -3.6751533   -1.5710912 
H    -1.6092130   -2.1145745    0.9702762 
H     3.7593573    0.1057690    1.8684884 
H     4.4484622    0.3604164   -1.5681137 
H     1.2648323   -0.5132876   -3.1475272 
H    -3.8666260   -1.4112749   -2.6681623 
H     3.7057720    5.1023408    1.8608331 
H     2.5599291   -3.9406874    0.1482962 
H     0.2336785   -5.3568956   -2.6124220 
H    -3.3982178   -3.6619358    1.7730672 
H     5.1879964    1.3638496    3.4616227 
H     5.6616535   -1.7746328   -1.9583571 
H     2.7187676   -2.1950702   -4.2114789 
H    -5.6631705   -2.8987345   -1.8363837 
H     5.1916154    3.8661766    3.4498555 
H     4.7239511   -3.9276671   -1.1040890 
H     2.2278031   -4.6376652   -3.9431381 
H    -5.4292493   -4.0578274    0.3649928 
