88
Energy =
C    -2.4525794    0.7131501    0.9332563 
C    -1.4413724    1.0594247    1.8751328 
C    -0.5353582    2.1165051    1.6271550 
H    -1.2918840    0.4111216    2.7475722 
Pd   -0.4215959    0.4744584    0.0179295 
P     1.9258412    0.6277522   -0.2232841 
P    -1.1312374   -0.9422626   -1.7269713 
H    -2.8429197    1.5148066    0.2884091 
H    -0.8301175    2.8558515    0.8670568 
C    -5.1681002   -2.5485573    1.6500833 
C    -5.6327992   -1.3394755    1.1127080 
C    -4.7405158   -0.2894538    0.8627407 
C    -3.3687994   -0.4248631    1.1615006 
C    -2.9126840   -1.6488039    1.7017537 
C    -3.8019744   -2.7014851    1.9398828 
H    -5.8651985   -3.3717026    1.8378795 
H    -6.6946998   -1.2148488    0.8778034 
H    -5.1084382    0.6483165    0.4340340 
H    -1.8460251   -1.7793413    1.9162916 
H    -3.4296602   -3.6463393    2.3494594 
C     2.4262428    3.6246513    4.3486658 
C     2.1735619    4.2758648    3.1321602 
C     1.2242966    3.7571089    2.2441828 
C     0.5127343    2.5734380    2.5512711 
C     0.7972610    1.9149509    3.7709943 
C     1.7365860    2.4409631    4.6611399 
H     3.1583426    4.0354012    5.0515986 
H     2.7081342    5.1970445    2.8785330 
H     1.0213413    4.2769356    1.3022600 
H     0.2772611    0.9889974    4.0335258 
H     1.9366657    1.9227399    5.6041005 
O     1.5976859    0.2647521   -3.2020864 
C    -0.6319480   -0.5582833   -3.4929711 
C     2.8654995   -0.5817000   -1.3124887 
C     0.8397740   -0.7669098   -3.8202174 
C     2.9012444   -0.1135845   -2.7711253 
C    -0.5940707   -2.6824374   -1.4939081 
C    -2.9538387   -1.0262451   -1.9766142 
C     2.5142488    2.2645660   -0.8037796 
C     2.7215703    0.2983983    1.4073199 
C    -0.0369809   -3.0602296   -0.2571577 
C    -3.6130376    0.1468230   -2.4033582 
C     3.8865894    2.5895094   -0.8772746 
C     2.4052237   -0.9279833    2.0331181 
C    -0.7267674   -3.6525462   -2.5115561 
C    -3.6950990   -2.2068628   -1.7866795 
C     1.5634418    3.1958691   -1.2640621 
C     3.6140264    1.1792274    2.0460874 
C     0.3895758   -4.3769714   -0.0356700 
C    -4.9875692    0.1262639   -2.6716377 
C     4.2898510    3.8409282   -1.3622633 
C     2.9911352   -1.2773916    3.2560218 
C    -0.2980606   -4.9681633   -2.2904664 
C    -5.0727925   -2.2186328   -2.0505737 
C     1.9687432    4.4459147   -1.7512610 
C     4.2019848    0.8229178    3.2685645 
C     0.2618866   -5.3317963   -1.0549280 
C    -5.7189430   -1.0599759   -2.5023713 
C     3.3320683    4.7729619   -1.7920847 
C     3.8993959   -0.4038394    3.8738774 
H    -1.2629527   -1.1878831   -4.1444726 
H    -0.9092726    0.4920146   -3.6882009 
H     3.8875082   -0.6919645   -0.9084505 
H     2.3568874   -1.5578737   -1.2118825 
H     0.9778073   -0.7267111   -4.9211213 
H     1.1711838   -1.7696674   -3.4817215 
H     3.3295761   -0.9026668   -3.4210611 
H     3.5363351    0.7819164   -2.8715958 
H     0.0553119   -2.3044656    0.5313585 
H    -3.0518863    1.0805573   -2.5316643 
H     4.6457217    1.8661737   -0.5600233 
H     1.7005143   -1.6175093    1.5562396 
H    -1.1743520   -3.3894153   -3.4758073 
H    -3.2047335   -3.1150749   -1.4246037 
H     0.5006186    2.9273098   -1.2497641 
H     3.8358367    2.1569079    1.6118214 
H     0.8219124   -4.6561000    0.9308285 
H    -5.4884287    1.0380048   -3.0136285 
H     5.3557228    4.0868846   -1.4094806 
H     2.7401027   -2.2341465    3.7260458 
H    -0.4034928   -5.7136395   -3.0853819 
H    -5.6422515   -3.1401917   -1.8933770 
H     1.2203220    5.1621780   -2.1056456 
H     4.8900257    1.5217684    3.7549127 
H     0.5964537   -6.3608263   -0.8881368 
H    -6.7933526   -1.0761752   -2.7120267 
H     3.6507370    5.7494647   -2.1710991 
H     4.3609984   -0.6757975    4.8286590 
