88
Energy =
C    -2.5003407    1.1052224    0.6887687 
C    -1.6003088    1.1441250    1.7735383 
C    -0.4829569    2.0307698    1.8056430 
H    -1.6857907    0.3908965    2.5667855 
Pd   -0.2971890    0.6477456    0.0636035 
P     1.9852663    1.0667395   -0.2984518 
P    -0.7810967   -1.0546941   -1.5106983 
H    -2.4943483    1.9581436   -0.0069207 
H    -0.5783776    2.9950262    1.2846668 
C    -6.0492790   -1.3077906    0.4159391 
C    -5.2196037   -1.4187786    1.5441519 
C    -4.0520965   -0.6557205    1.6399811 
C    -3.6975908    0.2555348    0.6157715 
C    -4.5581765    0.3753791   -0.5015001 
C    -5.7133159   -0.4066101   -0.6072180 
H    -6.9589333   -1.9124261    0.3406970 
H    -5.4815817   -2.1097730    2.3518488 
H    -3.4168301   -0.7687619    2.5232207 
H    -4.3093009    1.0823058   -1.2983712 
H    -6.3568671   -0.3054612   -1.4868812 
C     2.2013349    1.9826872    5.1719975 
C     1.7634677    0.7719909    4.6102728 
C     0.9047880    0.7810508    3.5063162 
C     0.4684467    2.0005857    2.9387026 
C     0.9281163    3.2084303    3.5033726 
C     1.7815641    3.1987225    4.6137249 
H     2.8724955    1.9765805    6.0369925 
H     2.0962254   -0.1817870    5.0330367 
H     0.5808789   -0.1676763    3.0623494 
H     0.6062066    4.1616361    3.0716994 
H     2.1247852    4.1465855    5.0404261 
O     1.0398117    0.5174097   -3.4463662 
C     0.5183898   -1.7300185   -2.6833957 
C     2.5232457    1.7045516   -1.9782571 
C     0.7313947   -0.8028076   -3.8833763 
C     2.4129465    0.7279445   -3.1395153 
C    -1.3185378   -2.5852492   -0.6464647 
C    -2.1213415   -0.5752159   -2.6698197 
C     2.7758660    2.3665476    0.7401638 
C     3.0070123   -0.4303558   -0.0099882 
C    -2.6708278   -2.8252888   -0.3252622 
C    -2.2273659    0.7889226   -3.0118602 
C     3.7130782    2.0542216    1.7427335 
C     2.4396371   -1.5012983    0.7089175 
C    -0.3408228   -3.5187431   -0.2304216 
C    -2.9731255   -1.5131757   -3.2875942 
C     2.4477607    3.7173863    0.4942985 
C     4.3466366   -0.5254553   -0.4455976 
C    -3.0333691   -3.9753590    0.3907886 
C    -3.1868747    1.2128603   -3.9410068 
C     4.3355144    3.0824529    2.4652503 
C     3.1921115   -2.6524781    0.9833228 
C    -0.7101545   -4.6613980    0.4897256 
C    -3.9426610   -1.0824572   -4.2041744 
C     3.0822577    4.7397079    1.2115341 
C     5.0932867   -1.6806424   -0.1780781 
C    -2.0585509   -4.8932028    0.8040741 
C    -4.0535466    0.2785718   -4.5292874 
C     4.0334521    4.4239320    2.1937661 
C     4.5180290   -2.7448351    0.5355971 
H     1.4552274   -1.8582255   -2.1115290 
H     0.1819660   -2.7283080   -3.0162259 
H     1.9077263    2.5958312   -2.1901538 
H     3.5659759    2.0504054   -1.8677958 
H    -0.1908806   -0.7251969   -4.4822930 
H     1.5275391   -1.2047206   -4.5422973 
H     2.9211843   -0.2250686   -2.8885727 
H     2.9318858    1.1547501   -4.0230196 
H    -3.4472298   -2.1270394   -0.6470499 
H    -1.5455464    1.5134133   -2.5520793 
H     3.9589457    1.0111613    1.9621488 
H     1.3996802   -1.4267870    1.0493731 
H     0.7150770   -3.3637142   -0.4714876 
H    -2.8879357   -2.5786183   -3.0496475 
H     1.6989109    3.9784558   -0.2627507 
H     4.8170338    0.3043371   -0.9836132 
H    -4.0892238   -4.1470711    0.6232180 
H    -3.2602500    2.2732683   -4.2035718 
H     5.0590167    2.8286298    3.2464767 
H     2.7397228   -3.4760301    1.5456943 
H     0.0584348   -5.3780307    0.7983759 
H    -4.6106091   -1.8143486   -4.6701275 
H     2.8315562    5.7851114    1.0033284 
H     6.1301975   -1.7484284   -0.5228616 
H    -2.3468480   -5.7898101    1.3623061 
H    -4.8103753    0.6096890   -5.2479658 
H     4.5291599    5.2230597    2.7542867 
H     5.1068148   -3.6439215    0.7446623 
