88
Energy =
C    -2.4197729    0.3665880    1.3459711 
C    -1.4439796    0.8899492    2.2400953 
C    -0.7974093    2.1217224    1.9738905 
H    -1.0959647    0.2817986    3.0836456 
Pd   -0.4445167    0.6212909    0.3035968 
P     1.8030409    0.9870549   -0.2674631 
P    -0.9645725   -0.5839729   -1.6655427 
H    -2.9948538    1.0835415    0.7440930 
H    -1.3130587    2.8179749    1.2938251 
C    -4.2632208   -3.5087956    1.7274053 
C    -3.1049154   -3.2133898    2.4669393 
C    -2.4969995   -1.9587213    2.3541130 
C    -3.0421687   -0.9611519    1.5083511 
C    -4.2171964   -1.2687132    0.7848579 
C    -4.8155869   -2.5302631    0.8876054 
H    -4.7335059   -4.4938682    1.8113267 
H    -2.6696514   -3.9687775    3.1296037 
H    -1.5785955   -1.7615905    2.9166512 
H    -4.6587177   -0.5100482    0.1307418 
H    -5.7197383   -2.7470022    0.3096200 
C     1.9266496    4.0364686    4.6812994 
C     1.8740520    2.6326616    4.6307673 
C     1.0232106    1.9916994    3.7277839 
C     0.1977837    2.7437380    2.8588324 
C     0.2898523    4.1542737    2.8936509 
C     1.1380713    4.7953267    3.8045761 
H     2.5910204    4.5346330    5.3947220 
H     2.5095410    2.0371519    5.2934301 
H     1.0074032    0.8974941    3.6842778 
H    -0.3369393    4.7497904    2.2196819 
H     1.1802955    5.8890808    3.8329777 
O    -0.3654091    2.3837121   -2.2482272 
C    -0.1262324    0.0978169   -3.1850100 
C     2.0582788    2.1215128   -1.7384027 
C    -0.4382086    1.5844650   -3.4315319 
C     0.8672968    3.0559615   -2.0129051 
C    -2.7447942   -0.4341693   -2.1047757 
C    -0.5915475   -2.3752653   -1.7206137 
C     2.9735942    1.6685726    0.9757937 
C     2.5661045   -0.6216335   -0.7234567 
C    -3.3477961    0.8389921   -1.9970593 
C    -1.1289785   -3.1757300   -0.6891210 
C     3.0489898    3.0638716    1.1753035 
C     3.6018459   -0.7420997   -1.6728257 
C    -3.5130963   -1.5317832   -2.5378167 
C     0.2233378   -2.9721700   -2.7031401 
C     3.7941527    0.8171640    1.7437650 
C     2.1227563   -1.7722903   -0.0363110 
C    -4.6999482    1.0078021   -2.3229374 
C    -0.8636940   -4.5491353   -0.6481573 
C     3.9598745    3.5966732    2.0946951 
C     4.1661571   -1.9973134   -1.9415703 
C    -4.8693922   -1.3574609   -2.8523477 
C     0.4912947   -4.3478904   -2.6524006 
C     4.6985903    1.3574297    2.6684738 
C     2.7047862   -3.0204295   -0.2915839 
C    -5.4647833   -0.0922620   -2.7452411 
C    -0.0506937   -5.1390606   -1.6295501 
C     4.7898024    2.7458213    2.8400574 
C     3.7215267   -3.1351503   -1.2503228 
H     0.9542866   -0.0869201   -3.0541901 
H    -0.4664528   -0.4889625   -4.0571832 
H     2.9701632    2.7196838   -1.5680761 
H     2.2521497    1.4925757   -2.6230149 
H    -1.4717464    1.6838920   -3.8037120 
H     0.2374618    1.9840243   -4.2142157 
H     1.1172213    3.7045760   -2.8783806 
H     0.6747508    3.7094434   -1.1455363 
H    -2.7541807    1.6953860   -1.6548664 
H    -1.7601243   -2.7233367    0.0808662 
H     2.4005721    3.7445449    0.6137852 
H     3.9854099    0.1397635   -2.1967191 
H    -3.0593092   -2.5244106   -2.6171341 
H     0.6698976   -2.3788564   -3.5052530 
H     3.7470330   -0.2675244    1.6038777 
H     1.3064768   -1.6869093    0.6911064 
H    -5.1596655    1.9981103   -2.2402492 
H    -1.2955314   -5.1563210    0.1542327 
H     4.0128300    4.6804676    2.2358011 
H     4.9653931   -2.0836762   -2.6850379 
H    -5.4624034   -2.2176867   -3.1798673 
H     1.1300563   -4.8004986   -3.4177508 
H     5.3425960    0.6877900    3.2480001 
H     2.3441604   -3.9054761    0.2411558 
H    -6.5239426    0.0383754   -2.9897724 
H     0.1592227   -6.2132372   -1.5973104 
H     5.5025458    3.1655826    3.5571719 
H     4.1677580   -4.1122956   -1.4618344 
