88
Energy =
C    -2.5537361    0.8279677    1.0670292 
C    -1.5991918    1.3601746    1.9977247 
C    -0.8103064    2.4700272    1.6278886 
H    -1.4110519    0.8317935    2.9407699 
Pd   -0.5289773    0.6609633    0.2192869 
P    -1.1354627   -0.5579466   -1.6664126 
P     1.8159555    0.8246843   -0.0120997 
H    -3.0428954    1.5444349    0.3901065 
H    -1.1494165    3.0433166    0.7514495 
C    -4.8550852   -2.6999941    1.9579257 
C    -3.4849072   -2.6632853    2.2666068 
C    -2.7291244   -1.5241359    1.9710495 
C    -3.3278274   -0.3977840    1.3595046 
C    -4.7003013   -0.4554381    1.0395487 
C    -5.4578560   -1.5938236    1.3420923 
H    -5.4471879   -3.5910324    2.1908457 
H    -3.0053158   -3.5285292    2.7363772 
H    -1.6544504   -1.5089849    2.1903396 
H    -5.1763526    0.4029582    0.5544646 
H    -6.5228071   -1.6181325    1.0896326 
C     2.1146539    4.6020735    3.9352116 
C     1.7181853    5.0650206    2.6717067 
C     0.7665573    4.3509961    1.9349864 
C     0.1986804    3.1564325    2.4404167 
C     0.6089790    2.7046807    3.7162096 
C     1.5534262    3.4228683    4.4538651 
H     2.8534293    5.1607190    4.5189393 
H     2.1409335    5.9902152    2.2667064 
H     0.4363191    4.7263202    0.9591501 
H     0.1844945    1.7891139    4.1372875 
H     1.8575389    3.0607131    5.4407218 
O    -0.0238372    2.5079460   -1.8604194 
C     2.1937413    2.4213637   -0.9019836 
C    -0.8014285    0.5324526   -3.1634015 
C     1.3666293    2.6135072   -2.1783993 
C    -0.8773646    2.0524730   -2.9090242 
C     2.8631967   -0.4469295   -0.8487945 
C     2.6139281    0.9589759    1.6324911 
C    -0.2105699   -2.1046797   -1.9886066 
C    -2.8889844   -1.0611205   -1.8803930 
C     3.7957665   -1.2221726   -0.1278266 
C     2.1909186    0.0448193    2.6222649 
C     0.4747412   -2.7183087   -0.9221998 
C    -3.8558278   -0.1405929   -2.3364437 
C     2.7057335   -0.6955726   -2.2290090 
C     3.6623552    1.8525567    1.9211371 
C    -0.1827056   -2.6959147   -3.2686951 
C    -3.2884231   -2.3709299   -1.5455679 
C     4.5460130   -2.2148306   -0.7754857 
C     2.8295734    0.0021077    3.8681686 
C     1.1939783   -3.9018751   -1.1343388 
C    -5.1909736   -0.5374984   -2.4940072 
C     3.4628353   -1.6786747   -2.8754325 
C     4.2829099    1.8222949    3.1782783 
C     0.5445664   -3.8744770   -3.4783584 
C    -4.6260294   -2.7586223   -1.6966982 
C     4.3844536   -2.4462137   -2.1480732 
C     3.8786027    0.8915613    4.1465500 
C     1.2348218   -4.4756083   -2.4131935 
C    -5.5773828   -1.8487502   -2.1801757 
H     1.9533549    3.2202602   -0.1785717 
H     3.2691178    2.4814834   -1.1428010 
H     0.2046047    0.2548617   -3.5218175 
H    -1.5099421    0.2618397   -3.9663289 
H     1.6569855    1.8689218   -2.9434386 
H     1.5741152    3.6160532   -2.6038366 
H    -1.8934280    2.3457034   -2.5982851 
H    -0.6511813    2.5857527   -3.8546700 
H     3.9453279   -1.0522972    0.9420016 
H     1.3603615   -0.6384211    2.4047974 
H     0.4529994   -2.2512212    0.0690164 
H    -3.5755891    0.8895478   -2.5807403 
H     1.9732186   -0.1309854   -2.8100989 
H     4.0051717    2.5735168    1.1732278 
H    -0.7320360   -2.2426566   -4.1010580 
H    -2.5528467   -3.0916198   -1.1748763 
H     5.2658470   -2.8053990   -0.1991812 
H     2.5029254   -0.7190522    4.6245615 
H     1.7349591   -4.3666666   -0.3043313 
H    -5.9297318    0.1809428   -2.8643726 
H     3.3190364   -1.8552046   -3.9458924 
H     5.0909536    2.5273432    3.3983961 
H     0.5692121   -4.3284437   -4.4744765 
H    -4.9239287   -3.7784182   -1.4335790 
H     4.9712498   -3.2224086   -2.6496710 
H     4.3756120    0.8654595    5.1217607 
H     1.8055564   -5.3945428   -2.5822405 
H    -6.6200621   -2.1580228   -2.3051880 
