88
Energy =
C    -0.2515247    0.5998331    2.9240452 
C    -1.5786740    0.8125079    2.4543095 
C    -2.3657243   -0.2288770    1.9094733 
H    -1.9424309    1.8438779    2.3711576 
Pd   -0.4101310    0.0489620    0.7632620 
P     1.8003658    0.3877735    0.1154124 
P    -1.2442639   -0.4810111   -1.3799841 
H     0.0035841   -0.3981207    3.3104835 
H    -2.1413974   -1.2593709    2.2220960 
C     2.1472767    3.8172366    4.4798670 
C     1.1801575    4.0818541    3.4958793 
C     0.4141163    3.0399278    2.9632759 
C     0.5924088    1.7087835    3.4111141 
C     1.5862210    1.4551293    4.3806487 
C     2.3515265    2.4996938    4.9135247 
H     2.7436079    4.6339998    4.8992285 
H     1.0222227    5.1068841    3.1438649 
H    -0.3295209    3.2587716    2.1886919 
H     1.7475384    0.4295932    4.7291146 
H     3.1122945    2.2820695    5.6697406 
C    -6.2929872    0.2952372    0.2246096 
C    -5.8812473   -0.9548129    0.7086886 
C    -4.6023815   -1.1106423    1.2554349 
C    -3.7057116   -0.0221042    1.3292581 
C    -4.1377267    1.2361283    0.8446568 
C    -5.4168171    1.3913556    0.2995448 
H    -7.2926436    0.4190503   -0.2042581 
H    -6.5569707   -1.8144482    0.6589131 
H    -4.2883732   -2.0898395    1.6298095 
H    -3.4631032    2.0986128    0.8851462 
H    -5.7342245    2.3726781   -0.0687709 
O    -0.5323995    2.5063616   -0.7310820 
C    -2.0646303    1.0698714   -1.9991982 
C     1.7952031    1.7478665   -1.1551592 
C    -1.1896605    2.3330729   -1.9892217 
C     0.8358152    2.9074555   -0.8073804 
C    -2.5666910   -1.7562133   -1.3501402 
C    -0.1864663   -1.0767406   -2.7705977 
C     3.0989677    0.8664870    1.3309388 
C     2.5655282   -1.0750275   -0.6861556 
C    -3.7161498   -1.6908155   -2.1601331 
C     0.1586762   -0.2745847   -3.8777940 
C     3.5529941    2.1925405    1.4725352 
C     2.2640953   -2.3456881   -0.1525787 
C    -2.3764004   -2.8716112   -0.5076352 
C     0.2913785   -2.4038106   -2.7219338 
C     3.6626358   -0.1396927    2.1452193 
C     3.4972250   -0.9682250   -1.7365572 
C    -4.6601922   -2.7264674   -2.1229382 
C     0.9779373   -0.7808282   -4.8989397 
C     4.5684676    2.4982252    2.3896711 
C     2.9067989   -3.4904387   -0.6425332 
C    -3.3104411   -3.9157995   -0.4912312 
C     1.0979783   -2.9093054   -3.7465970 
C     4.6810787    0.1698983    3.0544270 
C     4.1183164   -2.1189096   -2.2408880 
C    -4.4565469   -3.8420807   -1.2972952 
C     1.4515363   -2.0972012   -4.8353005 
C     5.1415076    1.4895475    3.1751102 
C     3.8346756   -3.3772444   -1.6882357 
H    -2.4577831    0.9111418   -3.0194670 
H    -2.9304346    1.2032454   -1.3272888 
H     2.8197114    2.1363150   -1.2956587 
H     1.4929121    1.2717002   -2.1055815 
H    -1.8372128    3.2115509   -2.1806274 
H    -0.4435833    2.2965871   -2.8039250 
H     0.9612186    3.7167744   -1.5545605 
H     1.0713999    3.3278359    0.1835868 
H    -3.8901176   -0.8352417   -2.8191851 
H    -0.2204542    0.7461653   -3.9729735 
H     3.1292038    3.0022773    0.8728973 
H     1.5177587   -2.4315665    0.6471230 
H    -1.4962232   -2.9113813    0.1459256 
H     0.0232641   -3.0529417   -1.8836242 
H     3.3237036   -1.1767128    2.0527196 
H     3.7473303    0.0074776   -2.1645763 
H    -5.5580819   -2.6611151   -2.7459053 
H     1.2316345   -0.1435499   -5.7524544 
H     4.9090176    3.5338156    2.4880462 
H     2.6750243   -4.4715132   -0.2151315 
H    -3.1501836   -4.7807588    0.1608143 
H     1.4548310   -3.9422406   -3.6913877 
H     5.1196529   -0.6249756    3.6665058 
H     4.8343163   -2.0302377   -3.0643289 
H    -5.1933920   -4.6516550   -1.2786080 
H     2.0861066   -2.4932633   -5.6345752 
H     5.9402174    1.7314960    3.8835870 
H     4.3334589   -4.2706041   -2.0779609 
