88
Energy =
C     0.4936174   -0.9431968    2.5484354 
C    -0.8935515   -1.0844924    2.2458507 
C    -1.3730724   -2.0597922    1.3474302 
H    -1.5877149   -0.3303694    2.6373840 
Pd    0.1567385   -0.5924998    0.3694032 
P    -0.9217487   -0.3934943   -1.7297116 
P     2.2287140    0.4477465   -0.0039210 
H     1.1212440   -1.8460728    2.5104307 
H    -0.6990402   -2.8925768    1.0952090 
C     1.7973605    2.1241908    5.2742597 
C     2.3417681    0.8336064    5.3418861 
C     1.9323586   -0.1534950    4.4367233 
C     0.9603746    0.1294006    3.4547423 
C     0.4247458    1.4366787    3.3920643 
C     0.8399191    2.4241851    4.2912010 
H     2.1216041    2.8961759    5.9797071 
H     3.0944698    0.5939363    6.0997897 
H     2.3632328   -1.1582397    4.4941344 
H    -0.3099657    1.6826765    2.6164529 
H     0.4190303    3.4329200    4.2241930 
C    -5.4963352   -2.8443840    0.4112102 
C    -4.4719753   -3.6259253   -0.1472457 
C    -3.1355581   -3.3613571    0.1706477 
C    -2.7897969   -2.2929415    1.0322959 
C    -3.8347003   -1.5159204    1.5887174 
C    -5.1710509   -1.7969886    1.2891163 
H    -6.5436241   -3.0571019    0.1732107 
H    -4.7139993   -4.4498712   -0.8259906 
H    -2.3445352   -3.9817025   -0.2607186 
H    -3.6071309   -0.6879973    2.2664600 
H    -5.9646261   -1.1912650    1.7383035 
O     1.8339295   -1.0262952   -2.9677622 
C     3.3821012   -0.2907426   -1.2854303 
C    -0.0984306    0.4285706   -3.2017002 
C     2.9461936   -0.1695266   -2.7380514 
C     0.8832877   -0.5177639   -3.8987610 
C     2.0303301    2.2040052   -0.4985573 
C     3.4077728    0.5020328    1.4102372 
C    -1.4022980   -2.0217255   -2.4277848 
C    -2.4524329    0.6102242   -1.5645869 
C     0.7927270    2.8327660   -0.2564577 
C     3.7186258    1.7013104    2.0782001 
C    -0.5767320   -3.1258711   -2.1306706 
C    -2.3675870    2.0166953   -1.6873736 
C     3.0827789    2.9508275   -1.0710774 
C     4.0368976   -0.6970224    1.8093191 
C    -2.4922983   -2.1873894   -3.3061036 
C    -3.6982442    0.0267712   -1.2533187 
C     0.6036221    4.1825915   -0.5865132 
C     4.6697101    1.7033911    3.1087685 
C    -0.8505510   -4.3834302   -2.6850184 
C    -3.5021503    2.8161081   -1.5020983 
C     2.8878776    4.2966450   -1.4091696 
C     4.9946237   -0.6853975    2.8314174 
C    -2.7724076   -3.4509320   -3.8451697 
C    -4.8314929    0.8338439   -1.0761539 
C     1.6496253    4.9139379   -1.1679531 
C     5.3183888    0.5171139    3.4782022 
C    -1.9561023   -4.5495901   -3.5335941 
C    -4.7388358    2.2269842   -1.1949062 
H     4.3661529    0.1886927   -1.1410309 
H     3.5009831   -1.3571624   -1.0269335 
H    -0.8957871    0.7452489   -3.8977532 
H     0.4173593    1.3354038   -2.8372465 
H     3.7892099   -0.4679336   -3.3955684 
H     2.6997774    0.8846103   -2.9776524 
H     1.3834023    0.0008155   -4.7416654 
H     0.3528889   -1.3917892   -4.3111504 
H    -0.0242079    2.2531457    0.1901657 
H     3.2211014    2.6341350    1.7972259 
H     0.2872057   -2.9892979   -1.4703911 
H    -1.4164862    2.4972052   -1.9355941 
H     4.0613324    2.4907691   -1.2444244 
H     3.7863223   -1.6454765    1.3198574 
H    -3.1286153   -1.3346945   -3.5649339 
H    -3.7934982   -1.0582385   -1.1656108 
H    -0.3621117    4.6600068   -0.3900526 
H     4.9005015    2.6404690    3.6253014 
H    -0.2025920   -5.2347191   -2.4521171 
H    -3.4209891    3.9032616   -1.6074257 
H     3.7073747    4.8677057   -1.8574700 
H     5.4877641   -1.6183552    3.1237124 
H    -3.6288573   -3.5760200   -4.5158165 
H    -5.7908495    0.3608990   -0.8432222 
H     1.5035418    5.9667062   -1.4308222 
H     6.0671687    0.5260278    4.2768184 
H    -2.1770988   -5.5338193   -3.9594629 
H    -5.6266738    2.8524388   -1.0563406 
