83
Energy =
C    -0.2081258   -2.2069835   -1.4514652 
C     1.0297739   -1.5739730   -1.6851453 
C     2.0237483   -1.4801749   -0.6672525 
H     1.1951748   -1.0512944   -2.6352941 
Pd    0.1369614   -0.4145351   -0.0246808 
P     1.0923051    0.6504991    1.8595227 
P    -2.0667326    0.4533126   -0.0335521 
H    -0.2747156   -2.8589122   -0.5666064 
H     2.0478880   -2.2909014    0.0736255 
C    -3.2903061   -3.0019958   -4.3456892 
C    -3.4050579   -3.4677600   -3.0265376 
C    -2.3928148   -3.1987262   -2.0982235 
C    -1.2526696   -2.4431831   -2.4611729 
C    -1.1441575   -1.9963066   -3.7997633 
C    -2.1511332   -2.2749677   -4.7296128 
H    -4.0771972   -3.2164738   -5.0757275 
H    -4.2800735   -4.0522624   -2.7244531 
H    -2.4763097   -3.5832838   -1.0754801 
H    -0.2616563   -1.4374129   -4.1258268 
H    -2.0467817   -1.9257658   -5.7618277 
C     5.7814584    0.5367677   -1.2980008 
C     4.6252377    0.9851058   -1.9576320 
C     3.4031100    0.3354122   -1.7573697 
C     3.3064849   -0.7810188   -0.8938620 
C     4.4831030   -1.2326578   -0.2533990 
C     5.7059330   -0.5787711   -0.4502137 
H     6.7365242    1.0494252   -1.4508617 
H     4.6760944    1.8513696   -2.6255093 
H     2.5049924    0.7146564   -2.2574564 
H     4.4408380   -2.1140783    0.3941872 
H     6.6053188   -0.9473392    0.0538148 
C     0.0396642    1.7221587    2.9726321 
C    -2.4008953    1.8487873    1.1460150 
C    -0.5270382    3.0480071    2.4400600 
C    -1.2957281    2.9333787    1.1162855 
C     2.6247576    1.6596811    1.4855581 
C     1.5934862   -0.6251925    3.1625274 
C    -3.4217513   -0.7887039    0.3435060 
C    -2.4861978    1.2869543   -1.6922002 
C     3.2805512    2.2898881    2.7259420 
C     2.3439907    2.7012061    0.3852932 
C     2.8949869   -1.3785326    2.8581390 
C     0.4351264   -1.6099881    3.4098786 
C    -2.9602708   -1.7403715    1.4624893 
C    -4.7888220   -0.1587383    0.6712748 
C    -1.1952570    1.6139186   -2.4675728 
C    -3.4804624    0.5045209   -2.5672451 
H    -0.7806728    1.0596162    3.3027536 
H     0.6502861    1.9173232    3.8725962 
H    -2.5148692    1.4125969    2.1544666 
H    -3.3850096    2.2716178    0.8808588 
H    -1.1990880    3.4540273    3.2197479 
H     0.2855995    3.7866786    2.3265795 
H    -0.5735838    2.7178680    0.3058377 
H    -1.7398910    3.9132931    0.8719377 
H     3.3114486    0.9056933    1.0584057 
H     1.7471918   -0.0229835    4.0785781 
H    -3.5066583   -1.3692692   -0.5929388 
H    -2.9631585    2.2401440   -1.3957667 
H     3.5114133    1.5463428    3.5075771 
H     4.2320152    2.7681044    2.4328341 
H     2.6425264    3.0732422    3.1713816 
H     1.7934885    2.2552592   -0.4603598 
H     3.2990429    3.0933391   -0.0038881 
H     1.7602547    3.5545598    0.7689758 
H     3.1696593   -1.9932336    3.7335253 
H     2.7667746   -2.0624973    2.0048676 
H     3.7416603   -0.7081893    2.6396763 
H    -0.5072652   -1.1019496    3.6750268 
H     0.6920728   -2.2900033    4.2410758 
H     0.2484961   -2.2244847    2.5104907 
H    -2.0109157   -2.2405314    1.2054096 
H    -2.8106098   -1.2018501    2.4155817 
H    -3.7253615   -2.5174803    1.6375140 
H    -5.1103772    0.5815886   -0.0801949 
H    -4.7766316    0.3376457    1.6569087 
H    -5.5580238   -0.9503834    0.7102162 
H    -0.6947349    0.6879610   -2.7983520 
H    -1.4379261    2.2091389   -3.3658152 
H    -0.4771450    2.1916022   -1.8605441 
H    -4.4626756    0.3837121   -2.0844637 
H    -3.0992178   -0.4928380   -2.8329693 
H    -3.6414702    1.0595945   -3.5086477 
