83
Energy =
C    -0.4056340   -2.1760334   -1.6145423 
C     0.9273435   -1.7098861   -1.7346123 
C     1.8492202   -1.8004094   -0.6627188 
H     1.2231410   -1.1772400   -2.6463716 
Pd    0.0455597   -0.5067159   -0.0989850 
P     1.2448377    0.7503224    1.5173852 
P    -2.1569375    0.2946786    0.2085159 
H    -0.5989357   -2.9400003   -0.8471598 
H     1.6438913   -2.5573446    0.1092172 
C    -3.3282671   -2.1036992   -4.7775242 
C    -3.4488457   -3.0061149   -3.7099194 
C    -2.4863369   -3.0240472   -2.6930926 
C    -1.3856344   -2.1363043   -2.7156955 
C    -1.2677135   -1.2473819   -3.8107730 
C    -2.2278498   -1.2312455   -4.8270704 
H    -4.0807296   -2.0861766   -5.5723772 
H    -4.2920497   -3.7034577   -3.6722335 
H    -2.5808977   -3.7400853   -1.8702348 
H    -0.4308689   -0.5433945   -3.8586886 
H    -2.1208486   -0.5314172   -5.6623396 
C     5.9650942   -0.5336432   -0.7766242 
C     5.5212717   -1.4452106    0.1929065 
C     4.1834776   -1.8594414    0.2055096 
C     3.2557242   -1.3633215   -0.7408222 
C     3.7277076   -0.4680407   -1.7295695 
C     5.0642873   -0.0576251   -1.7447672 
H     7.0096490   -0.2065807   -0.7887393 
H     6.2206584   -1.8423353    0.9357008 
H     3.8503826   -2.5914473    0.9503831 
H     3.0423261   -0.0711798   -2.4845555 
H     5.4075339    0.6401850   -2.5155097 
C     0.3260407    1.9244983    2.6277897 
C    -2.3475393    1.9500854    1.0424046 
C    -0.2857869    3.1824304    1.9806340 
C    -1.1942194    2.9407893    0.7664819 
C     2.6518206    1.7284346    0.7380250 
C     2.0402759   -0.4697785    2.7134455 
C    -3.2926287   -0.7988409    1.2276595 
C    -3.0387540    0.5532147   -1.4274405 
C     3.3145467    2.7954128    1.6290923 
C     2.2157867    2.3334731   -0.6112768 
C     1.0087007   -1.5174809    3.1708826 
C     2.7933466    0.1205569    3.9178105 
C    -3.5922650   -2.1303908    0.5230954 
C    -2.7185623   -1.0411903    2.6338136 
C    -4.5328706    0.8976756   -1.3128922 
C    -2.2728507    1.5902617   -2.2698733 
H    -0.4539633    1.3123908    3.1167752 
H     1.0249332    2.2325785    3.4252372 
H    -2.4626424    1.7674562    2.1249884 
H    -3.3154417    2.3578618    0.7036803 
H    -0.8615865    3.7082370    2.7657560 
H     0.5218594    3.8748813    1.6851011 
H    -0.5837376    2.5783764   -0.0814257 
H    -1.6103625    3.9113760    0.4451377 
H     3.3931696    0.9352520    0.5286273 
H     2.7757750   -0.9691992    2.0576360 
H    -4.2296175   -0.2158218    1.3195396 
H    -2.9438233   -0.4264650   -1.9269485 
H     3.6979678    2.3881526    2.5762426 
H     4.1712274    3.2321258    1.0856176 
H     2.6222377    3.6206958    1.8665409 
H     1.6633160    1.6014775   -1.2269538 
H     3.1065269    2.6576939   -1.1770424 
H     1.5698584    3.2169149   -0.4690087 
H     1.5141825   -2.3160616    3.7422854 
H     0.2442899   -1.0719123    3.8314820 
H     0.4915139   -1.9825442    2.3123889 
H     3.6218490    0.7796295    3.6172349 
H     3.2294109   -0.7060074    4.5070078 
H     2.1233655    0.6820267    4.5919261 
H    -2.6706091   -2.7291623    0.4194543 
H    -4.3073159   -2.7179749    1.1253530 
H    -4.0271649   -1.9936424   -0.4800910 
H    -2.4929273   -0.1042981    3.1715806 
H    -1.7931949   -1.6378445    2.5783513 
H    -3.4488428   -1.6023920    3.2427484 
H    -4.7018900    1.8568346   -0.7913922 
H    -4.9569998    0.9999281   -2.3275695 
H    -5.1095335    0.1147343   -0.7931614 
H    -1.1919582    1.3642211   -2.3076748 
H    -2.3978944    2.6118438   -1.8695562 
H    -2.6575752    1.5840796   -3.3042123 
