83
Energy =
C    -0.4539589   -2.3047535   -1.3971812 
C     0.8582571   -1.8357454   -1.6278564 
C     1.8207786   -1.7749581   -0.5835699 
H     1.1135248   -1.4281280   -2.6135363 
Pd    0.0579473   -0.4247639   -0.1144326 
P     1.2857868    0.9004595    1.4123861 
P    -2.1032558    0.5128544    0.1005411 
H    -0.6103034   -2.9126787   -0.4935102 
H     1.6722768   -2.4572688    0.2662303 
C    -3.4840513   -2.9350332   -4.3884240 
C    -2.3882394   -2.1037582   -4.6769374 
C    -1.3971222   -1.8819500   -3.7164709 
C    -1.4775107   -2.4860127   -2.4400584 
C    -2.5786653   -3.3342823   -2.1718215 
C    -3.5726295   -3.5544244   -3.1328421 
H    -4.2584217   -3.1054782   -5.1431698 
H    -2.3079878   -1.6254634   -5.6584936 
H    -0.5565782   -1.2248955   -3.9618503 
H    -2.6461721   -3.8313812   -1.1973335 
H    -4.4134495   -4.2172968   -2.9042769 
C     5.9007922   -0.4649773   -1.0418634 
C     4.9379396   -0.0876427   -1.9932638 
C     3.6123283   -0.5147226   -1.8658372 
C     3.2140395   -1.3284250   -0.7793168 
C     4.2029148   -1.7271909    0.1507770 
C     5.5295484   -1.2959883    0.0257715 
H     6.9363906   -0.1247675   -1.1417222 
H     5.2233669    0.5466584   -2.8388921 
H     2.8771274   -0.1933526   -2.6100125 
H     3.9263571   -2.3968649    0.9734281 
H     6.2770495   -1.6171705    0.7584178 
C     0.4001493    2.2232165    2.3713317 
C    -2.5170458    1.3790827    1.6996623 
C    -0.6374180    1.7803297    3.4212070 
C    -1.7506995    0.8428199    2.9295298 
C     2.6599864    1.8332031    0.5172284 
C     2.1421564   -0.2134297    2.6643694 
C    -3.4387731   -0.7994578   -0.0096542 
C    -2.5496174    1.7790898   -1.2084433 
C     3.3412253    2.9749313    1.2938255 
C     2.1580177    2.3468958   -0.8446112 
C     1.2031286   -1.3218821    3.1815868 
C     2.8573579    0.4973091    3.8273697 
C    -3.2813102   -1.8071716    1.1441435 
C    -4.8755332   -0.2612626   -0.1078647 
C    -1.6217485    3.0034085   -1.1452044 
C    -2.5247857    1.1419477   -2.6064255 
H     1.1728639    2.8338610    2.8701348 
H    -0.0616391    2.8735301    1.6054607 
H    -3.6075952    1.2755384    1.8336992 
H    -2.3342283    2.4584815    1.5589301 
H    -0.1187346    1.3022171    4.2709929 
H    -1.0979752    2.6997967    3.8297135 
H    -2.4576265    0.6812485    3.7619580 
H    -1.3242012   -0.1513140    2.6991524 
H     3.4013694    1.0341261    0.3340685 
H     2.9091298   -0.6902215    2.0269595 
H    -3.2011866   -1.3203785   -0.9533411 
H    -3.5806408    2.0993169   -0.9637549 
H     3.7302856    2.6636238    2.2750541 
H     4.1967018    3.3453008    0.7014848 
H     2.6565737    3.8272716    1.4462008 
H     1.6178983    1.5633567   -1.4046135 
H     3.0145950    2.6803190   -1.4559787 
H     1.4811138    3.2098176   -0.7169300 
H     1.7982557   -2.1082849    3.6788003 
H     0.4845125   -0.9358699    3.9238414 
H     0.6282191   -1.7913750    2.3629264 
H     3.6620705    1.1638316    3.4820235 
H     3.3188994   -0.2609518    4.4850759 
H     2.1592383    1.0867740    4.4464537 
H    -3.5618608   -1.3621613    2.1153096 
H    -3.9429882   -2.6750154    0.9756223 
H    -2.2439523   -2.1786471    1.2264151 
H    -5.0269722    0.3742268   -0.9959110 
H    -5.1692578    0.3160670    0.7872447 
H    -5.5749751   -1.1124604   -0.1895180 
H    -0.5800534    2.7137648   -1.3592811 
H    -1.9316847    3.7438007   -1.9035115 
H    -1.6481245    3.5090968   -0.1646689 
H    -3.1982285    0.2739770   -2.6953485 
H    -1.5038227    0.8024286   -2.8534717 
H    -2.8291493    1.8852787   -3.3641228 
