83
Energy =
C    -0.3669727   -2.3780935   -1.3558117 
C     0.8858146   -1.8218467   -1.6776861 
C     1.8988611   -1.6597286   -0.6803437 
H     1.0539804   -1.4186168   -2.6840196 
Pd    0.1439378   -0.4095147   -0.1340762 
P     1.3223311    0.6871330    1.5941601 
P    -1.9434886    0.6910939   -0.0881649 
H    -0.4465211   -2.8909521   -0.3848754 
H     1.9013155   -2.3942322    0.1381628 
C    -3.5947839   -3.3355714   -4.0293287 
C    -3.6948812   -3.6058133   -2.6558290 
C    -2.6304619   -3.2942331   -1.8024027 
C    -1.4504028   -2.6893909   -2.2977895 
C    -1.3552203   -2.4512124   -3.6897272 
C    -2.4157011   -2.7689899   -4.5428068 
H    -4.4231527   -3.5825002   -4.7010326 
H    -4.5997556   -4.0707402   -2.2512944 
H    -2.7056773   -3.5237971   -0.7339346 
H    -0.4425961   -2.0208784   -4.1137437 
H    -2.3222857   -2.5802374   -5.6171165 
C     5.7028003    0.2493428   -1.3725191 
C     4.5884254    0.6063503   -2.1505984 
C     3.3549557   -0.0200916   -1.9458757 
C     3.2032633   -1.0202092   -0.9568683 
C     4.3414563   -1.3885718   -0.2026134 
C     5.5759889   -0.7571354   -0.4034047 
H     6.6658568    0.7453265   -1.5297962 
H     4.6813418    1.3833420   -2.9164847 
H     2.4911715    0.2886977   -2.5447893 
H     4.2596431   -2.1913269    0.5394121 
H     6.4436284   -1.0590932    0.1922513 
C     0.3074258    1.6144752    2.8463287 
C    -2.1964867    2.0977619    1.1097426 
C    -1.0668621    0.9694292    3.1527940 
C    -2.2579787    1.7753728    2.6124888 
C     2.6194355    1.9130655    1.0070370 
C     2.2023305   -0.6412683    2.5974288 
C    -3.4037174   -0.4643353    0.1293433 
C    -2.2945716    1.5904768   -1.7069345 
C     3.1391448    2.8911239    2.0790447 
C     2.0674044    2.6888748   -0.2024960 
C     1.1880052   -1.6778313    3.1202162 
C     3.1350945   -0.1523789    3.7175287 
C    -3.2014332   -1.4329901    1.3093425 
C    -4.7689950    0.2418465    0.1819648 
C    -1.2301857    2.6650268   -1.9915011 
C    -2.4034127    0.6190021   -2.8895677 
H     0.9229233    1.7027960    3.7581821 
H     0.1875310    2.6441218    2.4645281 
H    -3.1195639    2.6215055    0.8009444 
H    -1.3644396    2.7952668    0.9048042 
H    -1.1067839   -0.0525660    2.7324571 
H    -1.1835633    0.8529649    4.2441204 
H    -2.3238513    2.7374391    3.1551917 
H    -3.1928980    1.2344246    2.8427231 
H     3.4479934    1.2658746    0.6611868 
H     2.8296909   -1.1243142    1.8292047 
H    -3.3545039   -1.0655537   -0.7978190 
H    -3.2705629    2.0890249   -1.5490554 
H     3.5261450    2.3904342    2.9783271 
H     3.9619585    3.4888506    1.6482623 
H     2.3513490    3.5979964    2.3919521 
H     1.7228661    2.0066316   -0.9954471 
H     2.8547748    3.3383049   -0.6236355 
H     1.2195051    3.3351444    0.0892204 
H     1.7255724   -2.5645898    3.4999601 
H     0.5880351   -1.2737306    3.9539339 
H     0.4927204   -2.0110845    2.3276571 
H     3.9904634    0.4180862    3.3228188 
H     3.5425554   -1.0285640    4.2533917 
H     2.6086927    0.4683414    4.4643191 
H    -3.3142098   -0.9284061    2.2832929 
H    -3.9591726   -2.2354270    1.2660045 
H    -2.2019460   -1.9025785    1.2817107 
H    -4.9428192    0.8853048   -0.6969682 
H    -4.8762059    0.8598029    1.0905867 
H    -5.5742352   -0.5141663    0.2008927 
H    -0.2381497    2.2014893   -2.1319434 
H    -1.4884263    3.2017832   -2.9212621 
H    -1.1499108    3.4159973   -1.1884618 
H    -3.1605881   -0.1683412   -2.7408069 
H    -1.4338014    0.1261775   -3.0702179 
H    -2.6752134    1.1753983   -3.8038694 
