83
Energy =
C    -0.4507325   -2.1114070   -1.6152449 
C     0.9400017   -1.8041372   -1.6333249 
C     1.7585211   -2.0139173   -0.5012879 
H     1.3569561   -1.2910799   -2.5089207 
Pd    0.0470903   -0.5510976   -0.0444666 
P     1.3183133    0.9050439    1.3180034 
P    -2.1645932    0.1393932    0.4108465 
H    -0.7679506   -2.9309851   -0.9552317 
H     1.3800710   -2.7083816    0.2648310 
C    -3.0478597   -1.3568386   -4.9733340 
C    -1.9378259   -0.5267351   -4.7450286 
C    -1.0900521   -0.7667172   -3.6589655 
C    -1.3293025   -1.8440754   -2.7736106 
C    -2.4381312   -2.6827164   -3.0297204 
C    -3.2899134   -2.4397480   -4.1146659 
H    -3.7142603   -1.1650028   -5.8203509 
H    -1.7370175    0.3166600   -5.4139268 
H    -0.2449458   -0.0929149   -3.4803305 
H    -2.6258010   -3.5426794   -2.3788697 
H    -4.1411781   -3.1042478   -4.2951976 
C     5.9941863   -1.3164667   -0.1964404 
C     5.3090300   -2.0308795    0.7978109 
C     3.9322187   -2.2545433    0.6763481 
C     3.2080343   -1.7632721   -0.4356342 
C     3.9190036   -1.0669711   -1.4416717 
C     5.2941414   -0.8440973   -1.3199129 
H     7.0708142   -1.1406685   -0.1057134 
H     5.8497924   -2.4214569    1.6659082 
H     3.4032631   -2.8246195    1.4489100 
H     3.3962046   -0.6886418   -2.3250931 
H     5.8267639   -0.3025475   -2.1084312 
C     0.4256437    2.3256951    2.1042829 
C    -2.4829124    1.4352518    1.7206285 
C    -0.5360291    3.0379029    1.1209547 
C    -2.0168108    2.8832219    1.4961154 
C     2.6580764    1.7007720    0.2519920 
C     2.1955696    0.0352834    2.7316318 
C    -3.1721311   -1.2552143    1.1927654 
C    -3.1157285    0.6875439   -1.1061432 
C     3.2895500    2.9851557    0.8164310 
C     2.1557610    1.9374564   -1.1868723 
C     1.2387018   -0.9876557    3.3726405 
C     2.8278139    0.9507317    3.7949942 
C    -3.6142502   -2.3452317    0.2079528 
C    -2.4016066   -1.8700261    2.3761997 
C    -4.5778698    1.0733450   -0.8251619 
C    -2.3578209    1.7943546   -1.8644074 
H    -0.1133076    1.9219240    2.9802761 
H     1.1814498    3.0200423    2.5072562 
H    -2.0205503    1.0225321    2.6353574 
H    -3.5729173    1.4246077    1.9022608 
H    -0.2879627    4.1120471    1.0704864 
H    -0.3886767    2.6445061    0.0974378 
H    -2.6390794    3.3621708    0.7201522 
H    -2.2171614    3.4394953    2.4314453 
H     3.4288786    0.9084426    0.2187534 
H     3.0020805   -0.5177929    2.2155313 
H    -4.0753281   -0.7474284    1.5827834 
H    -3.0964785   -0.2186328   -1.7402065 
H     3.6875525    2.8596692    1.8353124 
H     4.1307280    3.2880331    0.1676672 
H     2.5672754    3.8203996    0.8259539 
H     1.6501311    1.0450551   -1.5967484 
H     3.0083347    2.1858682   -1.8432497 
H     1.4430656    2.7794158   -1.2321709 
H     1.7688371   -1.5653316    4.1505256 
H     0.3790395   -0.4909309    3.8582762 
H     0.8418969   -1.6961456    2.6252212 
H     3.5702615    1.6438108    3.3698947 
H     3.3486537    0.3289366    4.5448458 
H     2.0658220    1.5424091    4.3315339 
H    -2.7502050   -2.9282674   -0.1470524 
H    -4.2953863   -3.0450121    0.7237576 
H    -4.1450654   -1.9456031   -0.6708465 
H    -2.1004580   -1.1202225    3.1266845 
H    -1.4894625   -2.3823454    2.0206084 
H    -3.0347541   -2.6165687    2.8870753 
H    -4.6474476    1.9848848   -0.2058946 
H    -5.0909598    1.2840782   -1.7802892 
H    -5.1384068    0.2687258   -0.3196897 
H    -1.2872147    1.5498151   -1.9721947 
H    -2.4410758    2.7691433   -1.3554533 
H    -2.7829081    1.9054304   -2.8765892 
