83
Energy =
C    -0.3900587   -2.0712402   -1.6439516 
C     0.9640771   -1.6601663   -1.7420260 
C     1.8636721   -1.7926804   -0.6563589 
H     1.2942917   -1.1330136   -2.6451790 
Pd    0.0859605   -0.4478970   -0.1120170 
P     1.2971411    0.7888299    1.4957678 
P    -2.1362739    0.2417054    0.3025204 
H    -0.6210629   -2.8435225   -0.8961205 
H     1.6099435   -2.5365121    0.1142755 
C    -3.1989410   -1.9610252   -4.9063458 
C    -2.0836431   -1.1059893   -4.9209397 
C    -1.1708616   -1.1176342   -3.8613284 
C    -1.3467449   -1.9940348   -2.7643683 
C    -2.4685084   -2.8548415   -2.7690444 
C    -3.3875054   -2.8357843   -3.8259907 
H    -3.9141577   -1.9462419   -5.7347920 
H    -1.9305467   -0.4206136   -5.7608529 
H    -0.3205279   -0.4278660   -3.8822964 
H    -2.6089082   -3.5574396   -1.9394310 
H    -4.2480351   -3.5124501   -3.8106502 
C     6.0294132   -0.6955860   -0.6719031 
C     5.1787381   -0.2071114   -1.6784808 
C     3.8269066   -0.5635307   -1.6967297 
C     3.2880207   -1.4139691   -0.7023452 
C     4.1663677   -1.9259848    0.2820871 
C     5.5197154   -1.5666393    0.3023892 
H     7.0864605   -0.4114809   -0.6589384 
H     5.5740790    0.4560873   -2.4547973 
H     3.1842041   -0.1622308   -2.4858704 
H     3.7819036   -2.6285046    1.0305987 
H     6.1796421   -1.9754697    1.0743695 
C     0.4236777    2.0421099    2.5477633 
C    -2.4458695    1.1884607    1.8792570 
C    -0.5205039    2.9498003    1.7277002 
C    -2.0125873    2.6636929    1.9571034 
C     2.6766988    1.7511262    0.6417614 
C     2.0894052   -0.3789207    2.7303211 
C    -3.2224434   -1.2755648    0.5517977 
C    -2.9735901    1.3137611   -1.0116279 
C     3.2733663    2.9220679    1.4426398 
C     2.2214708    2.2294614   -0.7522498 
C     1.0046174   -1.3045289    3.3156638 
C     2.9413653    0.2766357    3.8300553 
C    -2.5363585   -2.2899144    1.4866033 
C    -4.6570216   -0.9775507    1.0296017 
C    -1.9119733    2.1620259   -1.7384037 
C    -3.8358903    0.5382796   -2.0228481 
H    -0.1217479    1.4940933    3.3362084 
H     1.1978178    2.6305227    3.0675660 
H    -1.9693671    0.5949068    2.6809957 
H    -3.5334661    1.1380814    2.0603764 
H    -0.3248450    4.0081860    1.9721319 
H    -0.2915128    2.8445588    0.6515611 
H    -2.6060805    3.2649052    1.2443484 
H    -2.2960106    3.0256715    2.9635176 
H     3.4535516    0.9759726    0.5037203 
H     2.7560719   -0.9854571    2.0923084 
H    -3.2638352   -1.7068765   -0.4654638 
H    -3.6354958    1.9869126   -0.4331148 
H     3.6074670    2.6333116    2.4513994 
H     4.1518497    3.3162643    0.9014952 
H     2.5510795    3.7516483    1.5407957 
H     1.7163059    1.4258467   -1.3168184 
H     3.0961924    2.5674645   -1.3349330 
H     1.5205299    3.0792033   -0.6758553 
H     1.4725451   -2.0815296    3.9456995 
H     0.2934818   -0.7494648    3.9542486 
H     0.4265280   -1.8065351    2.5199132 
H     3.8013346    0.8261153    3.4151637 
H     3.3427852   -0.5088156    4.4953724 
H     2.3506784    0.9673861    4.4568310 
H    -2.4395931   -1.8932811    2.5130201 
H    -3.1386537   -3.2139166    1.5443490 
H    -1.5267256   -2.5599094    1.1324434 
H    -5.1391576   -0.1593361    0.4695606 
H    -4.6774254   -0.7177567    2.1020374 
H    -5.2788844   -1.8812413    0.9014876 
H    -1.2137164    1.5125766   -2.2957145 
H    -2.4017901    2.8403615   -2.4590021 
H    -1.3185395    2.7790891   -1.0442559 
H    -4.6678693   -0.0044400   -1.5492443 
H    -3.2379147   -0.1799670   -2.6014411 
H    -4.2747133    1.2573437   -2.7370969 
