83
Energy =
C    -0.3839753   -2.4990821   -1.2227168 
C     0.8980241   -1.9989678   -1.5422710 
C     1.9104257   -1.8819787   -0.5483958 
H     1.0810672   -1.5998887   -2.5476639 
Pd    0.1349018   -0.5825968   -0.0314416 
P     1.3424473    0.8131442    1.4418534 
P    -1.9580769    0.5216217    0.0666958 
H    -0.4635814   -3.1058354   -0.3077851 
H     1.8463513   -2.5689824    0.3077228 
C    -3.6588685   -3.1016036   -3.9458043 
C    -2.6448590   -2.1850405   -4.2740329 
C    -1.5670435   -1.9844681   -3.4065691 
C    -1.4814132   -2.6920454   -2.1841295 
C    -2.4999213   -3.6241501   -1.8770051 
C    -3.5774629   -3.8267128   -2.7476343 
H    -4.5026149   -3.2544932   -4.6263028 
H    -2.6969858   -1.6240867   -5.2129259 
H    -0.7940808   -1.2578839   -3.6744473 
H    -2.4413631   -4.1926017   -0.9425915 
H    -4.3543376   -4.5544490   -2.4915996 
C     5.8640356   -0.3026434   -1.2207237 
C     4.8273201    0.0101660   -2.1162895 
C     3.5423949   -0.5056393   -1.9183808 
C     3.2604257   -1.3483096   -0.8173974 
C     4.3223185   -1.6779605    0.0571316 
C     5.6078461   -1.1567941   -0.1376360 
H     6.8673546    0.1069139   -1.3748637 
H     5.0222569    0.6643944   -2.9724386 
H     2.7459841   -0.2308015   -2.6172899 
H     4.1362008   -2.3638390    0.8918281 
H     6.4138057   -1.4258676    0.5528779 
C     0.4149506    2.0794307    2.4360754 
C    -2.4648737    1.2414916    1.7140635 
C    -0.6104015    1.5691236    3.4677139 
C    -1.7186231    0.6485822    2.9304734 
C     2.6060587    1.8302624    0.4837848 
C     2.2953234   -0.2436832    2.6719144 
C    -3.3992636   -0.5902960   -0.3751454 
C    -1.8840779    1.9961783   -1.0977025 
C     3.2854383    2.9850727    1.2411961 
C     1.9738054    2.3429204   -0.8239744 
C     1.4284709   -1.4056379    3.1992985 
C     2.9745011    0.5095812    3.8295270 
C    -3.4998628   -1.6878550    0.7022949 
C    -4.7531552    0.0988192   -0.6113248 
C    -1.5913553    1.5262851   -2.5329515 
C    -3.0478549    3.0029714   -1.0398673 
H     1.1671006    2.7004870    2.9536165 
H    -0.0700027    2.7403815    1.6928041 
H    -3.5542299    1.0900997    1.8043751 
H    -2.3189853    2.3351182    1.6640424 
H    -0.0827832    1.0559547    4.2908966 
H    -1.0801497    2.4614955    3.9231412 
H    -2.4374620    0.4629748    3.7474468 
H    -1.2960869   -0.3399686    2.6660520 
H     3.3701651    1.0749893    0.2241735 
H     3.0821393   -0.6711942    2.0233386 
H    -3.0812642   -1.0643227   -1.3198395 
H    -0.9771678    2.5069917   -0.7182302 
H     3.7770358    2.6621337    2.1714165 
H     4.0634237    3.4262246    0.5931200 
H     2.5701928    3.7892966    1.4867040 
H     1.4708708    1.5317536   -1.3784912 
H     2.7563717    2.7719660   -1.4738142 
H     1.2326801    3.1386816   -0.6260240 
H     2.0713006   -2.1482343    3.7043592 
H     0.6850457   -1.0584237    3.9364759 
H     0.8845449   -1.9176413    2.3853807 
H     3.7077395    1.2516566    3.4793189 
H     3.5164147   -0.2151880    4.4631173 
H     2.2413197    1.0238206    4.4747679 
H    -3.8701539   -1.2843271    1.6618972 
H    -4.2087747   -2.4663045    0.3719178 
H    -2.5244398   -2.1709459    0.8885615 
H    -4.7443214    0.7238140   -1.5174583 
H    -5.0647444    0.7269736    0.2423585 
H    -5.5297826   -0.6742283   -0.7513888 
H    -2.4388756    0.9569297   -2.9532023 
H    -1.4106834    2.3972062   -3.1871196 
H    -0.6961683    0.8805776   -2.5652306 
H    -3.3064377    3.2985463   -0.0094679 
H    -3.9567503    2.6108771   -1.5209166 
H    -2.7547380    3.9190632   -1.5832487 
