83
Energy =
C    -0.2846364   -2.1915953   -1.4604300 
C     0.9478112   -1.5659349   -1.7385887 
C     1.9830528   -1.4886839   -0.7613399 
H     1.0786054   -1.0364579   -2.6903085 
Pd    0.1317266   -0.4140560   -0.0333636 
P     1.1711759    0.6271398    1.8190156 
P    -2.0632336    0.4692621    0.0548583 
H    -0.3205437   -2.8508039   -0.5791551 
H     2.0302540   -2.3056585   -0.0284664 
C    -3.4856553   -2.9403866   -4.2355977 
C    -3.5506948   -3.4172311   -2.9170141 
C    -2.5004320   -3.1628653   -2.0275969 
C    -1.3705850   -2.4114705   -2.4293202 
C    -1.3127425   -1.9532037   -3.7672353 
C    -2.3579917   -2.2169633   -4.6583791 
H    -4.3023697   -3.1435330   -4.9354976 
H    -4.4167466   -3.9989893   -2.5852831 
H    -2.5456008   -3.5559653   -1.0056738 
H    -0.4403999   -1.3967948   -4.1234848 
H    -2.2927255   -1.8589296   -5.6907922 
C     5.7296279    0.5016048   -1.5284609 
C     4.5517010    0.9647414   -2.1375455 
C     3.3329568    0.3240025   -1.8926477 
C     3.2614309   -0.7981533   -1.0340976 
C     4.4589238   -1.2644469   -0.4448433 
C     5.6785229   -0.6195161   -0.6862037 
H     6.6822612    1.0071213   -1.7162718 
H     4.5832107    1.8353782   -2.8009051 
H     2.4188584    0.7145976   -2.3534957 
H     4.4350803   -2.1502499    0.1976766 
H     6.5942391   -0.9994755   -0.2215719 
C     0.1731280    1.6969634    2.9832061 
C    -2.3391698    1.8571275    1.2583225 
C    -0.4052476    3.0312883    2.4855071 
C    -1.2278436    2.9339044    1.1931278 
C     2.6951238    1.6276922    1.3909029 
C     1.7154604   -0.6630785    3.0901814 
C    -3.4099052   -0.7672315    0.4766032 
C    -2.5439612    1.3199912   -1.5783370 
C     3.4063564    2.2420465    2.6084794 
C     2.3781018    2.6807391    0.3116758 
C     2.9970955   -1.4241046    2.7265028 
C     0.5604973   -1.6408464    3.3779931 
C    -2.9093313   -1.7308686    1.5682022 
C    -4.7585149   -0.1317551    0.8644848 
C    -1.2832704    1.6456991   -2.4025078 
C    -3.5782109    0.5517362   -2.4188515 
H    -0.6377116    1.0372647    3.3412388 
H     0.8216321    1.8800694    3.8588803 
H    -2.4158403    1.4132718    2.2670407 
H    -3.3299445    2.2891362    1.0364083 
H    -1.0421025    3.4349251    3.2954221 
H     0.4073765    3.7654333    2.3454880 
H    -0.5407613    2.7204471    0.3521892 
H    -1.6741233    3.9191355    0.9754205 
H     3.3575384    0.8720649    0.9296945 
H     1.9119700   -0.0692071    4.0035099 
H    -3.5362224   -1.3394435   -0.4602657 
H    -3.0020264    2.2735133   -1.2545278 
H     3.6641553    1.4898588    3.3732415 
H     4.3482620    2.7164468    2.2803134 
H     2.7929385    3.0255663    3.0868977 
H     1.7902133    2.2461998   -0.5145387 
H     3.3196432    3.0689914   -0.1127505 
H     1.8172013    3.5350959    0.7258949 
H     3.3037155   -2.0464300    3.5857491 
H     2.8275764   -2.1017211    1.8753061 
H     3.8389713   -0.7588539    2.4763065 
H    -0.3664063   -1.1276913    3.6845045 
H     0.8458564   -2.3284575    4.1934920 
H     0.3327189   -2.2477998    2.4829984 
H    -2.7172474   -1.2011813    2.5186644 
H    -3.6716638   -2.5046269    1.7682400 
H    -1.9745383   -2.2347834    1.2684676 
H    -5.1052738    0.6168018    0.1326708 
H    -4.7033959    0.3562914    1.8528243 
H    -5.5306079   -0.9189818    0.9280780 
H    -0.8020958    0.7196666   -2.7606626 
H    -1.5582043    2.2498629   -3.2853657 
H    -0.5376332    2.2140686   -1.8203122 
H    -3.2145403   -0.4453687   -2.7090413 
H    -3.7743262    1.1164673   -3.3477881 
H    -4.5404933    0.4321812   -1.8971621 
