83
Energy =
C    -0.3582051   -1.9944826   -1.6734019 
C     1.0177494   -1.6407433   -1.7352531 
C     1.8761370   -1.8536124   -0.6320573 
H     1.3909970   -1.0964210   -2.6111131 
Pd    0.1373053   -0.4426069   -0.1003335 
P     1.2628887    0.9066814    1.4740254 
P    -2.1421899    0.1364693    0.2371093 
H    -0.6281548   -2.8070910   -0.9825623 
H     1.5384322   -2.5806928    0.1218697 
C    -3.2319038   -1.3358534   -4.8153318 
C    -3.4326852   -2.3457096   -3.8624749 
C    -2.4799971   -2.5635301   -2.8590597 
C    -1.3121395   -1.7693221   -2.7769230 
C    -1.1136089   -0.7726032   -3.7610028 
C    -2.0617299   -0.5591429   -4.7662298 
H    -3.9754892   -1.1619397   -5.5996040 
H    -4.3293788   -2.9724120   -3.9059501 
H    -2.6342066   -3.3707220   -2.1335669 
H    -0.2210338   -0.1394507   -3.7269818 
H    -1.8915822    0.2221848   -5.5142201 
C     6.1319654   -1.2195150   -0.5270225 
C     5.3887679   -0.7466258   -1.6215816 
C     4.0031042   -0.9316355   -1.6682788 
C     3.3270814   -1.5997518   -0.6200197 
C     4.0928985   -2.0885018    0.4647328 
C     5.4785117   -1.8951513    0.5151066 
H     7.2159038   -1.0711313   -0.4931234 
H     5.8941097   -0.2305176   -2.4442011 
H     3.4473370   -0.5569632   -2.5334978 
H     3.5905008   -2.6360981    1.2704099 
H     6.0518354   -2.2816459    1.3639052 
C     0.1861259    2.0768865    2.4322860 
C    -2.6605170    1.1606876    1.7037997 
C    -0.7457887    2.9030705    1.5127911 
C    -2.2399635    2.6413487    1.7485365 
C     2.4996376    2.1081277    0.6754939 
C     2.1727860   -0.0550367    2.8036165 
C    -3.0167868   -1.5009269    0.5693371 
C    -2.9427462    0.9167101   -1.2745014 
C     2.1547166    2.3090743   -0.8131303 
C     3.9763025    1.7163154    0.8564270 
C     1.3299158   -1.2645138    3.2492124 
C     2.6099053    0.7978040    4.0098208 
C    -2.3304369   -2.2178379    1.7488868 
C    -4.5444514   -1.4614915    0.7393079 
C    -4.3300646    1.5459005   -1.0479209 
C    -1.9809124    1.9282463   -1.9285661 
H    -0.3867036    1.4760304    3.1611976 
H     0.8490540    2.7316987    3.0231394 
H    -2.2663806    0.6194170    2.5830998 
H    -3.7607569    1.0911895    1.7678945 
H    -0.5457480    3.9795613    1.6485502 
H    -0.5153933    2.6856887    0.4529246 
H    -2.8210567    3.2175789    1.0071897 
H    -2.5325761    3.0376258    2.7391465 
H     2.3267789    3.0634057    1.2066358 
H     3.0713394   -0.4309542    2.2814270 
H    -2.7969121   -2.0656248   -0.3528521 
H    -3.0478875    0.0541529   -1.9585988 
H     1.1118508    2.6361274   -0.9612995 
H     2.8172618    3.0767090   -1.2510357 
H     2.2999823    1.3708855   -1.3766237 
H     4.2809388    1.6932775    1.9142651 
H     4.6086896    2.4648708    0.3467556 
H     4.1993896    0.7361254    0.4092464 
H     1.8820077   -1.8513031    4.0046339 
H     0.3743093   -0.9496542    3.7064133 
H     1.0950651   -1.9307001    2.4016954 
H     3.1466242    1.7146628    3.7138564 
H     3.2870256    0.2066481    4.6515916 
H     1.7441313    1.0925483    4.6274127 
H    -1.2350567   -2.2674941    1.6120880 
H    -2.5306279   -1.7108133    2.7095752 
H    -2.7145763   -3.2495691    1.8348812 
H    -5.0536631   -1.1177246   -0.1745837 
H    -4.8594938   -0.8222135    1.5822891 
H    -4.9073383   -2.4831193    0.9524329 
H    -4.2708565    2.4408075   -0.4053500 
H    -4.7400244    1.8684642   -2.0214799 
H    -5.0530063    0.8496133   -0.5979553 
H    -0.9638597    1.5129771   -2.0328071 
H    -1.9148260    2.8598387   -1.3395860 
H    -2.3486474    2.1934389   -2.9349353 
