83
Energy =
C    -0.3704254   -2.1613124   -1.6414116 
C     0.9932350   -1.7780940   -1.7564236 
C     1.8948804   -1.9398352   -0.6755960 
H     1.3209953   -1.2352077   -2.6512905 
Pd    0.1540325   -0.5745054   -0.1087261 
P     1.3609814    0.7627419    1.4104225 
P    -2.0874895    0.1004084    0.2518403 
H    -0.6037396   -2.9566534   -0.9173386 
H     1.6285850   -2.6895153    0.0848388 
C    -3.3948318   -1.5950781   -4.6580140 
C    -2.2180597   -0.8276854   -4.6981163 
C    -1.2204483   -1.0126123   -3.7360210 
C    -1.3740976   -1.9710070   -2.7066386 
C    -2.5497821   -2.7579030   -2.7000570 
C    -3.5522722   -2.5680899   -3.6598197 
H    -4.1770218   -1.4431571   -5.4085675 
H    -2.0812652   -0.0759709   -5.4824124 
H    -0.3230049   -0.3868589   -3.7735676 
H    -2.6708459   -3.5375328   -1.9389947 
H    -4.4540425   -3.1884379   -3.6337679 
C     6.0600537   -0.8513832   -0.6001730 
C     5.2473682   -0.4086401   -1.6576962 
C     3.8958223   -0.7646004   -1.7082986 
C     3.3209119   -1.5679833   -0.6957050 
C     4.1606233   -2.0332789    0.3437412 
C     5.5132782   -1.6753108    0.3953711 
H     7.1169424   -0.5688658   -0.5629236 
H     5.6723290    0.2168224   -2.4495309 
H     3.2836287   -0.4031900   -2.5399430 
H     3.7426145   -2.6913902    1.1143633 
H     6.1440644   -2.0465817    1.2095757 
C     0.3962112    2.0510103    2.3272135 
C    -2.5110395    1.1921332    1.6998028 
C    -0.5366923    2.8589060    1.3929292 
C    -2.0321527    2.6565785    1.6781497 
C     2.7120506    1.7003365    0.4867273 
C     2.2116951   -0.2450317    2.7486324 
C    -3.0382793   -1.4797432    0.6381118 
C    -2.8744250    0.8745019   -1.2697216 
C     3.3020435    2.9180161    1.2188218 
C     2.2393502    2.0957095   -0.9267334 
C     1.2708569   -1.3692736    3.2223613 
C     2.7596324    0.5592626    3.9414981 
C    -2.4051884   -2.1770853    1.8578567 
C    -4.5653611   -1.3650375    0.7741990 
C    -4.2224874    1.5831143   -1.0386349 
C    -1.8768944    1.8125316   -1.9778665 
H    -0.1722712    1.5219392    3.1132857 
H     1.1094437    2.7057509    2.8551466 
H    -2.1026206    0.6647751    2.5812043 
H    -3.6098641    1.1694995    1.8090791 
H    -0.3014854    3.9342376    1.4724610 
H    -0.3391431    2.5844577    0.3397881 
H    -2.6129251    3.2272807    0.9324323 
H    -2.2820242    3.0988360    2.6610551 
H     3.4983916    0.9294815    0.3806054 
H     3.0614485   -0.7023718    2.2093616 
H    -2.8262488   -2.0913928   -0.2558954 
H    -3.0375308   -0.0047165   -1.9211364 
H     3.6886761    2.6737694    2.2204661 
H     4.1445559    3.3200314    0.6284434 
H     2.5584671    3.7280768    1.3210085 
H     1.7570064    1.2494553   -1.4470630 
H     3.1039937    2.4251284   -1.5291913 
H     1.5166051    2.9295240   -0.8929097 
H     1.7799978   -1.9960067    3.9759180 
H     0.3555221   -0.9645168    3.6914827 
H     0.9628782   -2.0197078    2.3858354 
H     3.4777737    1.3359682    3.6360484 
H     3.2870384   -0.1262488    4.6285713 
H     1.9496743    1.0410121    4.5162402 
H    -2.6018178   -1.6255495    2.7944101 
H    -2.8344719   -3.1877258    1.9749542 
H    -1.3112319   -2.2790388    1.7442931 
H    -5.0410706   -1.0523552   -0.1685815 
H    -4.8672480   -0.6653839    1.5730413 
H    -4.9773263   -2.3562044    1.0364246 
H    -4.1016945    2.4966112   -0.4319918 
H    -4.6373210    1.8909787   -2.0149138 
H    -4.9701619    0.9437449   -0.5470093 
H    -0.8805399    1.3486488   -2.0777243 
H    -1.7591785    2.7628177   -1.4284436 
H    -2.2476363    2.0539728   -2.9891630 
