83
Energy =
C    -0.4001807   -2.1822686   -1.6106371 
C     0.9324236   -1.7147730   -1.7286285 
C     1.8515418   -1.8000149   -0.6538672 
H     1.2300743   -1.1849670   -2.6414412 
Pd    0.0454647   -0.5073316   -0.0982727 
P     1.2395230    0.7526596    1.5184172 
P    -2.1583420    0.2935423    0.2018527 
H    -0.5946579   -2.9437068   -0.8410529 
H     1.6451911   -2.5546104    0.1202168 
C    -3.3138181   -2.1239483   -4.7822098 
C    -2.2145498   -1.2500016   -4.8312207 
C    -1.2574067   -1.2615552   -3.8120428 
C    -1.3772740   -2.1472122   -2.7144971 
C    -2.4768676   -3.0363227   -2.6922540 
C    -3.4363267   -3.0230518   -3.7120410 
H    -4.0639632   -2.1100092   -5.5793229 
H    -2.1061281   -0.5525732   -5.6683168 
H    -0.4214637   -0.5564842   -3.8596955 
H    -2.5728916   -3.7498244   -1.8673603 
H    -4.2786829   -3.7214392   -3.6746134 
C     5.9655657   -0.5259107   -0.7614147 
C     5.5219758   -1.4384307    0.2072992 
C     4.1849477   -1.8552441    0.2177091 
C     3.2576022   -1.3607403   -0.7299133 
C     3.7296115   -0.4647890   -1.7180379 
C     5.0653939   -0.0517646   -1.7310805 
H     7.0095091   -0.1968362   -0.7718802 
H     6.2209647   -1.8345169    0.9510247 
H     3.8524898   -2.5884611    0.9616837 
H     3.0447660   -0.0695538   -2.4743526 
H     5.4085320    0.6466271   -2.5013484 
C     0.3129308    1.9210354    2.6284338 
C    -2.3543488    1.9511312    1.0304981 
C    -0.2969632    3.1802953    1.9818415 
C    -1.1988876    2.9412689    0.7622959 
C     2.6465094    1.7364696    0.7465645 
C     2.0340647   -0.4684498    2.7131695 
C    -3.2986293   -0.7975322    1.2186896 
C    -3.0329065    0.5473129   -1.4388201 
C     3.2940618    2.8109700    1.6401711 
C     2.2180502    2.3352675   -0.6078810 
C     0.9904999   -1.4907540    3.1996493 
C     2.8254888    0.1202175    3.8933229 
C    -3.5915876   -2.1322988    0.5174663 
C    -2.7344018   -1.0328064    2.6300144 
C    -4.5277650    0.8910523   -1.3325972 
C    -2.2632531    1.5826565   -2.2799616 
H    -0.4695382    1.3061727    3.1097603 
H     1.0062633    2.2269713    3.4316331 
H    -2.4785454    1.7712816    2.1125550 
H    -3.3192526    2.3584074    0.6827465 
H    -0.8776682    3.7030768    2.7653773 
H     0.5111870    3.8746778    1.6925778 
H    -0.5844225    2.5800259   -0.0832481 
H    -1.6127624    3.9127842    0.4407829 
H     3.3944389    0.9469181    0.5461455 
H     2.7464191   -0.9897686    2.0491971 
H    -4.2371289   -0.2155838    1.3016129 
H    -2.9349616   -0.4335310   -1.9354407 
H     3.6559003    2.4140664    2.6000312 
H     4.1627591    3.2399339    1.1097719 
H     2.5986725    3.6401495    1.8534788 
H     1.6742537    1.5987895   -1.2257772 
H     3.1112340    2.6630905   -1.1676794 
H     1.5660916    3.2153991   -0.4726136 
H     1.4899137   -2.2912521    3.7736608 
H     0.2429753   -1.0241717    3.8651614 
H     0.4540430   -1.9572631    2.3538334 
H     3.6750016    0.7375715    3.5636930 
H     3.2378647   -0.7085848    4.4963363 
H     2.1890422    0.7241566    4.5632028 
H    -4.0200984   -1.9999177   -0.4890562 
H    -2.6683971   -2.7301155    0.4220845 
H    -4.3097475   -2.7186667    1.1172096 
H    -2.5156915   -0.0931728    3.1658317 
H    -1.8069423   -1.6269826    2.5844688 
H    -3.4678067   -1.5936298    3.2355431 
H    -4.7001678    1.8512145   -0.8140163 
H    -4.9468327    0.9908315   -2.3496198 
H    -5.1065078    0.1087687   -0.8141629 
H    -1.1822155    1.3563767   -2.3125577 
H    -2.3898209    2.6050326   -1.8821078 
H    -2.6434387    1.5746197   -3.3159748 
