83
Energy =
C    -0.4971774   -2.0516637   -1.7088367 
C     0.9078652   -1.7922326   -1.6686574 
C     1.6704534   -2.0806384   -0.5185219 
H     1.3754046   -1.2588132   -2.5058046 
Pd   -0.0291534   -0.5526461   -0.1015571 
P     1.2707139    1.0146828    1.1142764 
P    -2.2356422    0.1462164    0.3248145 
H    -0.8579008   -2.9064778   -1.1204205 
H     1.2176135   -2.7598454    0.2204066 
C    -2.9595958   -0.9649876   -5.0783023 
C    -1.8368360   -0.1872399   -4.7495353 
C    -1.0304421   -0.5395170   -3.6624381 
C    -1.3251159   -1.6785946   -2.8759647 
C    -2.4462165   -2.4617917   -3.2323819 
C    -3.2562111   -2.1071206   -4.3190024 
H    -3.5941124   -0.6860853   -5.9255930 
H    -1.5942149    0.7028588   -5.3393208 
H    -0.1756288    0.0941243   -3.4017548 
H    -2.6781198   -3.3640584   -2.6573087 
H    -4.1186752   -2.7298172   -4.5782916 
C     5.9123838   -1.6000746    0.0102520 
C     5.1339876   -2.2452472    0.9836782 
C     3.7562814   -2.3989230    0.7905407 
C     3.1234419   -1.9058758   -0.3750699 
C     3.9272093   -1.2775071   -1.3575250 
C     5.3040215   -1.1248150   -1.1637430 
H     6.9905688   -1.4807560    0.1571786 
H     5.6032732   -2.6359213    1.8923426 
H     3.1542647   -2.9077950    1.5513989 
H     3.4767395   -0.9098283   -2.2851532 
H     5.9091788   -0.6387383   -1.9358017 
C     0.4565281    2.5742772    1.7235609 
C    -2.4658160    1.4812219    1.6041344 
C    -0.4816726    2.4623388    2.9391850 
C    -1.5443418    1.3601649    2.8410365 
C     2.4958611    1.6577419   -0.1620816 
C     2.3129053    0.3135669    2.5137388 
C    -3.3189736   -1.2283838    1.0266691 
C    -3.1461954    0.8109499   -1.1713165 
C     3.6059037    2.5898422    0.3499023 
C     1.7426269    2.2620851   -1.3622150 
C     1.5692006   -0.8178041    3.2489997 
C     2.8805779    1.3430054    3.5096680 
C    -3.6872908   -2.2986577   -0.0102360 
C    -2.6795832   -1.8712596    2.2723983 
C    -4.6282314    1.1393575   -0.9192827 
C    -2.3797211    2.0154902   -1.7483552 
H     1.2563793    3.3053809    1.9374163 
H    -0.0927407    2.9605494    0.8450066 
H    -3.5298708    1.4569385    1.8976013 
H    -2.3130507    2.4470262    1.0906662 
H     0.1133373    2.2951995    3.8536292 
H    -0.9765322    3.4428398    3.0731139 
H    -2.1570617    1.3774505    3.7588690 
H    -1.0332319    0.3796330    2.8356761 
H     2.9778093    0.7229374   -0.5009348 
H     3.1535066   -0.1424925    1.9561222 
H    -4.2434247   -0.7019845    1.3344716 
H    -3.0780620   -0.0146482   -1.9031246 
H     4.2590687    2.0904546    1.0833204 
H     4.2424016    2.8907228   -0.5017079 
H     3.2060245    3.5147641    0.8017293 
H     0.9668482    1.5699434   -1.7374502 
H     2.4512149    2.4623319   -2.1852809 
H     1.2538477    3.2187934   -1.1066045 
H     2.2686718   -1.3580346    3.9113643 
H     0.7547096   -0.4226621    3.8808805 
H     1.1293299   -1.5434837    2.5428788 
H     3.3948395    2.1824194    3.0184546 
H     3.6117743    0.8432419    4.1698244 
H     2.0884917    1.7582651    4.1547705 
H    -2.8077789   -2.9059766   -0.2774735 
H    -4.4401401   -2.9803235    0.4235657 
H    -4.1083977   -1.8761159   -0.9364139 
H    -2.5702604   -1.1619719    3.1075967 
H    -1.6813545   -2.2841215    2.0354575 
H    -3.3152528   -2.7024988    2.6254587 
H    -4.7481906    1.9552121   -0.1849178 
H    -5.0914866    1.4756179   -1.8638838 
H    -5.2007909    0.2660929   -0.5646431 
H    -1.3096040    1.7863677   -1.8826369 
H    -2.4651813    2.9045217   -1.0977402 
H    -2.7959789    2.2828017   -2.7347715 
