83
Energy =
C    -0.2404331   -2.4016893   -1.2408241 
C     0.9245067   -1.7284091   -1.6461167 
C     1.9956951   -1.4809682   -0.7213477 
H     0.9824160   -1.3078592   -2.6583586 
Pd    0.1925557   -0.3948799   -0.0308987 
P     1.2372980    0.6695934    1.7897626 
P    -1.9011791    0.7054273   -0.1332265 
H    -0.2138293   -2.8885341   -0.2530611 
H     2.1689598   -2.2516425    0.0412936 
C    -3.5608934   -3.6750368   -3.6510666 
C    -3.5646139   -3.8730838   -2.2614041 
C    -2.4712037   -3.4579985   -1.4938687 
C    -1.3591235   -2.8188627   -2.0937542 
C    -1.3587001   -2.6553826   -3.4999792 
C    -2.4486909   -3.0760592   -4.2669587 
H    -4.4119441   -4.0038550   -4.2560517 
H    -4.4164506   -4.3618698   -1.7776698 
H    -2.4712997   -3.6266397   -0.4117335 
H    -0.4939996   -2.2102014   -4.0017920 
H    -2.4292617   -2.9459516   -5.3537464 
C     5.4451902    0.8769431   -1.7937789 
C     4.1823710    1.1977284   -2.3184867 
C     3.0648969    0.4265508   -1.9825277 
C     3.1799283   -0.6833861   -1.1121208 
C     4.4612504   -1.0063009   -0.6109990 
C     5.5803147   -0.2325977   -0.9452624 
H     6.3193101    1.4832634   -2.0519034 
H     4.0679212    2.0576948   -2.9866033 
H     2.0808863    0.7033599   -2.3779224 
H     4.5828871   -1.8788640    0.0384736 
H     6.5639782   -0.5017906   -0.5467248 
C     0.1355717    1.7086248    2.8783960 
C    -2.2336444    2.1782823    0.9630521 
C    -1.2779530    1.1214944    3.1170426 
C    -2.4052626    1.9394961    2.4715119 
C     2.6452659    1.8204158    1.3422198 
C     1.9347615   -0.5433868    3.0593401 
C    -3.3958170   -0.4156852    0.0020987 
C    -2.0796231    1.5502986   -1.8115125 
C     3.3637812    2.4401172    2.5539894 
C     2.1424737    2.8931897    0.3593719 
C     3.2538865   -1.2071636    2.6390663 
C     0.8904329   -1.6068680    3.4493196 
C    -3.3191154   -1.3154978    1.2497078 
C    -4.7467966    0.3093357   -0.1149399 
C    -0.9129306    2.5233151   -2.0616321 
C    -2.1924799    0.5429357   -2.9627178 
H     0.6737693    1.8475164    3.8320808 
H     0.0766935    2.7089012    2.4139980 
H    -3.1267419    2.6869783    0.5568082 
H    -1.3825633    2.8587385    0.7799097 
H    -1.3271130    0.0883981    2.7257963 
H    -1.4672278    1.0451306    4.2016007 
H    -2.4729313    2.9286716    2.9626199 
H    -3.3702114    1.4381631    2.6652953 
H     3.3489403    1.1659360    0.7947119 
H     2.1326332    0.0978122    3.9401949 
H    -3.2682171   -1.0717799   -0.8794016 
H    -3.0190643    2.1320863   -1.7412211 
H     3.7633998    1.6800380    3.2459769 
H     4.2167687    3.0463293    2.2006068 
H     2.6967253    3.1107139    3.1235291 
H     1.6204762    2.4371877   -0.4965488 
H     2.9985488    3.4696949   -0.0316179 
H     1.4549128    3.6075955    0.8479601 
H     3.6781461   -1.7438704    3.5060667 
H     3.0874965   -1.9509445    1.8443521 
H     4.0095381   -0.4881124    2.2852093 
H    -0.0076888   -1.1710575    3.9142786 
H     1.3323832   -2.3107178    4.1765556 
H     0.5728342   -2.1881978    2.5635837 
H    -3.5248143   -0.7543720    2.1764977 
H    -4.0741921   -2.1180858    1.1764187 
H    -2.3243645   -1.7861795    1.3478488 
H    -4.8241687    0.9051313   -1.0402588 
H    -4.9271001    0.9789380    0.7442994 
H    -5.5644971   -0.4332583   -0.1313359 
H     0.0421472    1.9715506   -2.1265998 
H    -1.0667757    3.0490319   -3.0203510 
H    -0.8130410    3.2895438   -1.2753887 
H    -3.0254814   -0.1681005   -2.8397962 
H    -1.2607115   -0.0385293   -3.0554432 
H    -2.3498019    1.0815160   -3.9138924 
