83
Energy =
C    -0.4426754   -2.2970829   -1.4131686 
C     0.8606981   -1.8094866   -1.6553912 
C     1.8354395   -1.7460229   -0.6228109 
H     1.0985374   -1.3894353   -2.6401883 
Pd    0.0615192   -0.4226682   -0.1185960 
P     1.2927374    0.9091226    1.3997911 
P    -2.1097917    0.4804877    0.1372636 
H    -0.5804295   -2.9153221   -0.5134725 
H     1.7057252   -2.4371092    0.2229592 
C    -3.5011663   -2.9367843   -4.3735336 
C    -2.4160297   -2.0942348   -4.6695462 
C    -1.4160845   -1.8691941   -3.7190669 
C    -1.4763594   -2.4815642   -2.4454979 
C    -2.5665185   -3.3416504   -2.1701301 
C    -3.5696919   -3.5646010   -3.1208963 
H    -4.2826533   -3.1095666   -5.1203723 
H    -2.3511567   -1.6095591   -5.6491058 
H    -0.5842552   -1.2032646   -3.9702331 
H    -2.6178940   -3.8459982   -1.1983783 
H    -4.4018752   -4.2363830   -2.8867890 
C     5.8931923   -0.3821140   -1.1198404 
C     5.5451752   -1.2260771   -0.0545649 
C     4.2255557   -1.6746514    0.0829294 
C     3.2206099   -1.2807775   -0.8318944 
C     3.5956974   -0.4537593   -1.9166134 
C     4.9143202   -0.0093301   -2.0565717 
H     6.9232338   -0.0283096   -1.2294050 
H     6.3053910   -1.5437653    0.6664327 
H     3.9672475   -2.3541579    0.9034556 
H     2.8476972   -0.1357133   -2.6493561 
H     5.1816594    0.6349908   -2.9005427 
C     0.4030420    2.2131737    2.3804944 
C    -2.5110880    1.3316041    1.7475818 
C    -0.6118012    1.7491923    3.4433897 
C    -1.7190792    0.7989859    2.9627051 
C     2.6399964    1.8672441    0.4905738 
C     2.1838310   -0.2001895    2.6313312 
C    -3.4256330   -0.8525484    0.0415194 
C    -2.5972274    1.7465938   -1.1569342 
C     3.3146513    3.0150496    1.2639940 
C     2.1114622    2.3805707   -0.8613528 
C     1.2688351   -1.3254616    3.1551464 
C     2.9067457    0.5132697    3.7878419 
C    -3.2319990   -1.8654877    1.1852093 
C    -4.8724057   -0.3372532   -0.0283191 
C    -1.6855135    2.9835008   -1.1029037 
C    -2.5875455    1.1172948   -2.5586363 
H     1.1745069    2.8318835    2.8712383 
H    -0.0798027    2.8613858    1.6258497 
H    -3.5979673    1.2123042    1.8973087 
H    -2.3452154    2.4142138    1.6104545 
H    -0.0733449    1.2733172    4.2821019 
H    -1.0789528    2.6595055    3.8646696 
H    -2.4111943    0.6226190    3.8045132 
H    -1.2821271   -0.1876281    2.7200872 
H     3.3907301    1.0804739    0.2928115 
H     2.9476508   -0.6618509    1.9791939 
H    -3.1961006   -1.3630239   -0.9098463 
H    -3.6282669    2.0508405   -0.8926798 
H     3.7209196    2.7047854    2.2385873 
H     4.1568795    3.4007341    0.6625165 
H     2.6196755    3.8565459    1.4293894 
H     1.5755832    1.5919555   -1.4182714 
H     2.9543373    2.7303838   -1.4825327 
H     1.4233125    3.2323122   -0.7195655 
H     1.8827739   -2.1065519    3.6376565 
H     0.5562441   -0.9549360    3.9109640 
H     0.6881840   -1.7976010    2.3420878 
H     3.6970192    1.1927287    3.4344760 
H     3.3884476   -0.2425632    4.4337882 
H     2.2101929    1.0894644    4.4210333 
H    -3.5033140   -1.4319927    2.1641669 
H    -3.8820888   -2.7430161    1.0216702 
H    -2.1873992   -2.2202933    1.2473390 
H    -5.0491229    0.3023635   -0.9086522 
H    -5.1602171    0.2283881    0.8761200 
H    -5.5592383   -1.1991329   -0.1048001 
H    -0.6437253    2.7095618   -1.3365818 
H    -2.0188292    3.7235692   -1.8515344 
H    -1.7018076    3.4834434   -0.1191983 
H    -3.2496989    0.2400138   -2.6407766 
H    -1.5662592    0.7941501   -2.8253225 
H    -2.9159110    1.8600897   -3.3067691 
