83
Energy =
C    -0.3513700   -2.0480710   -1.5692150 
C     0.9355432   -1.5082854   -1.7882592 
C     1.9472951   -1.5726010   -0.7952990 
H     1.1337097   -0.9548328   -2.7138380 
Pd    0.1468703   -0.3656714   -0.0593080 
P     1.2882189    0.8307638    1.6378585 
P    -2.0969016    0.3347542    0.3028051 
H    -0.4458271   -2.7887948   -0.7615214 
H     1.8541979   -2.3728842   -0.0472476 
C    -3.4485612   -2.4121849   -4.5361937 
C    -2.3651533   -1.5478689   -4.7681096 
C    -1.3587795   -1.4027490   -3.8079823 
C    -1.4089219   -2.1252426   -2.5921374 
C    -2.4965464   -3.0056961   -2.3824820 
C    -3.5086907   -3.1433699   -3.3401770 
H    -4.2362253   -2.5205400   -5.2884794 
H    -2.3073598   -0.9814564   -5.7031369 
H    -0.5278970   -0.7193377   -4.0095626 
H    -2.5355899   -3.5990418   -1.4616544 
H    -4.3407536   -3.8310105   -3.1576805 
C     5.9798031   -0.1701124   -1.3613397 
C     4.9360972    0.3862197   -2.1199541 
C     3.6226692   -0.0618159   -1.9488743 
C     3.3200389   -1.0783876   -1.0122239 
C     4.3847655   -1.6438011   -0.2725306 
C     5.6994403   -1.1925817   -0.4422158 
H     7.0064733    0.1858916   -1.4936037 
H     5.1483583    1.1784112   -2.8454171 
H     2.8203274    0.4028272   -2.5312331 
H     4.1761677   -2.4513132    0.4368114 
H     6.5086519   -1.6450337    0.1401418 
C     0.4543803    2.3168038    2.3963160 
C    -2.4267153    1.4371802    1.7695244 
C    -0.4523738    3.1051983    1.4270114 
C    -1.9515844    2.8988377    1.6841047 
C     2.9173489    1.5522872    1.0498513 
C     1.6953131   -0.2025587    3.1523183 
C    -3.2181481   -1.1393343    0.6418828 
C    -2.8848110    1.3052923   -1.1247557 
C     3.8054635    2.1412680    2.1583199 
C     2.6538475    2.5688816   -0.0766513 
C     2.7495493   -1.2805892    2.8608284 
C     0.4196248   -0.8299185    3.7410299 
C    -2.5386486   -2.1514810    1.5816964 
C    -4.6270856   -0.7844214    1.1550410 
C    -1.7821284    1.9565691   -1.9814385 
C    -3.8596104    0.5013233   -2.0031142 
H    -0.1107208    1.9747531    3.2806323 
H     1.2671337    2.9522201    2.7878829 
H    -1.9810606    0.9243406    2.6410501 
H    -3.5187834    1.4330451    1.9291530 
H    -0.2296137    4.1834927    1.5056316 
H    -0.2149036    2.8236983    0.3848165 
H    -2.5258052    3.4321163    0.9045298 
H    -2.2235256    3.3840587    2.6407233 
H     3.4391502    0.6858806    0.6099829 
H     2.1091849    0.5218618    3.8806215 
H    -3.3062970   -1.5985740   -0.3593735 
H    -3.4593903    2.1052619   -0.6206526 
H     4.0697770    1.3991082    2.9296247 
H     4.7484692    2.4999178    1.7089714 
H     3.3339482    3.0067223    2.6574030 
H     1.9743179    2.1574417   -0.8443120 
H     3.6057893    2.8282539   -0.5707928 
H     2.2112110    3.5024402    0.3134517 
H     3.0107884   -1.8067077    3.7958509 
H     2.3531566   -2.0314357    2.1558518 
H     3.6774292   -0.8657736    2.4355558 
H    -0.3467295   -0.0776217    3.9953226 
H     0.6643569   -1.3764852    4.6686171 
H    -0.0239076   -1.5469619    3.0290819 
H    -2.4297467   -1.7423648    2.6013728 
H    -3.1544852   -3.0654196    1.6562980 
H    -1.5360390   -2.4407280    1.2219093 
H    -5.1071785    0.0250146    0.5806751 
H    -4.6030714   -0.4840438    2.2167707 
H    -5.2759783   -1.6751716    1.0817748 
H    -1.1751166    1.1833252   -2.4842596 
H    -2.2368721    2.5956548   -2.7587578 
H    -1.1016624    2.5842425   -1.3826278 
H    -4.7287258    0.1265921   -1.4417307 
H    -3.3668070   -0.3520740   -2.4902446 
H    -4.2427644    1.1623968   -2.8007097 
