83
Energy =
C    -0.2985311   -2.0130746   -1.6631882 
C     1.0652321   -1.6159076   -1.7308791 
C     1.9329034   -1.7970655   -0.6293087 
H     1.4184784   -1.0636583   -2.6100446 
Pd    0.1515404   -0.4394919   -0.0982396 
P     1.2381383    0.9526494    1.4667395 
P    -2.1442558    0.0696695    0.2417329 
H    -0.5402146   -2.8306420   -0.9677030 
H     1.6202997   -2.5313338    0.1284623 
C    -3.2031804   -1.4595986   -4.7969824 
C    -2.0576507   -0.6465215   -4.7561504 
C    -1.0994004   -0.8255113   -3.7537825 
C    -1.2628930   -1.8232781   -2.7642888 
C    -2.4055655   -2.6540801   -2.8382666 
C    -3.3685004   -2.4708493   -3.8387944 
H    -3.9548841   -1.3126888   -5.5790369 
H    -1.9149484    0.1362518   -5.5083498 
H    -0.2270056   -0.1645432   -3.7262653 
H    -2.5315828   -3.4624240   -2.1086334 
H    -4.2452012   -3.1256304   -3.8759095 
C     6.1668163   -1.0284935   -0.5380323 
C     5.5375016   -1.7195180    0.5088685 
C     4.1585477   -1.9565387    0.4630173 
C     3.3750914   -1.4972327   -0.6220067 
C     4.0271616   -0.8129868   -1.6750275 
C     5.4064169   -0.5841594   -1.6327388 
H     7.2456388   -0.8460018   -0.5076551 
H     6.1248054   -2.0838248    1.3579198 
H     3.6755826   -2.5157961    1.2725574 
H     3.4577759   -0.4601345   -2.5405803 
H     5.8932384   -0.0561958   -2.4589950 
C     0.1278883    2.0939068    2.4217329 
C    -2.6899329    1.0836691    1.7055706 
C    -0.8323012    2.8850910    1.5004749 
C    -2.3168162    2.5772236    1.7417210 
C     2.4351040    2.1878434    0.6591578 
C     2.1807656    0.0262847    2.7987922 
C    -2.9670147   -1.5923863    0.5837087 
C    -2.9724331    0.8182262   -1.2710135 
C     2.0813599    2.3699936   -0.8297910 
C     3.9237702    1.8436770    0.8392065 
C     1.3781628   -1.2078502    3.2512114 
C     2.5923869    0.8980900    4.0004087 
C    -2.2643918   -2.2761138    1.7733808 
C    -4.4961935   -1.6012951    0.7439079 
C    -4.3777900    1.4056244   -1.0430427 
C    -2.0439416    1.8558941   -1.9322960 
H    -0.4235626    1.4797977    3.1560731 
H     0.7718147    2.7726385    3.0066076 
H    -2.2749261    0.5597931    2.5857361 
H    -3.7871265    0.9790037    1.7746931 
H    -0.6662711    3.9681157    1.6300503 
H    -0.5977933    2.6695759    0.4410811 
H    -2.9179068    3.1310099    0.9992457 
H    -2.6191359    2.9689135    2.7312263 
H     2.2335043    3.1400832    1.1855754 
H     3.0900354   -0.3228621    2.2765209 
H    -2.7234387   -2.1578738   -0.3319116 
H    -3.0529878   -0.0501376   -1.9510898 
H     1.0290463    2.6653487   -0.9774424 
H     2.7201409    3.1543260   -1.2733877 
H     2.2530287    1.4333190   -1.3882543 
H     4.2307784    1.8350389    1.8965858 
H     4.5312181    2.6096421    0.3250834 
H     4.1770741    0.8690774    0.3959252 
H     1.9502559   -1.7728857    4.0082996 
H     0.4135189   -0.9221468    3.7085626 
H     1.1639075   -1.8852178    2.4070732 
H     3.0989854    1.8303093    3.6993374 
H     3.2891517    0.3318422    4.6436332 
H     1.7186376    1.1678166    4.6182068 
H    -2.4901682   -1.7701647    2.7289320 
H    -2.6119669   -3.3203622    1.8637263 
H    -1.1669242   -2.2874302    1.6450437 
H    -5.0099962   -1.2856774   -0.1776295 
H    -4.8380075   -0.9625511    1.5768258 
H    -4.8266184   -2.6316934    0.9673087 
H    -4.3438573    2.3057453   -0.4059810 
H    -4.8007859    1.7096431   -2.0169962 
H    -5.0773979    0.6901590   -0.5864045 
H    -2.0057173    2.7920294   -1.3480301 
H    -2.4218744    2.1044936   -2.9391171 
H    -1.0146122    1.4720129   -2.0366782 
