83
Energy =
C    -0.4938786   -2.1667822   -1.3319434 
C     0.8159910   -1.7283000   -1.6453269 
C     1.8586154   -1.7765343   -0.6887654 
H     1.0032624   -1.2730665   -2.6258316 
Pd    0.1022358   -0.4143274   -0.0088755 
P     1.2954255    0.7873370    1.6700502 
P    -2.0212671    0.6225984    0.1411243 
H    -0.5876130   -2.8622227   -0.4839451 
H     1.7360670   -2.4854901    0.1427354 
C    -3.6485810   -2.5652221   -4.2317173 
C    -2.7235256   -1.5140593   -4.3537697 
C    -1.6961448   -1.3659337   -3.4160503 
C    -1.5804550   -2.2588614   -2.3260591 
C    -2.5147562   -3.3140975   -2.2187703 
C    -3.5348183   -3.4699315   -3.1660055 
H    -4.4503806   -2.6794380   -4.9681151 
H    -2.8043068   -0.8080684   -5.1868786 
H    -0.9846815   -0.5401447   -3.5223836 
H    -2.4329874   -4.0230537   -1.3872434 
H    -4.2450316   -4.2973046   -3.0689088 
C     5.9617843   -0.7531063   -1.5032991 
C     4.9419324   -0.2479850   -2.3277283 
C     3.6049049   -0.5636840   -2.0707952 
C     3.2521242   -1.3981382   -0.9842379 
C     4.2930641   -1.9179144   -0.1785555 
C     5.6323026   -1.5942029   -0.4302466 
H     7.0076187   -0.4999068   -1.7041832 
H     5.1928402    0.4017266   -3.1724951 
H     2.8250286   -0.1407619   -2.7128175 
H     4.0467859   -2.6014105    0.6424105 
H     6.4208992   -2.0097115    0.2054341 
C     0.3439470    1.3792758    3.1677216 
C    -2.1504613    1.9593948    1.4298148 
C    -1.0105152    0.6814042    3.4035622 
C    -2.2122532    1.4932441    2.8969795 
C     2.2935583    2.3024010    1.1895623 
C     2.5407795   -0.3854350    2.4503050 
C    -3.5736054   -0.4049230    0.5090558 
C    -2.3642294    1.5180199   -1.4803055 
C     1.3971731    3.4572023    0.7129432 
C     3.3461664    1.9521185    0.1282003 
C     1.7999870   -1.5736458    3.0931181 
C     3.5338959    0.2662684    3.4261337 
C    -4.4479310   -0.7323810   -0.7145108 
C    -3.1971599   -1.6798157    1.2862588 
C    -3.4841906    2.5725603   -1.4087045 
C    -1.0816314    2.1164540   -2.0849319 
H     1.0183129    1.2266460    4.0278265 
H     0.2113326    2.4718041    3.0820169 
H    -3.0623508    2.5396497    1.2042926 
H    -1.2942115    2.6364743    1.2621780 
H    -1.0003589   -0.3196907    2.9319689 
H    -1.1463353    0.5048503    4.4850665 
H    -2.3141001    2.4010124    3.5215682 
H    -3.1374905    0.9120652    3.0643256 
H     2.7978328    2.6120087    2.1253423 
H     3.1114808   -0.7561234    1.5825794 
H    -4.1620438    0.2502649    1.1795122 
H    -2.6925387    0.6885487   -2.1329012 
H     0.6820672    3.7903121    1.4841885 
H     2.0248846    4.3276435    0.4532083 
H     0.8317196    3.1695217   -0.1892468 
H     4.0081272    1.1242073    0.4318906 
H     3.9795267    2.8330282   -0.0769261 
H     2.8561604    1.6597014   -0.8153151 
H     2.5230940   -2.3580495    3.3785029 
H     1.2640399   -1.2706191    4.0103214 
H     1.0616388   -2.0219241    2.4033356 
H     4.1613742    1.0301877    2.9381361 
H     4.2113699   -0.5103687    3.8242619 
H     3.0295223    0.7311002    4.2923890 
H    -3.8975898   -1.3003288   -1.4785343 
H    -5.2969398   -1.3575608   -0.3849966 
H    -4.8685238    0.1688615   -1.1861209 
H    -2.5872351   -1.4631450    2.1789841 
H    -2.6266262   -2.3726028    0.6458504 
H    -4.1123439   -2.1999645    1.6197273 
H    -3.1470015    3.4792863   -0.8772044 
H    -3.7651526    2.8768997   -2.4326026 
H    -4.3955038    2.2016519   -0.9104374 
H    -0.2547777    1.3829744   -2.1049529 
H    -0.7408905    2.9954464   -1.5113205 
H    -1.2764543    2.4520857   -3.1189233 
