83
Energy =
C    -0.4069961   -2.3407174   -1.3505411 
C     0.8577639   -1.8018888   -1.6741287 
C     1.8899022   -1.7205651   -0.6946470 
H     1.0115895   -1.3488672   -2.6615032 
Pd    0.1157459   -0.4984120   -0.0552557 
P     1.3600251    0.6848177    1.5777528 
P    -1.9880700    0.5829935    0.0213354 
H    -0.4532111   -2.9899222   -0.4625890 
H     1.8694938   -2.4735933    0.1072078 
C    -3.6419997   -3.0121419   -4.1038328 
C    -2.7220309   -1.9796719   -4.3561322 
C    -1.6648843   -1.7442096   -3.4714406 
C    -1.5125753   -2.5292371   -2.3046870 
C    -2.4439565   -3.5661752   -2.0660518 
C    -3.4941502   -3.8100402   -2.9598145 
H    -4.4663489   -3.1952530   -4.8003679 
H    -2.8295707   -1.3576722   -5.2508040 
H    -0.9584023   -0.9350044   -3.6831145 
H    -2.3361731   -4.1887325   -1.1706491 
H    -4.2008535   -4.6218837   -2.7603448 
C     5.7486845    0.0858714   -1.3478327 
C     4.6556382    0.4639706   -2.1462113 
C     3.4030988   -0.1271252   -1.9539539 
C     3.2104023   -1.1128769   -0.9574950 
C     4.3279815   -1.5045604   -0.1840210 
C     5.5814210   -0.9076447   -0.3715821 
H     6.7266752    0.5547847   -1.4955864 
H     4.7806936    1.2294158   -2.9190740 
H     2.5592569    0.1987397   -2.5710977 
H     4.2142354   -2.2981017    0.5636410 
H     6.4319454   -1.2267635    0.2395379 
C     0.4434212    1.7049634    2.8343145 
C    -2.0723566    2.1147557    1.0791028 
C    -0.9429839    1.1421092    3.2194777 
C    -2.1167905    1.9191239    2.6056394 
C     2.6465070    1.8570646    0.8691733 
C     2.2576136   -0.6168367    2.5997130 
C    -3.5131236   -0.3979038    0.5681530 
C    -2.3714463    1.2466613   -1.6993682 
C     3.2451227    2.8686859    1.8659880 
C     2.0408556    2.5907846   -0.3417172 
C     1.2412623   -1.5899476    3.2297702 
C     3.2703650   -0.1038021    3.6357114 
C    -4.3774590   -0.9324768   -0.5876774 
C    -3.0877123   -1.5403194    1.5103403 
C    -3.5249560    2.2656817   -1.7592709 
C    -1.1048613    1.8059571   -2.3718844 
H     1.1028865    1.7888046    3.7154540 
H     0.3559096    2.7276423    2.4259344 
H    -2.9730702    2.6723055    0.7694219 
H    -1.2033557    2.7310108    0.7827788 
H    -1.0125849    0.0808493    2.9192617 
H    -1.0528374    1.1532495    4.3178183 
H    -2.1611307    2.9260225    3.0624172 
H    -3.0620547    1.4202490    2.8885142 
H     3.4444825    1.1815877    0.5082138 
H     2.8217935   -1.1606728    1.8234649 
H    -4.1162520    0.3300045    1.1439415 
H    -2.6709917    0.3324859   -2.2437128 
H     3.6695147    2.3979268    2.7645106 
H     4.0566300    3.4253268    1.3644194 
H     2.4931430    3.6091066    2.1891517 
H     1.6332774    1.8839118   -1.0812215 
H     2.8153330    3.2021689   -0.8372495 
H     1.2262090    3.2710019   -0.0306911 
H     1.7707077   -2.4733982    3.6282338 
H     0.7001366   -1.1233530    4.0713114 
H     0.4948706   -1.9402742    2.4925411 
H     4.1168762    0.4168201    3.1608571 
H     3.6827218   -0.9645900    4.1923867 
H     2.8095153    0.5717924    4.3782692 
H    -3.8069524   -1.5991214   -1.2517250 
H    -5.2124001   -1.5197245   -0.1656003 
H    -4.8169210   -0.1281572   -1.1972130 
H    -2.4972864   -1.1796709    2.3689595 
H    -2.4767469   -2.2834323    0.9682299 
H    -3.9807430   -2.0545513    1.9070785 
H    -3.2106796    3.2512995   -1.3746351 
H    -3.8325060    2.4070744   -2.8106230 
H    -4.4150272    1.9445285   -1.1926386 
H    -0.2850303    1.0654251   -2.3717624 
H    -0.7404242    2.7141879   -1.8609313 
H    -1.3258014    2.0781286   -3.4193486 
