83
Energy =
C    -0.4011320   -2.1543488   -1.6426095 
C     0.9590626   -1.7679881   -1.7841406 
C     1.8830048   -1.9309724   -0.7223207 
H     1.2675631   -1.2221358   -2.6840521 
Pd    0.1522150   -0.5711965   -0.1150866 
P     1.3878550    0.7604246    1.3847916 
P    -2.0827323    0.0963020    0.2969174 
H    -0.6180392   -2.9522921   -0.9163127 
H     1.6336570   -2.6833881    0.0412054 
C    -3.4876613   -1.5855906   -4.5950612 
C    -3.6216766   -2.5633328   -3.5980650 
C    -2.5994941   -2.7535055   -2.6593669 
C    -1.4268824   -1.9624560   -2.6862599 
C    -1.2974000   -0.9989155   -3.7141636 
C    -2.3147687   -0.8135564   -4.6552827 
H    -4.2851346   -1.4335517   -5.3293256 
H    -4.5205285   -3.1870598   -3.5566090 
H    -2.7024742   -3.5367313   -1.8993276 
H    -0.4030197   -0.3698658   -3.7669405 
H    -2.1963801   -0.0581419   -5.4390134 
C     6.0492792   -0.8434496   -0.7328947 
C     5.2128062   -0.3918752   -1.7679302 
C     3.8602446   -0.7468517   -1.7904309 
C     3.3081616   -1.5581413   -0.7714389 
C     4.1712185   -2.0318725    0.2448637 
C     5.5249510   -1.6749457    0.2683507 
H     7.1069720   -0.5618719   -0.7177523 
H     5.6199497    0.2395836   -2.5643510 
H     3.2294407   -0.3787502   -2.6050314 
H     3.7708206   -2.6964518    1.0192852 
H     6.1739828   -2.0531314    1.0648369 
C     0.4406247    2.0389203    2.3330772 
C    -2.4778386    1.1776411    1.7605851 
C    -0.5138378    2.8521213    1.4254820 
C    -2.0026421    2.6433293    1.7395940 
C     2.7150434    1.7096806    0.4385496 
C     2.2701701   -0.2567779    2.6943488 
C    -3.0231967   -1.4878465    0.6920220 
C    -2.9026711    0.8775535   -1.2034482 
C     3.3085571    2.9305813    1.1626279 
C     2.2133343    2.1055657   -0.9648212 
C     1.3333525   -1.3723635    3.1958742 
C     2.8655749    0.5399185    3.8692703 
C    -2.3605944   -2.1960779    1.8895670 
C    -4.5465552   -1.3749028    0.8665229 
C    -4.2457623    1.5842400   -0.9398832 
C    -1.9209878    1.8195117   -1.9282764 
H    -0.1093958    1.5027092    3.1273267 
H     1.1640402    2.6911612    2.8501641 
H    -2.0501997    0.6450918    2.6296898 
H    -3.5740802    1.1520859    1.8925491 
H    -0.2800656    3.9274076    1.5096251 
H    -0.3372969    2.5876094    0.3660665 
H    -2.5998871    3.2180349    1.0101499 
H    -2.2334496    3.0776847    2.7306519 
H     3.5049915    0.9448933    0.3159973 
H     3.0971662   -0.7220727    2.1272688 
H    -2.8330204   -2.0911975   -0.2125041 
H    -3.0791299    0.0013214   -1.8555289 
H     3.7106177    2.6888799    2.1587802 
H     4.1400349    3.3378022    0.5602929 
H     2.5614675    3.7359720    1.2754128 
H     1.7271367    1.2575934   -1.4785569 
H     3.0641793    2.4428999   -1.5823645 
H     1.4855011    2.9341368   -0.9147853 
H     1.8603395   -2.0062966    3.9308596 
H     0.4378684   -0.9599360    3.6956489 
H     0.9918668   -2.0172231    2.3681030 
H     3.5882091    1.3029488    3.5408612 
H     3.4008190   -0.1534450    4.5422731 
H     2.0812670    1.0368519    4.4662834 
H    -2.5314754   -1.6515124    2.8352071 
H    -2.7890492   -3.2066943    2.0098567 
H    -1.2702259   -2.2994090    1.7468593 
H    -5.0451623   -1.0521306   -0.0608922 
H    -4.8289188   -0.6841048    1.6800537 
H    -4.9519917   -2.3689722    1.1278882 
H    -4.9818797    0.9424412   -0.4341280 
H    -4.1120485    2.4955081   -0.3326204 
H    -4.6824593    1.8954841   -1.9054966 
H    -0.9272915    1.3559966   -2.0529110 
H    -1.7907646    2.7665342   -1.3760294 
H    -2.3141447    2.0669107   -2.9296277 
