83
Energy =
C    -0.4207259   -2.1980818   -1.5786830 
C     0.9664553   -1.8851652   -1.6515660 
C     1.8122705   -2.0150922   -0.5252435 
H     1.3577690   -1.4163783   -2.5628494 
Pd    0.0899500   -0.5508796   -0.1290490 
P     1.2912818    0.9514539    1.2486896 
P    -2.1359604    0.1914807    0.0993820 
H    -0.7237088   -2.9570728   -0.8418740 
H     1.4747190   -2.6900806    0.2759361 
C    -3.2372808   -1.6197057   -4.7909654 
C    -2.0483498   -0.8709480   -4.7612692 
C    -1.1201785   -1.0602619   -3.7327069 
C    -1.3564586   -2.0041804   -2.7057759 
C    -2.5439507   -2.7699968   -2.7665830 
C    -3.4770580   -2.5763175   -3.7935863 
H    -3.9652529   -1.4654389   -5.5937898 
H    -1.8474544   -0.1309152   -5.5428817 
H    -0.2104791   -0.4510227   -3.7174934 
H    -2.7280999   -3.5380777   -2.0063721 
H    -4.3890687   -3.1815372   -3.8199987 
C     6.0268040   -1.1529049   -0.3520092 
C     5.2750170   -0.7147622   -1.4555855 
C     3.9065147   -0.9922434   -1.5343366 
C     3.2541827   -1.7128720   -0.5060174 
C     4.0299678   -2.1664671    0.5868600 
C     5.3998225   -1.8869478    0.6660032 
H     7.0976657   -0.9335162   -0.2940182 
H     5.7610990   -0.1547911   -2.2611694 
H     3.3417141   -0.6342501   -2.4006021 
H     3.5472721   -2.7507377    1.3788762 
H     5.9808039   -2.2491700    1.5203456 
C     0.3905640    2.3910777    2.0078005 
C    -2.5042354    1.3502836    1.5031711 
C    -0.6323464    2.0941710    3.1210936 
C    -1.7005455    1.0423861    2.7889256 
C     2.6111681    1.7732015    0.1763113 
C     2.2275911    0.0805587    2.6268555 
C    -3.2124743   -1.3172555    0.4135779 
C    -2.8001692    1.0575712   -1.4296664 
C     3.2610945    3.0503018    0.7384326 
C     2.0640294    2.0312394   -1.2401502 
C     1.3711121   -1.0202814    3.2824708 
C     2.8759039    0.9913341    3.6844570 
C    -2.7177138   -2.0846355    1.6555477 
C    -4.7302851   -1.0798090    0.4623939 
C    -4.0813123    1.8871036   -1.2145236 
C    -1.6871657    1.9342604   -2.0336346 
H     1.1534202    3.0865442    2.3983500 
H    -0.0905815    2.9060889    1.1548485 
H    -3.5919132    1.3105539    1.6860292 
H    -2.2966269    2.3722386    1.1381221 
H    -0.0985081    1.7770034    4.0346101 
H    -1.1276192    3.0500526    3.3770191 
H    -2.3918144    0.9616810    3.6455558 
H    -1.2125494    0.0545783    2.6998823 
H     3.3808325    0.9820473    0.1084442 
H     3.0330816   -0.4176820    2.0551077 
H    -2.9972509   -1.9288177   -0.4797398 
H    -3.0110962    0.2258097   -2.1285409 
H     3.6720696    2.9183462    1.7510391 
H     4.0966883    3.3453277    0.0789954 
H     2.5487232    3.8931871    0.7599081 
H     1.6287130    1.1169479   -1.6809184 
H     2.8794796    2.3789868   -1.8988204 
H     1.2817106    2.8107537   -1.2349628 
H     2.0118458   -1.6654287    3.9095140 
H     0.5900880   -0.5972699    3.9372255 
H     0.8758811   -1.6569381    2.5275891 
H     3.5956854    1.7001336    3.2475055 
H     3.4277976    0.3679471    4.4104893 
H     2.1239803    1.5668708    4.2511000 
H    -2.9808424   -1.5592807    2.5900131 
H    -3.1956007   -3.0795854    1.6912023 
H    -1.6219651   -2.2307408    1.6400083 
H    -5.1240789   -0.7265798   -0.5036741 
H    -5.0183181   -0.3588852    1.2480662 
H    -5.2367588   -2.0339155    0.6949707 
H    -3.8861170    2.7702721   -0.5818551 
H    -4.4365510    2.2576311   -2.1924944 
H    -4.9010630    1.3137679   -0.7573787 
H    -0.7739675    1.3511370   -2.2323624 
H    -1.4207438    2.7653567   -1.3545117 
H    -2.0305291    2.3772328   -2.9850664 
