83
Energy =
C     0.8290188    0.1383000   -2.5819079 
C     0.8408985    1.4022475   -1.9681782 
C     1.7416862    1.6932007   -0.8874558 
H     0.0930714    2.1518076   -2.2578416 
Pd    0.3520403    0.0932050   -0.2444280 
P     1.1445055   -0.0343955    1.9684525 
P    -1.6004033   -1.2446285   -0.1664237 
H     1.6553026   -0.5446494   -2.3288923 
H     2.7269116    1.2105273   -0.9308600 
C    -1.4142282   -1.1324449   -6.0183159 
C    -0.5944181   -2.0346274   -5.3223171 
C     0.1351507   -1.6006114   -4.2104019 
C     0.0470168   -0.2620682   -3.7570622 
C    -0.7590394    0.6417571   -4.4903198 
C    -1.4827160    0.2090066   -5.6048636 
H    -1.9826568   -1.4669257   -6.8920554 
H    -0.5159341   -3.0750119   -5.6539548 
H     0.7844040   -2.3037071   -3.6779653 
H    -0.8106276    1.6950287   -4.1975505 
H    -2.0979761    0.9225990   -6.1621972 
C     1.6013669    5.4351456    1.2545200 
C     0.4153538    4.8495950    0.7818139 
C     0.4597952    3.6427465    0.0761598 
C     1.6898322    2.9887011   -0.1728566 
C     2.8756208    3.6019609    0.2905737 
C     2.8313265    4.8098370    0.9989232 
H     1.5669797    6.3769855    1.8113968 
H    -0.5487689    5.3329342    0.9712646 
H    -0.4751274    3.1829890   -0.2644060 
H     3.8426575    3.1328590    0.0836451 
H     3.7626551    5.2685787    1.3468457 
C    -2.2129626   -1.9063821    1.4671662 
C     0.3821736   -1.3577547    3.0391783 
C    -1.3968977   -3.0110448    2.1573412 
C     0.0975167   -2.6948698    2.3106444 
C    -3.0971669   -0.1941038   -0.6321439 
C    -1.6258707   -2.6784449   -1.3715479 
C     0.9487343    1.5316607    2.9766607 
C     2.9704737   -0.5053414    2.0816477 
C    -3.0623396    0.2508809   -2.0996270 
C    -3.2195551    1.0280259    0.2963472 
C    -2.9173321   -3.5124476   -1.3408586 
C    -0.3619809   -3.5492684   -1.2439459 
C    -0.5327490    1.9492217    3.0000003 
C     1.5468883    1.4498836    4.3922661 
C     3.2837421   -1.7432313    1.2196593 
C     3.9385467    0.6412665    1.7565264 
H    -2.2787359   -1.0176709    2.1204570 
H    -3.2519021   -2.2477597    1.3072772 
H    -0.5440523   -0.9323234    3.4644638 
H     1.0666911   -1.5083906    3.8919530 
H    -1.8430651   -3.1845417    3.1549202 
H    -1.5089110   -3.9614172    1.6058084 
H     0.5567613   -2.6802034    1.3049092 
H     0.5843094   -3.5223160    2.8549861 
H    -3.9719207   -0.8533817   -0.4702434 
H    -1.5640119   -2.1576920   -2.3456393 
H     1.5022224    2.2874676    2.3885924 
H     3.0966435   -0.7760150    3.1479881 
H    -2.2045776    0.9203593   -2.2761574 
H    -2.9881896   -0.5896307   -2.8085168 
H    -3.9826908    0.8117433   -2.3402292 
H    -4.1312296    1.5969431    0.0427334 
H    -2.3526484    1.7004715    0.1650101 
H    -3.2836440    0.7559924    1.3625265 
H    -2.8911943   -4.2635769   -2.1504611 
H    -3.0284449   -4.0588984   -0.3879113 
H    -3.8187923   -2.8950503   -1.4930728 
H     0.5532668   -2.9309088   -1.2161525 
H    -0.2909393   -4.2309905   -2.1099037 
H    -0.3804599   -4.1736087   -0.3350542 
H    -1.1453179    1.2541426    3.6026922 
H    -0.6290502    2.9528035    3.4490234 
H    -0.9525339    1.9904744    1.9824544 
H     2.6191155    1.1921753    4.3864163 
H     1.0159280    0.7099297    5.0164533 
H     1.4457598    2.4318976    4.8875514 
H     3.0477777   -1.5509229    0.1563729 
H     4.3597910   -1.9811826    1.2908927 
H     2.7252095   -2.6369636    1.5393702 
H     3.7079124    1.5724836    2.2978367 
H     3.9427046    0.8622709    0.6779136 
H     4.9632995    0.3352976    2.0320829 
