83
Energy =
C     0.8035235    0.2002341   -2.5874684 
C     0.9062422    1.4609477   -1.9649454 
C     1.8836212    1.7093784   -0.9523716 
H     0.1547194    2.2310213   -2.1799179 
Pd    0.4713457    0.0893874   -0.2915777 
P     1.1052897    0.0310158    1.9740386 
P    -1.4670927   -1.2771533   -0.3366742 
H     1.6633280   -0.4790770   -2.4793679 
H     2.8306992    1.1586999   -1.0352731 
C    -1.8743518   -0.9553947   -5.7495784 
C    -2.0097446    0.3116981   -5.1575539 
C    -1.1444820    0.7086532   -4.1327495 
C    -0.1237889   -0.1579731   -3.6710912 
C     0.0130619   -1.4208445   -4.2945058 
C    -0.8539263   -1.8175392   -5.3192566 
H    -2.5523635   -1.2618131   -6.5524888 
H    -2.7909500    0.9966720   -5.5026714 
H    -1.2621224    1.7043916   -3.6931846 
H     0.8109487   -2.0959145   -3.9660131 
H    -0.7292715   -2.7987879   -5.7884750 
C     2.1102316    5.4488443    1.1833999 
C     0.8688421    4.9752363    0.7273769 
C     0.7904083    3.7667889    0.0276845 
C     1.9508875    3.0005569   -0.2347805 
C     3.1944063    3.5014334    0.2123514 
C     3.2727719    4.7098810    0.9165638 
H     2.1709604    6.3917296    1.7362120 
H    -0.0432675    5.5477289    0.9256658 
H    -0.1890296    3.3975094   -0.2956000 
H     4.1101432    2.9419559   -0.0043024 
H     4.2472523    5.0797298    1.2518838 
C    -2.2958326   -1.7103028    1.2732628 
C     0.1921437   -1.1607090    3.0772918 
C    -1.6174744   -2.7650871    2.1663958 
C    -0.1248397   -2.5301948    2.4311220 
C    -2.7533537   -0.1976305   -1.1875724 
C    -1.3491587   -2.8415321   -1.3742473 
C     0.9426668    1.6690380    2.8679823 
C     2.8886799   -0.5280563    2.2236167 
C    -2.9212805    1.1291652   -0.4231542 
C    -4.1066680   -0.8531002   -1.5075897 
C    -2.4517657   -3.8909860   -1.1359053 
C     0.0513262   -3.4752482   -1.2701578 
C    -0.5185742    2.1505028    2.7992361 
C     1.4795333    1.6630609    4.3100180 
C     3.1625202   -1.8702631    1.5181509 
C     3.9198755    0.5279272    1.8023529 
H    -2.3802200   -0.7464255    1.8083897 
H    -3.3271964   -2.0291925    1.0403355 
H    -0.7338131   -0.6531528    3.4010876 
H     0.8066580   -1.2830685    3.9861914 
H    -2.1642939   -2.7929591    3.1279572 
H    -1.7407755   -3.7661022    1.7182322 
H     0.4211308   -2.6311845    1.4750342 
H     0.2503157   -3.3391030    3.0815640 
H    -2.2572302    0.0267729   -2.1489082 
H    -1.4604702   -2.4357402   -2.3982314 
H     1.5541413    2.3582100    2.2572546 
H     2.9654845   -0.6801232    3.3178608 
H    -3.5331382    1.8289359   -1.0195378 
H    -3.4307340    0.9881005    0.5464198 
H    -1.9430371    1.6065211   -0.2305306 
H    -4.0009161   -1.7011578   -2.2028700 
H    -4.7582639   -0.1082067   -1.9989661 
H    -4.6333038   -1.2002027   -0.6010610 
H    -2.3856535   -4.6692457   -1.9169710 
H    -2.3258595   -4.3935405   -0.1624787 
H    -3.4669869   -3.4684009   -1.1724579 
H     0.8502010   -2.7256259   -1.4071992 
H     0.1693457   -4.2540163   -2.0444439 
H     0.2044525   -3.9588979   -0.2896494 
H    -1.1790042    1.5471189    3.4479480 
H    -0.5812049    3.1977610    3.1416788 
H    -0.9103970    2.1059889    1.7696157 
H     2.5432401    1.3770211    4.3642837 
H     0.9025592    0.9812414    4.9591608 
H     1.3892787    2.6782998    4.7356305 
H     2.9570428   -1.7951363    0.4341214 
H     4.2252953   -2.1428392    1.6440814 
H     2.5596382   -2.6961538    1.9270500 
H     3.7333881    1.5172182    2.2497252 
H     3.9382918    0.6432855    0.7068198 
H     4.9259443    0.1984192    2.1167311 
