83
Energy =
C     0.7906376   -0.1197234   -2.5484477 
C     0.9301266    1.1826149   -2.0309706 
C     1.9033540    1.4766805   -1.0269430 
H     0.2248912    1.9646194   -2.3394116 
Pd    0.4236915   -0.0294607   -0.2519929 
P     1.1179267    0.0799024    2.0041370 
P    -1.6016458   -1.2732930   -0.1112415 
H     1.6262987   -0.8147926   -2.3713526 
H     2.8285799    0.8851254   -1.0518940 
C    -1.7226530   -1.3251135   -5.8196895 
C    -0.5997022   -2.0838461   -5.4578351 
C     0.1960752   -1.6847546   -4.3771722 
C    -0.1059090   -0.5122543   -3.6455087 
C    -1.2311101    0.2527855   -4.0347358 
C    -2.0334126   -0.1549142   -5.1047692 
H    -2.3513417   -1.6380546   -6.6593302 
H    -0.3454861   -2.9906469   -6.0156940 
H     1.0696048   -2.2830885   -4.0949194 
H    -1.4843507    1.1705909   -3.4942048 
H    -2.9037750    0.4450179   -5.3898448 
C     2.2592190    5.3955226    0.7371048 
C     3.3979436    4.6011638    0.5339879 
C     3.2784826    3.3324591   -0.0475860 
C     2.0164158    2.8262327   -0.4327821 
C     0.8808583    3.6479372   -0.2383805 
C     1.0002523    4.9159211    0.3395364 
H     2.3522916    6.3857462    1.1943962 
H     4.3859689    4.9742787    0.8227746 
H     4.1762356    2.7297404   -0.2175511 
H    -0.1114346    3.2769432   -0.5164755 
H     0.1067133    5.5311870    0.4878264 
C    -2.3201544   -1.4850218    1.5965979 
C     0.2377040   -0.9880746    3.2557367 
C    -1.6807648   -2.5442977    2.5095653 
C    -0.1730387   -2.3865554    2.7422582 
C    -2.9379176   -0.2495921   -0.9621584 
C    -1.6964312   -3.0136327   -0.8541968 
C     1.0142212    1.7928263    2.7530828 
C     2.8963616   -0.5035977    2.2511203 
C    -2.7695113    1.2466704   -0.6396935 
C    -4.3846389   -0.7064180   -0.6933257 
C    -0.2895105   -3.6417063   -0.8793279 
C    -2.3509680   -3.0814914   -2.2460674 
C    -0.4347906    2.3053102    2.6525373 
C     1.5670431    1.8970081    4.1850623 
C     3.1152294   -1.8978869    1.6324754 
C     3.9529319    0.4882025    1.7468966 
H    -2.2762248   -0.4822062    2.0609317 
H    -3.3893723   -1.7258940    1.4691351 
H     0.9172835   -1.0683450    4.1219371 
H    -0.6422614   -0.4227443    3.6106498 
H    -2.2079619   -2.5052706    3.4817004 
H    -1.8756629   -3.5534103    2.1020125 
H     0.3571061   -2.6079810    1.7984314 
H     0.1561359   -3.1555156    3.4624010 
H    -2.7089172   -0.3996407   -2.0325560 
H    -2.3273910   -3.5842356   -0.1463505 
H     1.6373147    2.4090313    2.0798065 
H     2.9907979   -0.5850168    3.3513641 
H    -3.4822124    1.8437734   -1.2361296 
H    -2.9703388    1.4566921    0.4259469 
H    -1.7475337    1.5977911   -0.8673723 
H    -4.5204450   -1.7965573   -0.7887210 
H    -5.0602396   -0.2218208   -1.4204801 
H    -4.7197706   -0.4063769    0.3144225 
H    -0.3483413   -4.6862057   -1.2328107 
H     0.3721726   -3.0836661   -1.5649323 
H     0.1853779   -3.6487777    0.1157450 
H    -3.4073722   -2.7733729   -2.2348468 
H    -2.3157079   -4.1253987   -2.6052564 
H    -1.8165979   -2.4616665   -2.9814095 
H    -1.1055803    1.7741505    3.3520882 
H    -0.4691308    3.3783485    2.9083436 
H    -0.8334218    2.1859651    1.6309374 
H     2.6199638    1.5762579    4.2555608 
H     0.9732613    1.2989581    4.8983273 
H     1.5199244    2.9492672    4.5176974 
H     2.8874914   -1.8889398    0.5502638 
H     4.1716523   -2.1954072    1.7554226 
H     2.4965446   -2.6752995    2.1080524 
H     3.7981108    1.5126765    2.1211387 
H     3.9699217    0.5213754    0.6461317 
H     4.9509131    0.1531927    2.0808240 
