83
Energy =
C     0.6643099    0.0476632   -2.5672004 
C     0.8144616    1.3261905   -2.0000604 
C     1.7644952    1.5825063   -0.9637572 
H     0.1337453    2.1302841   -2.3054755 
Pd    0.2444447    0.1192360   -0.2226052 
P     1.0456281    0.0645401    2.0078344 
P    -1.6096412   -1.3372614   -0.0900351 
H     1.4562323   -0.6865277   -2.3548366 
H     2.6665801    0.9546622   -0.9543658 
C    -1.7627587   -1.0489216   -5.9436463 
C    -0.8667029   -1.9659359   -5.3734946 
C    -0.0854343   -1.5894414   -4.2754375 
C    -0.1907731   -0.2947307   -3.7119307 
C    -1.0788543    0.6258981   -4.3185385 
C    -1.8561220    0.2511379   -5.4176510 
H    -2.3739292   -1.3381429   -6.8045576 
H    -0.7689824   -2.9728119   -5.7920685 
H     0.6248361   -2.3031865   -3.8456562 
H    -1.1613322    1.6472178   -3.9345342 
H    -2.5360883    0.9781402   -5.8732493 
C     2.3243603    5.5285982    0.6746267 
C     1.0594628    5.1420977    0.1994282 
C     0.8638389    3.8582941   -0.3200247 
C     1.9330041    2.9332661   -0.3885686 
C     3.2003537    3.3401276    0.0848232 
C     3.3932199    4.6222694    0.6156440 
H     2.4745839    6.5319037    1.0856298 
H     0.2197965    5.8433079    0.2453031 
H    -0.1369347    3.5607873   -0.6530198 
H     4.0481029    2.6483538    0.0166660 
H     4.3843961    4.9184012    0.9743847 
C    -2.0093043   -2.1393866    1.5425318 
C     0.6453273   -1.4867285    2.9705372 
C    -1.0359919   -3.2108346    2.0639548 
C     0.4347828   -2.7706042    2.1366673 
C    -3.2089307   -0.3925949   -0.4024701 
C    -1.6193515   -2.7160267   -1.3607440 
C     0.5848436    1.3770469    3.2741449 
C     2.9276666    0.0462899    1.9596921 
C    -3.2763181    0.1483599   -1.8371153 
C    -3.3817914    0.7502356    0.6136632 
C    -2.8494719   -3.6363608   -1.2831084 
C    -0.3004263   -3.5109708   -1.3653364 
C     1.2886262    2.7270464    3.0712506 
C    -0.9421023    1.5582302    3.3197842 
C     3.6112262    0.0271952    3.3383282 
C     3.4294343   -1.1126123    1.0764669 
H    -2.0805309   -1.3044547    2.2622546 
H    -3.0272068   -2.5620240    1.4589802 
H    -0.2474793   -1.2643360    3.5816590 
H     1.4716487   -1.6129058    3.6911170 
H    -1.3753017   -3.5043498    3.0754704 
H    -1.1143581   -4.1215888    1.4447601 
H     0.8282574   -2.6261541    1.1127370 
H     1.0265263   -3.5932556    2.5743788 
H    -4.0185891   -1.1321598   -0.2497066 
H    -1.6616613   -2.1519367   -2.3108070 
H     0.9203507    0.9360634    4.2339089 
H     3.1679063    1.0038543    1.4624925 
H    -4.2406427    0.6623214   -1.9962041 
H    -2.4700667    0.8819772   -2.0073370 
H    -3.1864215   -0.6388762   -2.6028295 
H    -4.3392428    1.2680604    0.4280035 
H    -2.5679639    1.4898648    0.5063377 
H    -3.3930044    0.3978442    1.6577844 
H    -2.8287404   -4.3483381   -2.1274606 
H    -2.8596155   -4.2301371   -0.3522341 
H    -3.7978775   -3.0769101   -1.3477487 
H     0.5775714   -2.8414011   -1.3652616 
H    -0.2516929   -4.1414105   -2.2705912 
H    -0.2182245   -4.1814783   -0.4944532 
H     0.9568582    3.2134007    2.1416378 
H     1.0325421    3.3959303    3.9117893 
H     2.3859460    2.6413751    3.0361554 
H    -1.4808650    0.6076192    3.4764552 
H    -1.3058033    2.0091200    2.3815582 
H    -1.2132357    2.2325261    4.1508608 
H     3.4186716   -0.9163513    3.8788086 
H     4.7048132    0.1025891    3.2011616 
H     3.2995081    0.8647605    3.9828642 
H     2.9148207   -1.1431067    0.0990054 
H     3.2737406   -2.0879380    1.5702654 
H     4.5128451   -1.0044019    0.8923139 
