83
Energy =
C     0.4075828    0.2342197   -2.6712159 
C     0.6940508    1.4621941   -2.0309267 
C     1.7811361    1.5778740   -1.1220066 
H     0.0057612    2.3072467   -2.1523807 
Pd    0.2788451    0.0497688   -0.3823408 
P     1.1261374    0.0919338    1.8377764 
P    -1.4166776   -1.5870986   -0.2685561 
H     1.2215892   -0.5057264   -2.7033739 
H     2.6198749    0.8802909   -1.2651017 
C    -2.5651461   -0.4511085   -5.7073236 
C    -1.5994061   -1.4255492   -5.4118739 
C    -0.6430865   -1.1856618   -4.4180776 
C    -0.6377556    0.0264470   -3.6881288 
C    -1.6104687    1.0032817   -4.0071163 
C    -2.5603932    0.7663357   -5.0060810 
H    -3.3115007   -0.6336515   -6.4868958 
H    -1.5851979   -2.3704405   -5.9646138 
H     0.1223145   -1.9411219   -4.2061862 
H    -1.6255749    1.9611705   -3.4779378 
H    -3.3027028    1.5359729   -5.2408067 
C     2.8159468    5.1308407    1.0842443 
C     1.5091573    4.9714573    0.5922419 
C     1.1635330    3.8309593   -0.1391268 
C     2.1173259    2.8184339   -0.3968601 
C     3.4366256    3.0097413    0.0768802 
C     3.7813454    4.1491272    0.8149778 
H     3.0815156    6.0214364    1.6626221 
H     0.7537867    5.7400199    0.7862409 
H     0.1334705    3.7158415   -0.4917231 
H     4.2036434    2.2598872   -0.1490899 
H     4.8084320    4.2749475    1.1725850 
C    -1.7178571   -2.2985279    1.4195875 
C     0.6355713   -1.2105676    3.0753980 
C    -1.8930369   -1.1983733    2.4946444 
C    -0.8161945   -1.2234629    3.5884003 
C    -3.1393126   -0.9105745   -0.6985200 
C    -1.1071560   -3.0942850   -1.3427123 
C     0.8989131    1.7538907    2.6870571 
C     2.9782740   -0.2125593    1.6590137 
C    -3.6639976   -1.3349861   -2.0809936 
C    -3.1594273    0.6223931   -0.5409114 
C    -2.0097667   -4.2985060   -1.0123004 
C     0.3827223   -3.4810608   -1.2912313 
C    -0.5003130    2.3247122    2.3831696 
C     1.1842639    1.7775025    4.2004079 
C     3.8307735   -0.1332267    2.9359470 
C     3.2090592   -1.5338613    0.8990869 
H    -2.6116107   -2.9424371    1.3560245 
H    -0.8695432   -2.9669133    1.6522649 
H     1.3258460   -1.1119303    3.9316883 
H     0.8829283   -2.1721697    2.5902237 
H    -1.8811658   -0.2012019    2.0154659 
H    -2.8855739   -1.2922936    2.9671422 
H    -0.9396199   -2.1315267    4.2082312 
H    -0.9812474   -0.3677903    4.2665789 
H    -3.8000725   -1.3500871    0.0727311 
H    -1.3386931   -2.7370537   -2.3626312 
H     1.6450615    2.3871670    2.1719075 
H     3.2816379    0.6203081    1.0019849 
H    -3.0095423   -0.9866743   -2.8939007 
H    -3.7808364   -2.4260585   -2.1719895 
H    -4.6588803   -0.8819433   -2.2391194 
H    -4.1837755    1.0023377   -0.7032725 
H    -2.4964470    1.0989141   -1.2837023 
H    -2.8330741    0.9446117    0.4621245 
H    -1.8934313   -5.0700994   -1.7939135 
H    -1.7277308   -4.7591371   -0.0498252 
H    -3.0787975   -4.0316786   -0.9635517 
H     1.0298926   -2.6501784   -1.6202040 
H     0.5712862   -4.3455633   -1.9522039 
H     0.6942373   -3.7689516   -0.2706931 
H    -1.2837049    1.7949857    2.9530984 
H    -0.5379212    3.3894894    2.6715510 
H    -0.7450736    2.2507678    1.3096073 
H     2.1809114    1.3906810    4.4594520 
H     0.4344552    1.1974332    4.7645773 
H     1.1286270    2.8208239    4.5586438 
H     3.5178049   -0.8664355    3.6994899 
H     4.8816493   -0.3589048    2.6796648 
H     3.8119090    0.8729891    3.3830007 
H     2.6113044   -1.5781634   -0.0291822 
H     2.9472157   -2.4125884    1.5150300 
H     4.2752952   -1.6283054    0.6278383 
