83
Energy =
C     0.4151547    0.2403729   -2.6963815 
C     0.9458274    1.4087046   -2.0801026 
C     2.0723461    1.3460699   -1.2265522 
H     0.3951349    2.3530614   -2.1704385 
Pd    0.3466612    0.0471656   -0.4511703 
P     0.7408820    0.3883681    1.8573746 
P    -1.2864098   -1.6528309   -0.4590470 
H     1.1172774   -0.5840256   -2.8917018 
H     2.7345521    0.4741750   -1.3384971 
C    -3.1445910    0.1446312   -5.1267214 
C    -2.1471182   -0.8294733   -5.2804677 
C    -0.9855126   -0.7751415   -4.4989899 
C    -0.7994785    0.2457378   -3.5378789 
C    -1.8052509    1.2327865   -3.4126306 
C    -2.9620003    1.1824528   -4.1967839 
H    -4.0535950    0.1041668   -5.7352459 
H    -2.2683924   -1.6291601   -6.0183875 
H    -0.1999824   -1.5257650   -4.6448783 
H    -1.6933618    2.0387924   -2.6800928 
H    -3.7299239    1.9541351   -4.0795881 
C     3.9361675    4.6408523    0.8246432 
C     4.5855011    3.4021584    0.7137341 
C     3.9684815    2.3457684    0.0324045 
C     2.6862140    2.4995932   -0.5456806 
C     2.0553221    3.7621838   -0.4441030 
C     2.6728904    4.8175753    0.2347073 
H     4.4157760    5.4690059    1.3560428 
H     5.5784508    3.2606021    1.1525876 
H     4.4857870    1.3839356   -0.0625896 
H     1.0681449    3.9226878   -0.8881574 
H     2.1675020    5.7863864    0.3035403 
C    -1.5560569   -2.5758742    1.1292687 
C    -0.3265089   -0.4971544    3.0973881 
C    -0.2544922   -2.8265121    1.9274585 
C    -0.1616324   -2.0232689    3.2326511 
C    -2.9923108   -1.0484464   -0.9629035 
C    -0.7555310   -2.9574889   -1.7038431 
C     0.4182376    2.2123717    2.2249573 
C     2.5334084    0.0822342    2.3355750 
C    -3.2334088    0.3449442   -0.3524186 
C    -4.1574833   -1.9960423   -0.6162449 
C    -1.7468198   -4.1037080   -1.9613548 
C     0.6513644   -3.4892364   -1.3664328 
C    -0.7811904    2.7172483    1.4013355 
C     0.2533178    2.6013160    3.7050872 
C     2.8394949    0.0746223    3.8438564 
C     3.0938756   -1.1751767    1.6430049 
H    -2.2809080   -1.9886447    1.7213349 
H    -2.0667166   -3.5217052    0.8792050 
H    -1.3640863   -0.2342766    2.8172962 
H    -0.1436221   -0.0287813    4.0799520 
H    -0.1702922   -3.9002965    2.1686131 
H     0.6233195   -2.5875896    1.2996957 
H     0.8067799   -2.2466867    3.7146601 
H    -0.9384697   -2.3773479    3.9366008 
H    -2.9162670   -0.9426745   -2.0618533 
H    -0.6864702   -2.3592660   -2.6289651 
H     1.3321244    2.6943037    1.8309097 
H     3.0279251    0.9627937    1.8838633 
H    -4.1919506    0.7549502   -0.7161919 
H    -3.2881445    0.2937402    0.7507812 
H    -2.4306429    1.0502274   -0.6204554 
H    -4.0216404   -3.0158914   -1.0052337 
H    -5.0888588   -1.5929702   -1.0521176 
H    -4.3095752   -2.0625981    0.4749930 
H    -1.2967368   -4.8148481   -2.6772870 
H    -1.9809812   -4.6714436   -1.0432337 
H    -2.6884626   -3.7436925   -2.4048255 
H     1.3608268   -2.6694486   -1.1501181 
H     1.0445661   -4.0654591   -2.2225941 
H     0.6324687   -4.1662983   -0.4949299 
H    -1.7271740    2.2607398    1.7426888 
H    -0.8776003    3.8117226    1.5131349 
H    -0.6619539    2.4880006    0.3276267 
H     1.0910731    2.2680455    4.3366099 
H    -0.6832356    2.1999972    4.1296907 
H     0.2008963    3.7020816    3.7808041 
H     2.3294062   -0.7538660    4.3645567 
H     3.9254168   -0.0632065    3.9926537 
H     2.5579929    1.0172705    4.3373650 
H     2.8511658   -1.1906925    0.5654618 
H     2.6999882   -2.1018429    2.0944661 
H     4.1931186   -1.1991478    1.7485088 
