83
Energy =
C     0.5441122    0.2727162   -2.5802087 
C     0.6901673    1.5042037   -1.9095705 
C     1.7136033    1.7086341   -0.9381635 
H    -0.0605221    2.2899351   -2.0599218 
Pd    0.3301685    0.0451635   -0.2839968 
P     1.1642856   -0.1078405    1.9241667 
P    -1.4445537   -1.5222126   -0.2634775 
H     1.3972744   -0.4221533   -2.5375346 
H     2.6441760    1.1416266   -1.0768594 
C    -2.1654318   -0.6039097   -5.8050472 
C    -1.2300607   -1.5570498   -5.3726141 
C    -0.3570007   -1.2548841   -4.3212250 
C    -0.4108882   -0.0016596   -3.6660897 
C    -1.3478825    0.9543684   -4.1260965 
C    -2.2125650    0.6554174   -5.1840496 
H    -2.8450154   -0.8349210   -6.6314298 
H    -1.1733663   -2.5335152   -5.8643779 
H     0.3864014   -1.9939905   -4.0019216 
H    -1.3968124    1.9456998   -3.6654928 
H    -2.9267766    1.4097501   -5.5293180 
C     2.1306225    5.4122960    1.2285363 
C     0.8573904    4.9712545    0.8318004 
C     0.7151972    3.7714871    0.1272936 
C     1.8432122    2.9827302   -0.1996144 
C     3.1195523    3.4508579    0.1881465 
C     3.2613296    4.6502337    0.8973925 
H     2.2405076    6.3485395    1.7850531 
H    -0.0298675    5.5627297    1.0806436 
H    -0.2872973    3.4271543   -0.1504043 
H     4.0104283    2.8748133   -0.0811923 
H     4.2597182    4.9953670    1.1853567 
C    -1.9083158   -2.2142462    1.3969423 
C     0.4841667   -1.3911247    3.1014372 
C    -2.0163741   -1.1235553    2.4913104 
C    -0.9652774   -1.2755050    3.5997067 
C    -3.0917346   -0.7235104   -0.7836000 
C    -1.1843556   -3.0454515   -1.3276352 
C     1.1541002    1.5070641    2.8722937 
C     2.9553143   -0.7155202    1.9184276 
C    -3.5917670   -1.1406051   -2.1772984 
C    -3.0056979    0.8097742   -0.6556077 
C    -2.1698556   -4.1951911   -1.0447715 
C     0.2764633   -3.5181024   -1.2127481 
C    -0.2570800    2.1257472    2.8932413 
C     1.7657795    1.4129520    4.2804287 
C     3.0881945   -1.9575838    1.0170966 
C     3.9944811    0.3476611    1.5391966 
H    -2.8638980   -2.7513264    1.2703988 
H    -1.1571528   -2.9802768    1.6603820 
H     1.1714058   -1.4049022    3.9665097 
H     0.6347712   -2.3537932    2.5807154 
H    -1.9106546   -0.1192455    2.0385826 
H    -3.0224176   -1.1461991    2.9436668 
H    -1.1832059   -2.1868157    4.1882639 
H    -1.0549147   -0.4311056    4.3051860 
H    -3.8143347   -1.0939389   -0.0322358 
H    -1.3489561   -2.6728484   -2.3548222 
H     1.7906222    2.1585384    2.2454373 
H     3.1360938   -1.0188740    2.9675893 
H    -4.5370140   -0.6105885   -2.3915207 
H    -2.8763619   -0.8723298   -2.9690923 
H    -3.7970218   -2.2201976   -2.2457209 
H    -2.6648741    1.1280588    0.3445677 
H    -3.9993377    1.2574210   -0.8353071 
H    -2.3063229    1.2242328   -1.4017779 
H    -2.0582983   -4.9734825   -1.8204544 
H    -1.9644474   -4.6698368   -0.0698701 
H    -3.2228826   -3.8677062   -1.0502149 
H     0.9859755   -2.7142480   -1.4735825 
H     0.4529015   -4.3703425   -1.8927649 
H     0.5128130   -3.8573094   -0.1880175 
H    -0.9238055    1.6005106    3.5973759 
H    -0.1927666    3.1800200    3.2122996 
H    -0.7211808    2.1043331    1.8927571 
H     2.7884315    0.9990925    4.2721340 
H     1.1474990    0.7932278    4.9532861 
H     1.8214525    2.4235531    4.7225704 
H     2.9062399   -1.6918399   -0.0401684 
H     4.1096034   -2.3698220    1.0947652 
H     2.3834974   -2.7607021    1.2908543 
H     5.0068734   -0.0637571    1.6988606 
H     3.9084944    1.2694038    2.1365956 
H     3.9150247    0.6174517    0.4745481 
