83
Energy =
C     0.3657712    0.3317387   -2.7011351 
C     0.7927322    1.5269364   -2.0654558 
C     1.9500019    1.5461887   -1.2473798 
H     0.1507263    2.4147501   -2.1101854 
Pd    0.3941657    0.0957936   -0.4341578 
P     0.9861140    0.3135164    1.8427638 
P    -1.1297053   -1.7218424   -0.4193017 
H     1.1360550   -0.4298763   -2.8956752 
H     2.6944703    0.7556678   -1.4249937 
C    -3.1712334   -0.1128132   -5.1204983 
C    -3.0608978    0.9792209   -4.2425900 
C    -1.9124265    1.1462234   -3.4627587 
C    -0.8432502    0.2228608   -3.5394438 
C    -0.9558912   -0.8514642   -4.4533987 
C    -2.1088537   -1.0225367   -5.2300668 
H    -4.0743414   -0.2440925   -5.7249645 
H    -3.8790052    1.7025989   -4.1634169 
H    -1.8580249    1.9930559   -2.7714382 
H    -0.1206829   -1.5527639   -4.5641386 
H    -2.1736731   -1.8623354   -5.9294775 
C     3.5227751    4.9157646    0.9188461 
C     2.2571123    5.0098966    0.3155753 
C     1.7360373    3.9316667   -0.4072318 
C     2.4704709    2.7299813   -0.5419037 
C     3.7550780    2.6612455    0.0465947 
C     4.2739892    3.7390377    0.7741730 
H     3.9254495    5.7602124    1.4871283 
H     1.6724978    5.9306781    0.4111093 
H     0.7413298    4.0229022   -0.8540057 
H     4.3489147    1.7474872   -0.0714961 
H     5.2694967    3.6639207    1.2236211 
C    -1.3965052   -2.7048367    1.1388300 
C    -0.0272362   -0.6797558    3.0371098 
C    -2.1162591   -2.0110925    2.3115390 
C    -1.5409420   -0.6461094    2.7166628 
C    -2.8327481   -1.2554424   -1.0661218 
C    -0.4095814   -2.9981736   -1.6032888 
C     0.7936923    2.1043485    2.3789248 
C     2.7755412   -0.1394236    2.2259998 
C    -3.2527820    0.1306396   -0.5380964 
C    -3.9466746   -2.2925544   -0.8289949 
C    -1.2553715   -4.2511735   -1.8837660 
C     1.0217785   -3.3603611   -1.1624144 
C    -0.5579108    2.6792864    1.9145085 
C     1.0532930    2.3936394    3.8661263 
C     3.0383821   -0.5661999    3.6838123 
C     3.2783631   -1.2184855    1.2493750 
H    -1.9503601   -3.6178583    0.8571123 
H    -0.3875302   -3.0369195    1.4443350 
H     0.1814825   -0.3088463    4.0544790 
H     0.3680936   -1.7107831    3.0037069 
H    -3.1860641   -1.8851676    2.0691889 
H    -2.0794044   -2.6992454    3.1770876 
H    -2.0974063   -0.2692440    3.5920065 
H    -1.7365598    0.0743977    1.9007113 
H    -2.6529698   -1.1657398   -2.1539251 
H    -0.3441842   -2.4193153   -2.5410127 
H     1.5876189    2.5988203    1.7916775 
H     3.3191918    0.8025693    2.0233478 
H    -4.1153523    0.5032728   -1.1173455 
H    -3.5560928    0.0830258    0.5222418 
H    -2.4343072    0.8658914   -0.6275293 
H    -3.6928175   -3.2949308   -1.2039538 
H    -4.8608885   -1.9622942   -1.3535387 
H    -4.1977110   -2.3811752    0.2415275 
H    -0.6948214   -4.9171707   -2.5642479 
H    -1.4710506   -4.8286816   -0.9678983 
H    -2.2076982   -4.0045404   -2.3788347 
H     1.6358445   -2.4571996   -0.9995336 
H     1.5093071   -3.9728198   -1.9413386 
H     1.0267768   -3.9509236   -0.2288618 
H    -1.3959860    2.3003081    2.5246230 
H    -0.5426437    3.7789615    2.0124225 
H    -0.7616972    2.4319073    0.8567680 
H     2.0779196    2.1281930    4.1715856 
H     0.3402661    1.8673199    4.5253383 
H     0.9282793    3.4760432    4.0476734 
H     2.5745787   -1.5427285    3.9061465 
H     4.1264392   -0.6780062    3.8373337 
H     2.6704302    0.1632653    4.4216120 
H     3.1819057   -0.8974134    0.1983663 
H     2.7144818   -2.1611330    1.3691344 
H     4.3426877   -1.4397644    1.4446904 
