83
Energy =
C     0.6094180    0.1533312   -2.6247853 
C     0.8536612    1.4182329   -2.0176430 
C     1.9056016    1.6057707   -1.0937747 
H     0.1393141    2.2331355   -2.1888048 
Pd    0.4192849    0.0126552   -0.3667271 
P     0.4746693    0.6387114    1.9148201 
P    -0.6585637   -2.0871936   -0.2823804 
H     1.4784888   -0.5038116   -2.7685982 
H     2.7158650    0.8603376   -1.1027614 
C    -2.6725677   -0.5308296   -5.3364501 
C    -2.7950517    0.4246631   -4.3140729 
C    -1.7340785    0.6528103   -3.4320705 
C    -0.5219380   -0.0673059   -3.5503777 
C    -0.4070199   -1.0097985   -4.5977687 
C    -1.4713818   -1.2419674   -5.4781014 
H    -3.5055686   -0.7129018   -6.0229637 
H    -3.7261471    0.9895114   -4.1999657 
H    -1.8572684    1.3821342   -2.6240150 
H     0.5321079   -1.5562041   -4.7311955 
H    -1.3590234   -1.9751546   -6.2834762 
C     3.0055649    5.2726674    0.8717350 
C     3.8411633    4.1470194    0.9287626 
C     3.4708441    2.9661441    0.2739524 
C     2.2545448    2.8801738   -0.4439039 
C     1.4365697    4.0327907   -0.5137962 
C     1.8073461    5.2122211    0.1396535 
H     3.2921383    6.1979502    1.3815882 
H     4.7871820    4.1915904    1.4779977 
H     4.1330174    2.0932294    0.3101735 
H     0.4982017    4.0102542   -1.0758821 
H     1.1605571    6.0932391    0.0750041 
C    -1.0836321   -2.8484957    1.3715446 
C    -0.5319994   -0.3749698    3.0949730 
C    -2.1542536   -2.1968919    2.2624800 
C    -1.9420989   -0.7025220    2.5443970 
C    -2.2180773   -2.1807791   -1.3144333 
C     0.4726589   -3.4656679   -0.9070523 
C    -0.2111902    2.3905248    2.0668310 
C     2.2034585    0.6705797    2.6485738 
C    -3.2039174   -1.0603679   -0.9302408 
C    -2.8866026   -3.5658018   -1.3191808 
C     1.8419811   -3.3912535   -0.2057898 
C     0.6443667   -3.4996830   -2.4311571 
C    -1.3458737    2.6329065    1.0507970 
C    -0.6520876    2.8202775    3.4766891 
C     2.2799028    0.7796495    4.1821927 
C     2.9981283   -0.5460120    2.1379484 
H    -1.3679001   -3.8955508    1.1618421 
H    -0.1195206   -2.8993153    1.9089596 
H    -0.5861019    0.1723393    4.0506602 
H     0.0463469   -1.2930294    3.3037784 
H    -3.1538238   -2.3433824    1.8172392 
H    -2.1645379   -2.7520626    3.2196779 
H    -2.7094131   -0.3586120    3.2591581 
H    -2.1234472   -0.1380798    1.6104528 
H    -1.8449125   -1.9564816   -2.3312016 
H    -0.0377984   -4.3959768   -0.5909226 
H     0.6561519    3.0052362    1.7625777 
H     2.6407764    1.5843996    2.2054711 
H    -3.9740622   -0.9620024   -1.7143431 
H    -3.7177756   -1.2763235    0.0213212 
H    -2.6922308   -0.0873392   -0.8349091 
H    -2.1972398   -4.3673526   -1.6343546 
H    -3.7338137   -3.5607840   -2.0278507 
H    -3.2900473   -3.8273993   -0.3252390 
H     2.4632203   -4.2530502   -0.5066478 
H     2.3760781   -2.4682080   -0.4948519 
H     1.7608875   -3.4079093    0.8938760 
H    -0.3137994   -3.5246439   -2.9744499 
H     1.2145403   -4.4029306   -2.7116120 
H     1.2170188   -2.6267603   -2.7818292 
H    -2.2726237    2.1120370    1.3485348 
H    -1.5722273    3.7123351    0.9961053 
H    -1.0715903    2.2838081    0.0394597 
H     0.1396127    2.6987533    4.2322305 
H    -1.5424817    2.2595844    3.8118956 
H    -0.9280017    3.8896596    3.4567472 
H     1.8484715   -0.1076597    4.6772741 
H     3.3394296    0.8434608    4.4880527 
H     1.7706615    1.6751732    4.5706413 
H     3.0124257   -0.5883809    1.0353480 
H     2.5685525   -1.4947349    2.5077034 
H     4.0414805   -0.4937165    2.4964593 
