83
Energy =
C     0.4059124    0.3922139   -2.5405854 
C     0.6930058    1.5814640   -1.8343884 
C     1.7941271    1.6690537   -0.9435254 
H     0.0039795    2.4308780   -1.9129646 
Pd    0.2979401    0.0812255   -0.2496195 
P     0.9771483    0.0313640    2.0197724 
P    -1.2998001   -1.6796078   -0.2992758 
H     1.2233635   -0.3381070   -2.6317850 
H     2.6241531    0.9687469   -1.1149111 
C    -2.5534373   -0.0241956   -5.6383611 
C    -1.5394507   -0.9807144   -5.4789337 
C    -0.5904309   -0.8334472   -4.4600621 
C    -0.6408862    0.2649349   -3.5695608 
C    -1.6645117    1.2253297   -3.7502942 
C    -2.6060643    1.0827712   -4.7744241 
H    -3.2942909   -0.1343425   -6.4365484 
H    -1.4811813   -1.8380756   -6.1572287 
H     0.2148654   -1.5699506   -4.3571521 
H    -1.7299091    2.0932847   -3.0866236 
H    -3.3888872    1.8377948   -4.8993649 
C     2.9425968    5.2660409    1.1280002 
C     1.6078234    5.0898646    0.7260351 
C     1.2215280    3.9281172    0.0506130 
C     2.1622819    2.9115982   -0.2390836 
C     3.5061207    3.1134771    0.1531469 
C     3.8916960    4.2759139    0.8320218 
H     3.2413794    6.1743704    1.6608705 
H     0.8631447    5.8618664    0.9460605 
H     0.1714015    3.7990827   -0.2312386 
H     4.2553349    2.3518024   -0.0862476 
H     4.9377470    4.4122979    1.1249932 
C    -1.5257261   -2.6779685    1.2584994 
C    -0.1302901   -0.8081054    3.2639278 
C    -2.2545495   -2.0071690    2.4368562 
C    -1.6384585   -0.6991852    2.9527120 
C    -3.0758980   -1.1535991   -0.7107315 
C    -0.8180311   -2.9948146   -1.5576993 
C     1.1723921    1.7440749    2.7605323 
C     2.6143231   -0.8450070    2.3017908 
C    -3.5259605   -1.4409470   -2.1540411 
C    -3.2722675    0.3337513   -0.3592671 
C    -1.6332374   -4.3004191   -1.4824716 
C     0.6906771   -3.2947092   -1.5013650 
C    -0.1860704    2.4698188    2.7472659 
C     1.8284837    1.7799537    4.1508046 
C     2.5633817   -2.2813814    1.7527020 
C     3.8025308   -0.0747113    1.7070988 
H    -2.0836646   -3.5865125    0.9735675 
H    -0.5145541   -3.0109102    1.5542312 
H     0.1099031   -0.3509285    4.2390939 
H     0.1846731   -1.8631740    3.3424953 
H    -3.3103991   -1.8239828    2.1660316 
H    -2.2806067   -2.7435049    3.2624786 
H    -2.1831081   -0.3911531    3.8621491 
H    -1.8075897    0.1050792    2.2133703 
H    -3.7006654   -1.7627472   -0.0303245 
H    -1.0372728   -2.4901233   -2.5159979 
H     1.8391587    2.2583269    2.0480559 
H     2.7225985   -0.8846404    3.4032456 
H    -4.5634679   -1.0828502   -2.2776407 
H    -2.9049029   -0.9136294   -2.8919628 
H    -3.5180903   -2.5141612   -2.3966910 
H    -3.0093886    0.5554197    0.6882897 
H    -4.3277099    0.6204164   -0.5117735 
H    -2.6459024    0.9710561   -1.0078347 
H    -1.4569906   -4.8924340   -2.3980901 
H    -1.3176465   -4.9214270   -0.6263461 
H    -2.7196099   -4.1304174   -1.4005183 
H     1.2979592   -2.3763447   -1.5790176 
H     0.9708993   -3.9637742   -2.3343422 
H     0.9637738   -3.8054941   -0.5613523 
H    -0.8743645    2.0581362    3.5065136 
H    -0.0360702    3.5394678    2.9732998 
H    -0.6757087    2.3975152    1.7596630 
H     2.8371064    1.3348815    4.1556251 
H     1.2189351    1.2652054    4.9149809 
H     1.9307256    2.8318698    4.4714369 
H     2.4410260   -2.2730797    0.6560666 
H     3.5059955   -2.8062886    1.9874358 
H     1.7402119   -2.8744967    2.1869124 
H     3.8692009    0.9602426    2.0793354 
H     3.7326587   -0.0411731    0.6062387 
H     4.7448877   -0.5890033    1.9654262 
