83
Energy =
C     0.8194805   -0.0044357   -2.6883601 
C     1.0511952    1.2657697   -2.1152296 
C     2.0402632    1.4515849   -1.1086623 
H     0.3872814    2.0988310   -2.3772607 
Pd    0.4468441    0.0119262   -0.4019524 
P     0.9365939    0.2932480    1.8903900 
P    -1.4020403   -1.4531402   -0.1918025 
H     1.6318475   -0.7421552   -2.6022959 
H     2.8859824    0.7488364   -1.1078062 
C    -1.9969475   -0.9307153   -5.8056649 
C    -2.1910595    0.2148212   -5.0142480 
C    -1.2800880    0.5371013   -4.0039038 
C    -0.1545073   -0.2839803   -3.7559162 
C     0.0366316   -1.4227505   -4.5728726 
C    -0.8746668   -1.7434775   -5.5863342 
H    -2.7135083   -1.1815482   -6.5943060 
H    -3.0590587    0.8593683   -5.1875764 
H    -1.4553882    1.4263099   -3.3908678 
H     0.9113181   -2.0606429   -4.4062311 
H    -0.7069058   -2.6284707   -6.2086627 
C     2.8773514    5.1898912    0.8673750 
C     1.6427121    5.0036165    0.2227096 
C     1.3622958    3.8007970   -0.4336726 
C     2.3105520    2.7510577   -0.4617756 
C     3.5599416    2.9663943    0.1657090 
C     3.8386995    4.1687412    0.8282284 
H     3.0920981    6.1301202    1.3850931 
H     0.8924640    5.8010794    0.2357240 
H     0.3856319    3.6710862   -0.9105945 
H     4.3252439    2.1829144    0.1193222 
H     4.8127088    4.3122574    1.3072164 
C    -1.3305397   -2.7248007    1.1744544 
C     0.0785559   -0.7960227    3.1269892 
C     0.0880717   -3.0018590    1.7207338 
C     0.3638331   -2.3094850    3.0656817 
C    -2.9182233   -0.4130915    0.2010713 
C    -1.6976654   -2.4891687   -1.7238179 
C     0.4884505    2.0393967    2.4373717 
C     2.7831923    0.0779506    2.1758449 
C    -4.2035259   -1.1590661    0.6044654 
C    -3.1663380    0.6098294   -0.9205170 
C    -3.0266856   -3.2593465   -1.7880054 
C    -0.4875423   -3.4264678   -1.9036377 
C    -0.8578518    2.4493662    1.8110213 
C     0.4825704    2.3124631    3.9519399 
C     3.2400107    0.0273885    3.6445978 
C     3.3352520   -1.1239682    1.3818563 
H    -2.0001918   -2.3878982    1.9855283 
H    -1.7879945   -3.6454540    0.7737031 
H    -1.0018378   -0.5937229    2.9995344 
H     0.3441298   -0.4199687    4.1306466 
H     0.2218296   -4.0887340    1.8600445 
H     0.8446380   -2.6949721    0.9729837 
H     1.4101289   -2.5010698    3.3620723 
H    -0.2605164   -2.7865720    3.8448807 
H    -2.5570244    0.1413756    1.0895870 
H    -1.6846764   -1.7500151   -2.5434326 
H     1.2850377    2.6456288    1.9684305 
H     3.1806887    1.0021782    1.7172821 
H    -4.9156363   -0.4344944    1.0383567 
H    -4.6965966   -1.6282499   -0.2604067 
H    -4.0248864   -1.9404947    1.3618090 
H    -2.2564116    1.1993874   -1.1291760 
H    -3.9684903    1.3087088   -0.6250988 
H    -3.4759242    0.1154610   -1.8579604 
H    -3.0223516   -3.9088198   -2.6815679 
H    -3.1832022   -3.9102706   -0.9092390 
H    -3.8905238   -2.5829206   -1.8775044 
H     0.4690957   -2.8785164   -1.8388233 
H    -0.5378407   -3.9097430   -2.8944209 
H    -0.4750113   -4.2267955   -1.1419727 
H    -1.6996449    1.9064623    2.2783500 
H    -1.0299924    3.5283567    1.9689083 
H    -0.8787897    2.2516283    0.7250924 
H     1.4370392    2.0629043    4.4394969 
H    -0.3244767    1.7599374    4.4637736 
H     0.2986753    3.3887126    4.1183785 
H     2.8159433   -0.8398225    4.1796817 
H     4.3396030   -0.0735138    3.6773748 
H     2.9774489    0.9395040    4.2014204 
H     2.9668611   -1.1355442    0.3405764 
H     3.0580257   -2.0838212    1.8493175 
H     4.4383441   -1.0763861    1.3565521 
