83
Energy =
C     0.6003418    0.3226327   -2.5616735 
C     0.7676060    1.5315100   -1.8560040 
C     1.7777143    1.6818045   -0.8608365 
H     0.0422000    2.3418617   -1.9993706 
Pd    0.3366133    0.0425286   -0.2754512 
P     1.1244952   -0.1898243    1.9425835 
P    -1.4813481   -1.4743257   -0.3290097 
H     1.4327003   -0.3971264   -2.5212986 
H     2.6947839    1.0927440   -0.9976626 
C    -2.0716765   -0.3942041   -5.8564178 
C    -1.1705680   -1.3837026   -5.4330489 
C    -0.3091888   -1.1332872   -4.3586913 
C    -0.3411708    0.1034007   -3.6715422 
C    -1.2430151    1.0967297   -4.1227141 
C    -2.0958852    0.8494215   -5.2033141 
H    -2.7420993   -0.5848223   -6.7004089 
H    -1.1313963   -2.3482211   -5.9494634 
H     0.4078402   -1.9006769   -4.0459044 
H    -1.2733521    2.0767981   -3.6370723 
H    -2.7827351    1.6319830   -5.5411781 
C     2.2575250    5.3203984    1.4012082 
C     0.9799018    4.9241667    0.9725529 
C     0.8173660    3.7451263    0.2381031 
C     1.9289950    2.9331973   -0.0882247 
C     3.2105290    3.3562809    0.3326763 
C     3.3724875    4.5345661    1.0723178 
H     2.3831925    6.2403791    1.9810145 
H     0.1049490    5.5343795    1.2197179 
H    -0.1890904    3.4351700   -0.0645840 
H     4.0899678    2.7621830    0.0650207 
H     4.3746643    4.8448634    1.3856534 
C    -1.9956118   -2.1953440    1.3040500 
C     0.3863610   -1.4832203    3.0728197 
C    -2.0941186   -1.1300741    2.4241010 
C    -1.0686010   -1.3392957    3.5471620 
C    -3.0956115   -0.6166601   -0.8584775 
C    -1.2421907   -2.9764736   -1.4276112 
C     1.1400511    1.4002655    2.9316040 
C     2.8979072   -0.8465550    1.9546603 
C    -3.5802236   -0.9841912   -2.2714654 
C    -2.9699156    0.9098392   -0.6893444 
C    -2.2641269   -4.1051062   -1.1936127 
C     0.2026805   -3.4923704   -1.2977423 
C    -0.2536800    2.0574708    2.9417136 
C     1.7212032    1.2537248    4.3481330 
C     3.0142067   -2.0696422    1.0254257 
C     3.9726602    0.1964010    1.6213752 
H    -2.9631139   -2.7018783    1.1462244 
H    -1.2710211   -2.9886138    1.5612141 
H     1.0560680   -1.5389570    3.9498744 
H     0.5199862   -2.4359429    2.5296933 
H    -1.9523945   -0.1179802    1.9993519 
H    -3.1087121   -1.1360018    2.8575145 
H    -1.3227826   -2.2586163    4.1080412 
H    -1.1482418   -0.5106977    4.2722570 
H    -3.8423305   -0.9856783   -0.1303642 
H    -1.3763636   -2.5731890   -2.4475827 
H     1.8063099    2.0491922    2.3336656 
H     3.0501079   -1.1803499    2.9991104 
H    -4.5063821   -0.4228170   -2.4890727 
H    -2.8428741   -0.7156863   -3.0428143 
H    -3.8135276   -2.0555947   -2.3717021 
H    -2.6401691    1.1930404    0.3249612 
H    -3.9471126    1.3895607   -0.8762394 
H    -2.2449495    1.3232914   -1.4113051 
H    -2.1592922   -4.8657947   -1.9874951 
H    -2.0905569   -4.6104614   -0.2280511 
H    -3.3074686   -3.7482206   -1.2097842 
H     0.9389490   -2.7021050   -1.5236406 
H     0.3690513   -4.3312881   -1.9966008 
H     0.4094920   -3.8646194   -0.2780829 
H    -0.9482399    1.5336804    3.6195074 
H    -0.1666770    3.1012361    3.2887174 
H    -0.6985072    2.0739520    1.9324399 
H     2.7322260    0.8122418    4.3485052 
H     1.0733140    0.6342815    4.9927904 
H     1.7953788    2.2508422    4.8173511 
H     2.8604279   -1.7732852   -0.0281658 
H     4.0221722   -2.5120073    1.1120960 
H     2.2824719   -2.8591844    1.2657087 
H     3.9001685    1.1052616    2.2399560 
H     3.9209973    0.4942013    0.5625596 
H     4.9702588   -0.2465157    1.7895927 
