83
Energy =
C     0.9168390   -0.1806969   -2.5028150 
C     1.0546417    1.1280248   -2.0012166 
C     1.9818708    1.4220143   -0.9545019 
H     0.3811731    1.9172245   -2.3584716 
Pd    0.4343844   -0.0411039   -0.2301582 
P     1.0154156    0.0964530    2.0565947 
P    -1.6195198   -1.2435604   -0.1708090 
H     1.7290469   -0.8874195   -2.2713828 
H     2.8949502    0.8123001   -0.9221178 
C    -1.4510828   -1.4028406   -5.8744273 
C    -0.3612696   -2.1736559   -5.4435526 
C     0.3868474   -1.7681386   -4.3317686 
C     0.0699653   -0.5772390   -3.6371528 
C    -1.0200943    0.1998609   -4.0960422 
C    -1.7756082   -0.2141725   -5.1971979 
H    -2.0429790   -1.7207778   -6.7385760 
H    -0.0960613   -3.0949696   -5.9717392 
H     1.2341181   -2.3760491   -3.9951786 
H    -1.2829295    1.1319947   -3.5854517 
H    -2.6197452    0.3951419   -5.5361597 
C     2.3303667    5.3655090    0.7551233 
C     1.0831216    4.9036807    0.3033012 
C     0.9662519    3.6276433   -0.2571212 
C     2.0927003    2.7799093   -0.3793397 
C     3.3442087    3.2680012    0.0599669 
C     3.4609647    4.5448678    0.6239124 
H     2.4210943    6.3621126    1.1988233 
H     0.1963126    5.5393143    0.3955300 
H    -0.0184383    3.2714798   -0.5781564 
H     4.2365097    2.6442602   -0.0536870 
H     4.4408777    4.9035360    0.9554876 
C    -2.4279042   -1.4067365    1.5019660 
C     0.0514083   -0.9295277    3.2813317 
C    -1.8589116   -2.4608592    2.4660501 
C    -0.3621764   -2.3292597    2.7737183 
C    -2.8910103   -0.2135792   -1.1090587 
C    -1.7102268   -2.9966114   -0.8839175 
C     0.9086406    1.8252254    2.7674322 
C     2.7666358   -0.5166390    2.4050537 
C    -2.7127367    1.2856480   -0.8061227 
C    -4.3577118   -0.6404183   -0.9075367 
C    -0.3173818   -3.6528252   -0.8206184 
C    -2.2894814   -3.0797607   -2.3078768 
C    -0.5230884    2.3628524    2.5841882 
C     1.3913837    1.9467463    4.2231066 
C     2.9871923   -1.9278156    1.8265794 
C     3.8678082    0.4432034    1.9356587 
H    -2.3855214   -0.3961672    1.9492740 
H    -3.4943565   -1.6277083    1.3248150 
H    -0.8333081   -0.3401406    3.5811675 
H     0.6849814   -1.0065316    4.1819982 
H    -2.4345082   -2.3922135    3.4086689 
H    -2.0540729   -3.4735698    2.0676157 
H     0.2111679   -2.5803811    1.8632097 
H    -0.0871554   -3.0901755    3.5244850 
H    -2.6095590   -0.3883882   -2.1630333 
H    -2.3903647   -3.5401094   -0.2007144 
H     1.5766889    2.4162011    2.1150411 
H     2.8037873   -0.5766546    3.5100905 
H    -3.3831290    1.8827808   -1.4497285 
H    -2.9645189    1.5197719    0.2435273 
H    -1.6745014    1.6153481   -0.9868966 
H    -4.5080751   -1.7297592   -0.9898386 
H    -4.9858817   -0.1585270   -1.6777221 
H    -4.7392914   -0.3153565    0.0756607 
H    -0.3787725   -4.7025540   -1.1577865 
H     0.3920843   -3.1213862   -1.4791605 
H     0.1026065   -3.6502757    0.1988183 
H    -3.3379990   -2.7498576   -2.3607054 
H    -2.2573526   -4.1313590   -2.6442501 
H    -1.7026517   -2.4862744   -3.0246765 
H    -1.2383737    1.8592429    3.2596619 
H    -0.5487060    3.4414550    2.8164749 
H    -0.8727984    2.2295849    1.5464346 
H     2.4332124    1.6084378    4.3518240 
H     0.7518446    1.3730685    4.9165575 
H     1.3476459    3.0058030    4.5338562 
H     2.8122187   -1.9380652    0.7345534 
H     4.0302832   -2.2425907    2.0069356 
H     2.3308689   -2.6828988    2.2874068 
H     3.7152087    1.4782695    2.2805813 
H     3.9416208    0.4526238    0.8368385 
H     4.8403055    0.0960092    2.3273459 
