83
Energy =
C     0.8096886    0.1087238   -2.5875251 
C     0.8477960    1.3771434   -1.9838284 
C     1.7632492    1.6600225   -0.9135241 
H     0.1095389    2.1366019   -2.2721609 
Pd    0.3525839    0.0854423   -0.2494261 
P     1.1624790   -0.0458478    1.9570089 
P    -1.6253117   -1.2118917   -0.1457623 
H     1.6276661   -0.5851079   -2.3368347 
H     2.7397502    1.1605585   -0.9628109 
C    -1.4779943   -1.1530816   -5.9978531 
C    -0.6682100   -2.0628123   -5.2999307 
C     0.0757172   -1.6316881   -4.1964762 
C     0.0122665   -0.2882966   -3.7535038 
C    -0.7842178    0.6225043   -4.4885298 
C    -1.5222090    0.1925290   -5.5947856 
H    -2.0574994   -1.4852793   -6.8651612 
H    -0.6087342   -3.1069671   -5.6235764 
H     0.7171771   -2.3408338   -3.6626155 
H    -0.8166447    1.6788302   -4.2041179 
H    -2.1295344    0.9114913   -6.1539251 
C     1.7034650    5.4108830    1.2160716 
C     0.5045963    4.8472515    0.7492218 
C     0.5228807    3.6375893    0.0472657 
C     1.7390225    2.9589785   -0.2042473 
C     2.9382854    3.5505440    0.2528676 
C     2.9200995    4.7609801    0.9579559 
H     1.6894584    6.3550070    1.7699596 
H    -0.4491569    5.3502047    0.9400856 
H    -0.4220719    3.1953425   -0.2886686 
H     3.8951873    3.0619266    0.0440518 
H     3.8614332    5.2024219    1.3013022 
C    -2.2361346   -1.8494861    1.4981091 
C     0.3845452   -1.3472666    3.0434284 
C    -1.4377943   -2.9669759    2.1882233 
C     0.0644297   -2.6823269    2.3260647 
C    -3.1044265   -0.1329920   -0.6036647 
C    -1.6924340   -2.6524978   -1.3410755 
C     1.0101389    1.5292564    2.9584366 
C     2.9796386   -0.5543472    2.0531339 
C    -3.0781555    0.2981669   -2.0753943 
C    -3.1892843    1.0994005    0.3153399 
C    -3.0016921   -3.4574115   -1.2944424 
C    -0.4470149   -3.5501892   -1.2179213 
C    -0.4618457    1.9784084    2.9943612 
C     1.6208138    1.4424999    4.3683948 
C     3.2577264   -1.8020640    1.1932495 
C     3.9676787    0.5704242    1.7124380 
H    -2.2764904   -0.9550634    2.1457414 
H    -3.2837096   -2.1692914    1.3504272 
H     1.0750770   -1.5069945    3.8896742 
H    -0.5280880   -0.9003705    3.4759950 
H    -1.8785013   -3.1244073    3.1908800 
H    -1.5753216   -3.9182567    1.6440088 
H     0.5148304   -2.6840744    1.3162657 
H     0.5380208   -3.5167145    2.8714815 
H    -3.9912021   -0.7716230   -0.4252846 
H    -1.6269506   -2.1393913   -2.3190080 
H     1.5735661    2.2698690    2.3606030 
H     3.1115039   -0.8229375    3.1192766 
H    -3.9888296    0.8772497   -2.3095819 
H    -2.2081237    0.9467149   -2.2688118 
H    -3.0317180   -0.5500443   -2.7774349 
H    -3.2446878    0.8380099    1.3846798 
H    -4.0923946    1.6848283    0.0687099 
H    -2.3105797    1.7526179    0.1667202 
H    -2.9985530   -4.2147062   -2.0986931 
H    -3.1174911   -3.9943966   -0.3366757 
H    -3.8904190   -2.8212171   -1.4442304 
H     0.4818296   -2.9520380   -1.2006207 
H    -0.3976354   -4.2381486   -2.0804248 
H    -0.4723680   -4.1688302   -0.3053110 
H    -1.0828453    1.2998495    3.6071811 
H    -0.5321640    2.9862393    3.4386124 
H    -0.8909176    2.0232149    1.9808462 
H     2.6867527    1.1602133    4.3534593 
H     1.0795143    0.7187112    5.0025596 
H     1.5471540    2.4296013    4.8583673 
H     3.0154043   -1.6088272    0.1315577 
H     4.3291002   -2.0627975    1.2548191 
H     2.6834053   -2.6823827    1.5220193 
H     3.7638767    1.5077057    2.2540583 
H     3.9628359    0.7884763    0.6331796 
H     4.9891729    0.2434423    1.9757454 
