83
Energy =
C     0.7450416    0.1313993   -2.6388810 
C     0.8308874    1.4088454   -2.0319910 
C     1.7826442    1.6940348   -1.0218045 
H     0.0778796    2.1662103   -2.2808166 
Pd    0.3633595    0.0221153   -0.3701892 
P     0.6494704    0.4602840    1.9429151 
P    -0.9580551   -1.9386236   -0.3262753 
H     1.6458832   -0.4987045   -2.6041863 
H     2.6775315    1.0543681   -0.9845720 
C    -1.9951098   -0.9086133   -5.7950255 
C    -0.8107787   -1.6365256   -5.6047968 
C     0.0750992   -1.2817227   -4.5800119 
C    -0.2053522   -0.1964118   -3.7174844 
C    -1.3939221    0.5402813   -3.9367979 
C    -2.2770498    0.1870872   -4.9615755 
H    -2.6904180   -1.1856850   -6.5938171 
H    -0.5727379   -2.4799750   -6.2610019 
H     1.0031463   -1.8471459   -4.4463060 
H    -1.6450566    1.3835515   -3.2857660 
H    -3.1937899    0.7669882   -5.1104577 
C     2.3000242    5.4972915    0.9352837 
C     3.3250596    4.5395960    0.9456886 
C     3.1472956    3.3151824    0.2894186 
C     1.9377651    3.0133900   -0.3801463 
C     0.9270981    4.0032450   -0.4067590 
C     1.1061126    5.2274563    0.2446321 
H     2.4346680    6.4547746    1.4483998 
H     4.2694743    4.7500724    1.4578840 
H     3.9630019    2.5829467    0.2799788 
H    -0.0173573    3.8111008   -0.9247001 
H     0.3088543    5.9774063    0.2161982 
C    -1.9173805   -2.2858518    1.2336743 
C    -0.0603735   -0.7274217    3.1842536 
C    -2.3691321   -1.0245129    2.0031497 
C    -1.5954684   -0.7894187    3.3087098 
C    -2.3026939   -1.8921337   -1.6343414 
C    -0.0437593   -3.5548409   -0.6011115 
C     0.0427917    2.1764879    2.4213349 
C     2.4996939    0.4313722    2.2962647 
C    -3.2313265   -0.6909552   -1.3769985 
C    -3.0910512   -3.2011707   -1.8046525 
C     1.0479496   -3.7683714    0.4610295 
C     0.5447119   -3.6449917   -2.0170214 
C    -1.2618879    2.5250239    1.6776834 
C    -0.0977322    2.4502245    3.9305910 
C     2.9388754    0.6508049    3.7538189 
C     3.1318763   -0.8443897    1.7106612 
H    -2.7823975   -2.9019670    0.9332316 
H    -1.2943627   -2.9364099    1.8717017 
H     0.3533199   -1.7155529    2.9110545 
H     0.3720886   -0.4701448    4.1672239 
H    -2.2735582   -0.1346517    1.3535055 
H    -3.4427472   -1.1061173    2.2464358 
H    -1.8341435   -1.6011465    4.0218584 
H    -1.9652739    0.1399580    3.7759039 
H    -1.7457844   -1.6966600   -2.5668778 
H    -0.8190368   -4.3359507   -0.4780526 
H     0.8449510    2.8227108    2.0187231 
H     2.8474839    1.2944177    1.7010930 
H    -3.8854292   -0.5340727   -2.2519423 
H    -3.8786248   -0.8580182   -0.4978426 
H    -2.6565645    0.2379828   -1.2111069 
H    -2.4460279   -4.0503462   -2.0847740 
H    -3.8331682   -3.0713236   -2.6123018 
H    -3.6491111   -3.4756008   -0.8914133 
H     1.5039934   -4.7653956    0.3306908 
H     1.8453160   -3.0144047    0.3573487 
H     0.6577117   -3.7179590    1.4921175 
H    -0.2172871   -3.5206366   -2.8032849 
H     1.0223101   -4.6301374   -2.1604919 
H     1.3196657   -2.8724469   -2.1640771 
H    -2.1299749    2.0067016    2.1202659 
H    -1.4493568    3.6106678    1.7466740 
H    -1.2082453    2.2513321    0.6089856 
H     0.8262894    2.2534432    4.4937285 
H    -0.9067458    1.8513784    4.3817541 
H    -0.3561661    3.5140011    4.0777603 
H     2.5527050   -0.1320424    4.4295440 
H     4.0417394    0.6096470    3.8048728 
H     2.6311209    1.6339165    4.1413913 
H     2.8621061   -0.9796287    0.6478204 
H     2.8150923   -1.7463489    2.2632864 
H     4.2323501   -0.7832696    1.7811105 
