83
Energy =
C     0.3202673    0.4203211   -2.5747532 
C     0.7919321    1.5806705   -1.9017611 
C     1.9519449    1.5343303   -1.0944703 
H     0.1862418    2.4946103   -1.9231776 
Pd    0.3256203    0.0948220   -0.3333460 
P     0.8131456    0.2197165    1.9720845 
P    -1.1341489   -1.7750144   -0.4675823 
H     1.0706926   -0.3450992   -2.8227502 
H     2.6397057    0.6928543   -1.2679502 
C    -3.2480777    0.2224564   -4.9816038 
C    -3.1175705    1.2288127   -4.0092739 
C    -1.9586166    1.3141738   -3.2316340 
C    -0.8989014    0.3932947   -3.4062367 
C    -1.0327027   -0.5936453   -4.4110348 
C    -2.1962565   -0.6831965   -5.1857130 
H    -4.1593302    0.1541451   -5.5842438 
H    -3.9286288    1.9476705   -3.8533519 
H    -1.8883793    2.0907487   -2.4631588 
H    -0.2065665   -1.2903560   -4.5946237 
H    -2.2776420   -1.4559743   -5.9569968 
C     3.8720217    4.8669552    0.8373182 
C     2.6016613    5.0386556    0.2621555 
C     1.9557498    3.9645986   -0.3588504 
C     2.5691599    2.6910593   -0.4229333 
C     3.8574556    2.5402592    0.1424576 
C     4.4995737    3.6133852    0.7716931 
H     4.3735236    5.7092587    1.3242608 
H     2.1123380    6.0172672    0.2980337 
H     0.9681930    4.1249896   -0.8025564 
H     4.3611874    1.5691679    0.0745408 
H     5.4963417    3.4747291    1.2026300 
C    -1.3736752   -2.9063987    0.9921542 
C    -0.0810533   -1.0078437    3.0401821 
C    -2.1221468   -2.3649446    2.2241291 
C    -1.6043684   -1.0243593    2.7639884 
C    -2.8507362   -1.3331945   -1.0948136 
C    -0.3399125   -2.9266983   -1.7317339 
C     0.2737235    1.8615541    2.7619739 
C     2.6215629   -0.0523720    2.3927925 
C    -3.3353447   -0.0188249   -0.4516364 
C    -3.9174644   -2.4359854   -0.9593864 
C    -1.1272099   -4.1865971   -2.1273101 
C     1.0958601   -3.2662976   -1.2847346 
C     1.4291782    2.8263601    3.0799094 
C    -0.7962989    2.5427814    1.8866242 
C     2.8872230   -0.3157168    3.8873511 
C     3.2042973   -1.1753375    1.5144549 
H    -1.8909638   -3.8064490    0.6157137 
H    -0.3548305   -3.2310004    1.2707542 
H     0.1325270   -0.7525103    4.0921315 
H     0.3778768   -1.9966764    2.8613862 
H    -3.1970709   -2.2616137    1.9937229 
H    -2.0531183   -3.1337965    3.0166038 
H    -2.1540329   -0.7743514    3.6874043 
H    -1.8619785   -0.2314121    2.0367989 
H    -2.6682097   -1.1408901   -2.1685320 
H    -0.2791275   -2.2776231   -2.6217643 
H    -0.1966794    1.5577461    3.7164392 
H     3.1004881    0.9003970    2.1022131 
H    -4.2158857    0.3601993   -0.9987817 
H    -3.6344539   -0.1717477    0.6001846 
H    -2.5532193    0.7592856   -0.4780382 
H    -3.6162879   -3.3893918   -1.4180375 
H    -4.8426150   -2.1023012   -1.4620619 
H    -4.1704447   -2.6288959    0.0969385 
H    -0.5270855   -4.7727051   -2.8464213 
H    -1.3345963   -4.8440188   -1.2650768 
H    -2.0801562   -3.9396302   -2.6211333 
H     1.6640943   -2.3569089   -1.0180580 
H     1.6309296   -3.7796954   -2.1029114 
H     1.1044715   -3.9420973   -0.4110812 
H     1.9854093    3.1139153    2.1753921 
H     1.0115400    3.7493273    3.5200166 
H     2.1415532    2.4077787    3.8077594 
H    -1.6566841    1.8824199    1.6868867 
H    -0.3687604    2.8473735    0.9156170 
H    -1.1735160    3.4487399    2.3934485 
H     2.5284724   -1.3150088    4.1882842 
H     3.9746037   -0.2840465    4.0782633 
H     2.4111863    0.4308871    4.5449151 
H     3.1013804   -0.9462499    0.4402615 
H     2.7035534   -2.1421948    1.7036181 
H     4.2780608   -1.3086462    1.7360273 
