83
Energy =
C     0.6743775    0.1123639   -2.6759871 
C     0.8510443    1.3742975   -2.0768530 
C     1.8160564    1.5679881   -1.0382503 
H     0.1738307    2.1961438   -2.3408781 
Pd    0.2843565    0.1176136   -0.3373766 
P     1.1006016    0.1541520    1.8790074 
P    -1.5941483   -1.2981734   -0.1522482 
H     1.4552612   -0.6400678   -2.4853024 
H     2.7123390    0.9319102   -1.0787808 
C    -1.8555129   -0.9029060   -6.0004427 
C    -1.0434683   -1.8728054   -5.3925809 
C    -0.2206207   -1.5212912   -4.3165919 
C    -0.2038065   -0.1989097   -3.8117337 
C    -1.0065217    0.7725800   -4.4559388 
C    -1.8229799    0.4227295   -5.5350491 
H    -2.4970416   -1.1727033   -6.8454180 
H    -1.0434066   -2.9022531   -5.7652594 
H     0.4250809   -2.2774190   -3.8569161 
H    -0.9890904    1.8134817   -4.1180122 
H    -2.4348183    1.1887020   -6.0222881 
C     2.3417907    5.2576137    1.1302367 
C     1.0915610    4.9475697    0.5685724 
C     0.9162945    3.7620852   -0.1523576 
C     1.9872653    2.8549822   -0.3304315 
C     3.2464033    3.1960022    0.2156612 
C     3.4208736    4.3806598    0.9431799 
H     2.4753173    6.1826285    1.7000983 
H     0.2468630    5.6316033    0.7008604 
H    -0.0718455    3.5243242   -0.5611612 
H     4.1022240    2.5303609    0.0538421 
H     4.4049611    4.6240572    1.3568349 
C    -2.0591604   -1.9645420    1.5263989 
C     0.5495816   -1.2226719    3.0014206 
C    -1.1318468   -3.0016635    2.1824698 
C     0.3420628   -2.5811162    2.2872907 
C    -3.1913081   -0.3948409   -0.5839702 
C    -1.5574130   -2.7654188   -1.3183022 
C     0.7378800    1.7349588    2.8273971 
C     2.9709218   -0.0418456    1.7831320 
C    -3.2164013    0.0576748   -2.0499204 
C    -3.4234407    0.8051300    0.3514329 
C    -2.7683964   -3.7051905   -1.1930936 
C    -0.2190850   -3.5241613   -1.2483352 
C    -0.6915913    2.2020084    2.4987164 
C     0.9360373    1.6511237    4.3536839 
C     3.7441272    0.0744443    3.1067120 
C     3.3349166   -1.3361251    1.0290170 
H    -2.1454235   -1.0706591    2.1702102 
H    -3.0802172   -2.3783694    1.4372126 
H    -0.3809024   -0.8850037    3.4920918 
H     1.3007401   -1.3018454    3.8061869 
H    -1.5264570   -3.2045292    3.1961926 
H    -1.1948627   -3.9598767    1.6369879 
H     0.7763798   -2.5444233    1.2711746 
H     0.8973868   -3.3682940    2.8258797 
H    -3.9937024   -1.1390345   -0.4149698 
H    -1.5986784   -2.2686025   -2.3058228 
H     1.4532041    2.4630747    2.3992127 
H     3.2554596    0.8189790    1.1546412 
H    -2.4326343    0.8116567   -2.2312254 
H    -3.0642452   -0.7672842   -2.7652520 
H    -4.1916342    0.5224609   -2.2785955 
H    -4.3874465    1.2835891    0.1043162 
H    -2.6272849    1.5586056    0.2205716 
H    -3.4584944    0.5217337    1.4160650 
H    -2.7215097   -4.4739958   -1.9849601 
H    -2.7798447   -4.2320226   -0.2228775 
H    -3.7270482   -3.1719179   -1.3088216 
H     0.6415264   -2.8333767   -1.2995905 
H    -0.1456159   -4.2277339   -2.0965913 
H    -0.1263934   -4.1161833   -0.3226556 
H    -1.4440771    1.4921922    2.8880866 
H    -0.8829029    3.1836934    2.9664198 
H    -0.8431865    2.3025208    1.4126531 
H     1.9357983    1.2998785    4.6470761 
H     0.1882951    0.9856764    4.8189243 
H     0.7934893    2.6565803    4.7878613 
H     3.4162192   -0.6701498    3.8538045 
H     4.8162951   -0.1105116    2.9136927 
H     3.6584814    1.0798204    3.5477937 
H     2.7599701   -1.4425214    0.0905971 
H     3.1498842   -2.2315752    1.6473739 
H     4.4093065   -1.3276355    0.7738502 
