83
Energy =
C     0.1496824    0.3567899   -2.5985928 
C     0.5960403    1.5195932   -1.9189759 
C     1.7782608    1.5159220   -1.1453794 
H    -0.0343801    2.4167401   -1.9297777 
Pd    0.2147078    0.0165309   -0.3341292 
P     0.9238557    0.1007286    1.9341137 
P    -1.2996346   -1.8060451   -0.2825339 
H     0.9131910   -0.3959377   -2.8419218 
H     2.4975642    0.7082132   -1.3463011 
C    -3.3070361    0.2328870   -5.1646258 
C    -3.2332963    1.1932894   -4.1416344 
C    -2.1156196    1.2471532   -3.3031440 
C    -1.0426439    0.3391870   -3.4667478 
C    -1.1219824   -0.6068344   -4.5151924 
C    -2.2428768   -0.6620531   -5.3526744 
H    -4.1853451    0.1896891   -5.8165662 
H    -4.0558610    1.9008321   -3.9943981 
H    -2.0893927    1.9862960   -2.4958451 
H    -0.2899174   -1.2997599   -4.6770658 
H    -2.2828842   -1.4018497   -6.1587910 
C     3.6185429    4.9811122    0.6250124 
C     2.2805624    5.0481025    0.2006844 
C     1.6600108    3.9270662   -0.3597006 
C     2.3667380    2.7108504   -0.5153010 
C     3.7187584    2.6658173   -0.1005292 
C     4.3366024    3.7857405    0.4692718 
H     4.1000008    5.8594208    1.0664174 
H     1.7174851    5.9804380    0.3107294 
H     0.6152567    4.0022400   -0.6772633 
H     4.2925790    1.7429382   -0.2439431 
H     5.3840956    3.7291006    0.7823898 
C    -2.0032030   -2.3338488    1.3622556 
C     0.2990665   -1.2309165    3.0792667 
C    -2.2087313   -1.1813593    2.3685137 
C    -1.1784860   -1.1690462    3.5063129 
C    -2.8501343   -1.4925069   -1.2915558 
C    -0.5766651   -3.4142243   -0.9298057 
C     0.4733453    1.6888435    2.8700724 
C     2.7919477   -0.0953927    2.0636476 
C    -3.6144795   -0.2917226   -0.7030904 
C    -3.7616764   -2.7163487   -1.4802904 
C     0.6984573   -3.7879744   -0.1541112 
C    -0.3031525   -3.3697227   -2.4404377 
C     1.6248446    2.6943857    3.0465817 
C    -0.7441105    2.3577659    2.2033173 
C     3.3272666   -0.3271398    3.4897932 
C     3.3049265   -1.1881328    1.1085207 
H    -2.9569983   -2.8400291    1.1350104 
H    -1.3428799   -3.1136389    1.7798106 
H     0.9275215   -1.1888358    3.9855268 
H     0.5295869   -2.1910337    2.5830006 
H    -2.1805577   -0.2134538    1.8352067 
H    -3.2175521   -1.2515078    2.8111095 
H    -1.3609923   -2.0374228    4.1675010 
H    -1.3475802   -0.2747489    4.1335106 
H    -2.4589874   -1.1948069   -2.2790107 
H    -1.3574298   -4.1726125   -0.7249870 
H     0.1744388    1.3325665    3.8740511 
H     3.1536331    0.8833367    1.6996055 
H    -4.3968368    0.0314129   -1.4110563 
H    -4.1086871   -0.5516494    0.2497597 
H    -2.9442698    0.5676818   -0.5227851 
H    -3.2469843   -3.5561641   -1.9754824 
H    -4.6166952   -2.4312787   -2.1186866 
H    -4.1775828   -3.0803845   -0.5238031 
H     1.0715587   -4.7690625   -0.4966942 
H     1.4917087   -3.0410020   -0.3291027 
H     0.5288954   -3.8623701    0.9338073 
H    -1.1964674   -3.1044201   -3.0282897 
H     0.0465007   -4.3593716   -2.7833181 
H     0.4903941   -2.6381635   -2.6704706 
H     2.0151473    3.0475183    2.0816693 
H     1.2426864    3.5754242    3.5921845 
H     2.4622188    2.2844160    3.6311515 
H    -1.6043874    1.6734220    2.1183993 
H    -0.4869035    2.7060837    1.1877035 
H    -1.0643984    3.2328163    2.7958937 
H     3.1353570   -1.3603641    3.8271483 
H     4.4217956   -0.1794128    3.4959023 
H     2.8944485    0.3622323    4.2334865 
H     2.9540858   -1.0304376    0.0739012 
H     2.9744724   -2.1910101    1.4310756 
H     4.4094600   -1.1905871    1.1006952 
