83
Energy =
C     0.6307187   -0.0432618   -2.6592670 
C     0.8375001    1.2490009   -2.1279200 
C     1.8587545    1.4886346   -1.1634052 
H     0.1370285    2.0532395   -2.3856746 
Pd    0.3669028    0.0085594   -0.3643874 
P     1.1077105    0.2776285    1.8705723 
P    -1.4979385   -1.4269301   -0.1146725 
H     1.4709358   -0.7501076   -2.5783431 
H     2.7389258    0.8295764   -1.2021637 
C    -2.1438972   -1.0640546   -5.7835263 
C    -2.4201273    0.0278972   -4.9423763 
C    -1.5315186    0.3734394   -3.9192318 
C    -0.3508724   -0.3758484   -3.7056008 
C    -0.0850498   -1.4695100   -4.5618811 
C    -0.9688387   -1.8063973   -5.5947662 
H    -2.8404584   -1.3295513   -6.5851050 
H    -3.3330244    0.6143685   -5.0891616 
H    -1.7636833    1.2259257   -3.2727208 
H     0.8287462   -2.0563134   -4.4151356 
H    -0.7414895   -2.6526043   -6.2509022 
C     2.5427524    5.2696502    0.7902546 
C     1.2778794    4.9804043    0.2502935 
C     1.0493577    3.7638043   -0.4001005 
C     2.0806341    2.8036070   -0.5279851 
C     3.3562440    3.1239085   -0.0075988 
C     3.5837777    4.3395966    0.6504260 
H     2.7174479    6.2196450    1.3052151 
H     0.4635981    5.7064569    0.3433564 
H     0.0502262    3.5485856   -0.7930097 
H     4.1831297    2.4155336   -0.1343305 
H     4.5794503    4.5651824    1.0459492 
C    -2.0250284   -1.7692991    1.6395806 
C     0.5442186   -0.9444035    3.1547420 
C    -1.1641941   -2.7473126    2.4597281 
C     0.3172609   -2.3738001    2.6142423 
C    -3.0088045   -0.5661469   -0.8388009 
C    -1.4443631   -3.1538108   -0.8901447 
C     0.7124858    1.9573359    2.6145918 
C     2.9795862    0.0819260    1.8332451 
C    -2.9981004    0.9383121   -0.5136246 
C    -4.3596969   -1.2033907   -0.4623218 
C     0.0159877   -3.6339776   -0.9926108 
C    -2.1550867   -3.2654348   -2.2508613 
C    -0.7138971    2.3631441    2.1997960 
C     0.8789194    2.0636184    4.1430774 
C     3.7316725    0.3840039    3.1389353 
C     3.3565711   -1.3005057    1.2644830 
H    -2.0823880   -0.7812377    2.1327765 
H    -3.0565360   -2.1594384    1.5967445 
H    -0.3789003   -0.5419999    3.6089968 
H     1.3030433   -0.9330396    3.9562617 
H    -1.6236179   -2.8233859    3.4636111 
H    -1.2333356   -3.7598308    2.0213430 
H     0.8252370   -2.4902720    1.6398976 
H     0.7926901   -3.1037071    3.2922724 
H    -2.8477395   -0.6809835   -1.9261991 
H    -1.9791442   -3.7974038   -0.1656129 
H     1.4301142    2.6377344    2.1192610 
H     3.2702214    0.8497052    1.0968019 
H    -3.8256403    1.4420220   -1.0442082 
H    -3.1336408    1.1218321    0.5665264 
H    -2.0493095    1.4131733   -0.8213215 
H    -4.3671958   -2.3004327   -0.5766744 
H    -5.1505976   -0.7951010   -1.1163263 
H    -4.6399510   -0.9652882    0.5783035 
H     0.0460282   -4.6763893   -1.3556680 
H     0.5816379   -3.0067489   -1.7042120 
H     0.5391440   -3.5997481   -0.0226518 
H    -3.2358839   -3.0683527   -2.1837592 
H    -2.0309227   -4.2940124   -2.6339487 
H    -1.7231389   -2.5806438   -2.9961061 
H    -1.4685231    1.7010824    2.6638122 
H    -0.9241795    3.3943609    2.5336483 
H    -0.8457286    2.3197503    1.1072881 
H     1.8742215    1.7574806    4.4966187 
H     0.1247656    1.4571038    4.6736458 
H     0.7248411    3.1145424    4.4460072 
H     3.3977052   -0.2542528    3.9763906 
H     4.8079387    0.1842583    2.9883849 
H     3.6315503    1.4397932    3.4365024 
H     2.7985020   -1.5307183    0.3378098 
H     3.1609599   -2.1064907    1.9930785 
H     4.4354192   -1.3236860    1.0298461 
