83
Energy =
C     0.3148717    0.3250077   -2.6362253 
C     0.7586390    1.4980889   -1.9738656 
C     1.8974700    1.4944862   -1.1318654 
H     0.1450377    2.4049644   -2.0342073 
Pd    0.2877964    0.0483263   -0.3694407 
P     0.9706202    0.2131474    1.8857055 
P    -1.2154963   -1.7751607   -0.3023057 
H     1.0658559   -0.4573887   -2.8175176 
H     2.6311737    0.6886749   -1.2870872 
C    -2.9741510    0.2114132   -5.4140384 
C    -2.9115946    1.2350567   -4.4530172 
C    -1.8591815    1.2763700   -3.5327663 
C    -0.8363837    0.2988128   -3.5584936 
C    -0.9084311   -0.7189388   -4.5375120 
C    -1.9680509   -0.7654765   -5.4525741 
H    -3.8014649    0.1790391   -6.1299798 
H    -3.6933395    2.0007181   -4.4173307 
H    -1.8412370    2.0703316   -2.7787254 
H    -0.1128098   -1.4712770   -4.5887659 
H    -2.0031453   -1.5609125   -6.2040052 
C     3.5074845    4.8990520    0.9601658 
C     2.2018033    4.9552615    0.4429605 
C     1.6682455    3.8650557   -0.2509394 
C     2.4257722    2.6847652   -0.4396855 
C     3.7514900    2.6593659    0.0550691 
C     4.2850651    3.7500793    0.7527979 
H     3.9202693    5.7531456    1.5063798 
H     1.5963977    5.8568760    0.5821002 
H     0.6460543    3.9309355   -0.6350008 
H     4.3748336    1.7760545   -0.1260923 
H     5.3132060    3.7065431    1.1264475 
C    -1.2222130   -2.8099629    1.2495124 
C     0.1876621   -0.8749780    3.1672354 
C    -1.8994773   -2.2496797    2.5134484 
C    -1.3525323   -0.9160018    3.0455284 
C    -3.0491122   -1.3989480   -0.5739515 
C    -0.7135025   -3.0432751   -1.6001854 
C     0.6868988    1.9719222    2.5062374 
C     2.8040084   -0.1548542    2.0216289 
C    -3.5355222   -1.5739711   -2.0232055 
C    -3.3661743    0.0190112   -0.0605980 
C    -1.4850570   -4.3761923   -1.5409558 
C     0.8064686   -3.2913698   -1.5608387 
C    -0.5838028    2.5741105    1.8722745 
C     0.6576488    2.1466166    4.0350211 
C     3.4160009   -0.0320771    3.4270847 
C     3.0921457   -1.5282106    1.3838772 
H    -1.7178497   -3.7597675    0.9839910 
H    -0.1628265   -3.0568275    1.4467666 
H     0.5045048   -0.5004322    4.1546197 
H     0.6311864   -1.8812638    3.0673285 
H    -2.9863741   -2.1471243    2.3401540 
H    -1.7926433   -3.0204014    3.3000654 
H    -1.8095242   -0.7174038    4.0304031 
H    -1.6927319   -0.0958067    2.3873711 
H    -3.5758829   -2.1364289    0.0620954 
H    -0.9612316   -2.5254054   -2.5451711 
H     1.5635842    2.5094062    2.0987014 
H     3.2520045    0.6255745    1.3815442 
H    -4.6117586   -1.3298322   -2.0661183 
H    -3.0141566   -0.8949640   -2.7126106 
H    -3.4168090   -2.6033399   -2.3938836 
H    -3.0847027    0.1571714    0.9960968 
H    -4.4485568    0.2179240   -0.1504272 
H    -2.8254847    0.7757001   -0.6566403 
H    -1.3081333   -4.9412076   -2.4732805 
H    -1.1336468   -5.0072260   -0.7064468 
H    -2.5743381   -4.2425510   -1.4342721 
H     1.3802891   -2.3534247   -1.6535299 
H     1.0996740   -3.9570112   -2.3919655 
H     1.1118299   -3.7830119   -0.6198639 
H    -1.4973388    2.1481479    2.3228045 
H    -0.6036835    3.6649809    2.0410373 
H    -0.6269007    2.3889466    0.7845002 
H     1.5412327    1.7242009    4.5383311 
H    -0.2446965    1.6863370    4.4746848 
H     0.6232373    3.2248070    4.2724426 
H     2.9465607   -0.7249985    4.1471435 
H     4.4901070   -0.2862217    3.3788705 
H     3.3389264    0.9930354    3.8231147 
H     2.6846076   -1.5939833    0.3597145 
H     2.6590994   -2.3542748    1.9767119 
H     4.1821864   -1.6978807    1.3334188 
