83
Energy =
C     0.3496579    0.3208859   -2.5587224 
C     0.6144315    1.5411220   -1.8975753 
C     1.7285426    1.6895797   -1.0317883 
H    -0.1003472    2.3674440   -1.9911369 
Pd    0.2894230    0.0825376   -0.2586787 
P     1.0025626    0.1313043    2.0013106 
P    -1.2507913   -1.7289284   -0.2241964 
H     1.1870048   -0.3874973   -2.6420525 
H     2.5740847    1.0059921   -1.1944873 
C    -2.6477671   -0.2808035   -5.5885422 
C    -2.7211935    0.8489790   -4.7562584 
C    -1.7672142    1.0516076   -3.7540078 
C    -0.7105367    0.1296941   -3.5638157 
C    -0.6402707   -0.9926529   -4.4224358 
C    -1.6011068   -1.1997327   -5.4195998 
H    -3.3981832   -0.4378545   -6.3697603 
H    -3.5299154    1.5748401   -4.8889108 
H    -1.8488106    1.9363918   -3.1148335 
H     0.1897480   -1.7001241   -4.3124566 
H    -1.5269345   -2.0745445   -6.0736288 
C     2.8148542    5.3777279    0.9082056 
C     1.4789817    5.1552860    0.5336425 
C     1.1126088    3.9641074   -0.1003770 
C     2.0749477    2.9635835   -0.3745392 
C     3.4192892    3.2122791   -0.0118953 
C     3.7849580    4.4042340    0.6254664 
H     3.0979625    6.3088592    1.4093353 
H     0.7178860    5.9140938    0.7431163 
H     0.0618665    3.7994355   -0.3604291 
H     4.1842477    2.4632038   -0.2409604 
H     4.8316271    4.5763789    0.8966120 
C    -1.4215919   -2.6773953    1.3712827 
C    -0.0632220   -0.6933346    3.2911691 
C    -2.1571779   -1.9883657    2.5347901 
C    -1.5775524   -0.6436270    2.9955852 
C    -3.0498059   -1.2798929   -0.6271862 
C    -0.7404662   -3.0705907   -1.4428260 
C     1.1571957    1.8748440    2.6775372 
C     2.6689100   -0.6855037    2.2916857 
C    -3.5090492   -1.6313426   -2.0532763 
C    -3.2945515    0.2104395   -0.3220161 
C    -1.5089936   -4.3997419   -1.3101226 
C     0.7783159   -3.3167974   -1.3978660 
C    -0.2226634    2.5589687    2.6600666 
C     1.8324901    1.9804642    4.0550410 
C     2.6539768   -2.1436774    1.8013091 
C     3.8239272    0.0954072    1.6475393 
H    -1.9521385   -3.6138443    1.1271564 
H    -0.3958908   -2.9654483    1.6643322 
H     0.1735672   -0.1910782    4.2447519 
H     0.2857951   -1.7342518    3.4065898 
H    -3.2217069   -1.8490517    2.2719311 
H    -2.1490947   -2.6949248    3.3863654 
H    -2.1211385   -0.3205900    3.9004411 
H    -1.7809457    0.1277938    2.2303746 
H    -3.6429198   -1.8877459    0.0821307 
H    -0.9897249   -2.6076943   -2.4149594 
H     1.7974819    2.3828189    1.9368794 
H     2.7949003   -0.6777518    3.3919897 
H    -4.5610131   -1.3164590   -2.1723626 
H    -2.9188500   -1.1059265   -2.8173143 
H    -3.4641988   -2.7109690   -2.2610349 
H    -3.0280839    0.4753785    0.7145040 
H    -4.3610459    0.4550279   -0.4708655 
H    -2.6981399    0.8474134   -0.9984587 
H    -1.3230632   -5.0183409   -2.2060289 
H    -1.1620151   -4.9779200   -0.4363226 
H    -2.5995214   -4.2640202   -1.2202011 
H     1.3524416   -2.3812374   -1.5130417 
H     1.0708760   -4.0027838   -2.2126581 
H     1.0806103   -3.7870197   -0.4457260 
H    -0.8872785    2.1540401    3.4436482 
H    -0.1017699    3.6398871    2.8465637 
H    -0.7240792    2.4374096    1.6833237 
H     2.8553700    1.5691000    4.0586974 
H     1.2520458    1.4731102    4.8463694 
H     1.9047525    3.0457122    4.3376603 
H     2.5168383   -2.1835490    0.7070841 
H     3.6153058   -2.6302289    2.0427176 
H     1.8553213   -2.7430220    2.2712038 
H     3.8652023    1.1457121    1.9780122 
H     3.7354151    0.0835289    0.5474660 
H     4.7853400   -0.3803587    1.9094685 
