111
Energy =
C    -2.9231510    0.9628179    2.0691609 
C    -2.3196420    0.1654973    3.0853843 
C    -1.0953817    0.5359022    3.6856377 
H    -2.7224327   -0.8347486    3.2908480 
Pd   -0.8737625    0.3527164    1.4173012 
P     1.2568710   -0.5803526    1.1165152 
P    -1.0681694    1.0232326   -0.8201401 
H    -2.7662642    2.0491214    2.1195088 
H    -0.7705477    1.5833956    3.5761450 
C    -6.3685740   -0.2165309   -0.2303080 
C    -5.5573713   -1.1990217    0.3628235 
C    -4.4388591   -0.8289215    1.1144607 
C    -4.1037899    0.5343960    1.2935769 
C    -4.9307645    1.5099759    0.6944600 
C    -6.0512207    1.1382072   -0.0588062 
H    -7.2422795   -0.5085499   -0.8219525 
H    -5.7968121   -2.2595625    0.2317953 
H    -3.8065849   -1.6091843    1.5529113 
H    -4.6866901    2.5702287    0.8208578 
H    -6.6767451    1.9125877   -0.5148791 
C     0.9349362   -1.6292739    6.7909705 
C     1.6165558   -0.6662822    6.0296209 
C     0.9457746    0.0361218    5.0248316 
C    -0.4164710   -0.2220921    4.7478257 
C    -1.0914201   -1.1919023    5.5243577 
C    -0.4220141   -1.8835703    6.5396208 
H     1.4590889   -2.1752203    7.5820019 
H     2.6762234   -0.4671612    6.2178428 
H     1.4838280    0.7781964    4.4237211 
H    -2.1558238   -1.3848091    5.3553253 
H    -0.9632522   -2.6200571    7.1425723 
O     1.2698406   -0.8469896   -4.0441672 
O     3.6964657    0.1486329   -2.5586569 
O     0.5580586   -4.9421798   -1.5111517 
O     2.3924949    4.7263410   -2.2603404 
C     1.3061405   -0.8213175   -1.6996256 
C     1.5270132    0.6498093   -1.8121985 
C     1.2306019   -1.5235987   -0.4717927 
C     0.5350494    1.6086663   -1.5225002 
C     1.1765477   -1.5708971   -2.8977148 
C     2.7848943    1.1190009   -2.2882740 
C     0.9915421   -2.9055137   -0.4407408 
C     0.7817151    2.9899461   -1.6656524 
C     0.9302911   -2.9544501   -2.8804390 
C     3.0465014    2.4856969   -2.4236756 
C     0.8224252   -3.6156346   -1.6439789 
C     2.0441671    3.4220463   -2.1052679 
C     1.6995496   -1.8284746    2.3909235 
C     2.6803471    0.5649781    1.0042100 
C    -1.6860023   -0.2384836   -1.9922485 
C    -2.1857580    2.4791193   -0.9658294 
C     0.6605504   -2.6421799    2.8918472 
C     3.9345311    0.1288446    0.5265837 
C    -1.6713878   -0.0067935   -3.3840404 
C    -3.2192219    2.5665972   -1.9162307 
C     3.0071216   -2.0018959    2.8849134 
C     2.5171389    1.9015410    1.4182484 
C    -2.1770004   -1.4576018   -1.4885798 
C    -2.0046847    3.5378480   -0.0468178 
C     0.9313840   -3.6355948    3.8395100 
C     5.0140490    1.0200911    0.4902713 
C    -2.1714061   -0.9828067   -4.2552061 
C    -4.0399970    3.7044685   -1.9620872 
C     3.2719877   -2.9926822    3.8401944 
C     3.5967617    2.7932756    1.3619741 
C    -2.6620143   -2.4355023   -2.3663841 
C    -2.8211429    4.6743408   -0.0998696 
C     1.2341063   -1.5209400   -5.2984778 
C     4.9521366    0.5214746   -3.1214089 
C     2.2393778   -3.8139990    4.3140379 
C     4.8469165    2.3512856    0.9043840 
C    -2.6660905   -2.1960768   -3.7485445 
C    -3.8414831    4.7603373   -1.0622162 
C     0.3659499   -5.7293841   -2.6847270 
C     1.4299237    5.7340134   -1.9569696 
H     0.9329091   -3.4644166    0.4955111 
H    -0.0066648    3.7118952   -1.4540372 
H     0.8040094   -3.5000055   -3.8150562 
H     4.0113649    2.8659282   -2.7624941 
H    -0.3668431   -2.4856829    2.5406238 
H     4.0545384   -0.8946255    0.1575681 
H    -1.2507428    0.9225762   -3.7813919 
H    -3.4005727    1.7418647   -2.6107739 
H     3.8203986   -1.3596226    2.5366505 
H     1.5338784    2.2413129    1.7648995 
H    -2.1594922   -1.6388767   -0.4092438 
H    -1.2179948    3.4669137    0.7148411 
H     0.1167441   -4.2577741    4.2225726 
H     5.9889688    0.6761339    0.1290917 
H    -2.1703334   -0.7981574   -5.3347239 
H    -4.8452547    3.7574263   -2.7020677 
H     4.2918110   -3.1185299    4.2184228 
H     3.4615997    3.8346940    1.6713325 
H    -3.0334556   -3.3857043   -1.9692762 
H    -2.6677423    5.4896738    0.6148733 
H     1.3611511   -0.7396808   -6.0617983 
H     0.2640906   -2.0304064   -5.4535949 
H     2.0568641   -2.2560099   -5.3809253 
H     5.5253822    1.1690104   -2.4314428 
H     4.8165318    1.0426329   -4.0875839 
H     5.4998102   -0.4184634   -3.2816978 
H     2.4497476   -4.5840678    5.0632756 
H     5.6914978    3.0470024    0.8644334 
H    -3.0522552   -2.9571989   -4.4350168 
H    -4.4853264    5.6450170   -1.1012682 
H    -0.4948562   -5.3636198   -3.2772510 
H     1.2728924   -5.7373145   -3.3191448 
H     0.1599416   -6.7501955   -2.3322372 
H     0.5376397    5.6495411   -2.6062438 
H     1.1149249    5.6835772   -0.8966284 
H     1.9301920    6.6946373   -2.1454725 
