111
Energy =
C    -3.0127806    0.6921179    1.9865485 
C    -2.3674485   -0.1074580    2.9749536 
C    -1.1723086    0.3123268    3.6011535 
H    -2.7077888   -1.1388925    3.1340573 
Pd   -0.9240210    0.2408046    1.3312122 
P     1.2662525   -0.5345068    1.0126810 
P    -1.1427792    0.9878187   -0.8798844 
H    -2.9259449    1.7830932    2.0832591 
H    -0.9137373    1.3819630    3.5413360 
C    -6.3543259   -0.6078869   -0.3996135 
C    -5.4833583   -1.5602134    0.1569169 
C    -4.3983429   -1.1509679    0.9367711 
C    -4.1569218    0.2220549    1.1808851 
C    -5.0428076    1.1666216    0.6174654 
C    -6.1300870    0.7556989   -0.1635780 
H    -7.2016928   -0.9302181   -1.0133822 
H    -5.6496380   -2.6271608   -0.0253134 
H    -3.7181088   -1.9063641    1.3461615 
H    -4.8707822    2.2339790    0.7928291 
H    -6.8022430    1.5067027   -0.5914847 
C     0.9784570   -1.8703850    6.6126609 
C     1.6019561   -0.8326761    5.9012673 
C     0.8914184   -0.1239844    4.9286339 
C    -0.4523175   -0.4498895    4.6333745 
C    -1.0692519   -1.4935299    5.3607294 
C    -0.3607514   -2.1923420    6.3442205 
H     1.5332743   -2.4211909    7.3790369 
H     2.6474903   -0.5795697    6.1032971 
H     1.3850600    0.6767567    4.3659465 
H    -2.1204330   -1.7401898    5.1792592 
H    -0.8578654   -2.9876665    6.9092865 
O     1.3700947   -0.5784846   -4.1527502 
O     3.6912797    0.5189984   -2.5860935 
O     1.0057529   -4.8223393   -2.0069251 
O     2.0674270    4.9785933   -2.1164759 
C     1.3712363   -0.6507973   -1.8051438 
C     1.4840123    0.8363695   -1.8508880 
C     1.3367287   -1.4059004   -0.6145976 
C     0.4251176    1.7109103   -1.5325668 
C     1.3216086   -1.3584994   -3.0420353 
C     2.7114972    1.4117725   -2.2887702 
C     1.2192467   -2.8114484   -0.6381877 
C     0.5769444    3.1107451   -1.6142788 
C     1.1989366   -2.7507002   -3.0783406 
C     2.8789376    2.7978131   -2.3630985 
C     1.1384834   -3.4766075   -1.8730220 
C     1.8103683    3.6479608   -2.0193834 
C     1.7717563   -1.8167347    2.2309692 
C     2.6107956    0.7072686    0.9835449 
C    -1.6506117   -0.2632309   -2.1125613 
C    -2.3575410    2.3671591   -0.9833276 
C     0.7761293   -2.7085478    2.6850794 
C     3.8955490    0.3847934    0.4969991 
C    -1.6274039    0.0290854   -3.4926005 
C    -3.3836789    2.4189806   -1.9442127 
C     3.0876868   -1.9528970    2.7135520 
C     2.3527932    2.0050579    1.4670895 
C    -2.0579934   -1.5361674   -1.6708009 
C    -2.2615523    3.3994421   -0.0223371 
C     1.0987574   -3.7397784    3.5747792 
C     4.9115809    1.3481834    0.5214481 
C    -2.0347015   -0.9433399   -4.4145086 
C    -4.2815704    3.4979564   -1.9586131 
C     3.4047494   -2.9821013    3.6109201 
C     3.3691154    2.9700227    1.4718513 
C    -2.4482723   -2.5090844   -2.5992895 
C    -3.1547977    4.4778031   -0.0441756 
C     1.4032358   -1.2042732   -5.4332567 
C     4.9212377    0.9996122   -3.1236590 
C     2.4159296   -3.8799217    4.0373941 
C     4.6502834    2.6400475    1.0055419 
C    -2.4429481   -2.2115095   -3.9701295 
C    -4.1677726    4.5295182   -1.0167218 
C     0.9528958   -5.6261470   -0.8296394 
C     1.0326789    5.9031840   -1.7868255 
H     1.2053246   -3.3722902    0.2967860 
H    -0.2621590    3.7668748   -1.3843462 
H     1.1350102   -3.3079920   -4.0140876 
H     3.8183052    3.2578164   -2.6735168 
H    -0.2587307   -2.5821186    2.3433832 
H     4.0877192   -0.6050355    0.0712015 
H    -1.2704213    1.0034565   -3.8415807 
H    -3.4982772    1.6109606   -2.6718903 
H     3.8668192   -1.2522739    2.4012147 
H     1.3456762    2.2579275    1.8195774 
H    -2.0475851   -1.7611569   -0.5994925 
H    -1.4807354    3.3539457    0.7471766 
H     0.3166051   -4.4205822    3.9248607 
H     5.9101946    1.0922482    0.1520177 
H    -2.0251024   -0.7134095   -5.4851818 
H    -5.0797036    3.5236439   -2.7076928 
H     4.4306395   -3.0779993    3.9814811 
H     3.1601543    3.9813151    1.8353308 
H    -2.7512295   -3.5023976   -2.2530783 
H    -3.0665005    5.2741264    0.7023117 
H     1.4710311   -0.3859694   -6.1646475 
H     0.4818918   -1.7881546   -5.6173969 
H     2.2850835   -1.8647143   -5.5309569 
H     5.5324154    0.1065571   -3.3185396 
H     5.4456128    1.6554821   -2.4032804 
H     4.7544660    1.5500023   -4.0683705 
H     2.6668398   -4.6793548    4.7421457 
H     5.4452507    3.3929566    1.0126454 
H    -2.7519045   -2.9712777   -4.6957420 
H    -4.8718123    5.3678826   -1.0311382 
H     1.8796955   -5.5299441   -0.2325592 
H     0.0837017   -5.3586432   -0.1979695 
H     0.8474017   -6.6635032   -1.1780522 
H     0.1560569    5.7827737   -2.4515483 
H     0.7101566    5.7878488   -0.7337980 
H     1.4659348    6.9033856   -1.9299056 
