111
Energy =
C    -2.9829082    0.8751966    2.2441772 
C    -2.1637016    0.0232985    3.0425133 
C    -0.9518527    0.4982105    3.5965457 
H    -2.4193084   -1.0416433    3.1241025 
Pd   -0.9585042    0.6161068    1.3106913 
P     1.3073879    0.0176599    0.9773001 
P    -1.3256361    0.8633871   -0.9917387 
H    -2.9464846    1.9522331    2.4685983 
H    -0.8523826    1.5892323    3.7079548 
C    -6.6160244   -0.4738591    0.3720087 
C    -6.5699604    0.7679699    1.0211408 
C    -5.3832276    1.2037930    1.6236576 
C    -4.2251575    0.3978569    1.6033355 
C    -4.2896587   -0.8580071    0.9587043 
C    -5.4700641   -1.2861822    0.3443046 
H    -7.5384505   -0.8078646   -0.1135770 
H    -7.4597506    1.4053830    1.0495624 
H    -5.3500342    2.1808705    2.1188363 
H    -3.3892984   -1.4822235    0.9127623 
H    -5.4989620   -2.2539909   -0.1675127 
C     1.7525823   -1.7106357    6.1065779 
C     0.9398295   -2.4003545    5.1914140 
C     0.0549240   -1.6991826    4.3672971 
C    -0.0282703   -0.2892842    4.4303339 
C     0.7993202    0.3907230    5.3519392 
C     1.6752382   -0.3125806    6.1862728 
H     2.4425695   -2.2623707    6.7533662 
H     0.9964998   -3.4914759    5.1194742 
H    -0.5677568   -2.2545075    3.6611221 
H     0.7503127    1.4828482    5.4122952 
H     2.3051709    0.2345076    6.8947462 
O     1.7465053    0.3036352   -4.1378735 
O     2.4394985   -2.2838269   -2.6371396 
O     4.6372259    3.1521769   -1.6296048 
O    -1.8646869   -4.2333765   -2.0007106 
C     1.6943065    0.1796431   -1.7984811 
C     0.6749983   -0.8988056   -1.9406714 
C     2.1550189    0.6307009   -0.5444392 
C    -0.6899507   -0.7353577   -1.6410001 
C     2.2648394    0.7551586   -2.9674309 
C     1.1178734   -2.1947985   -2.3438304 
C     3.1543831    1.6192632   -0.4425386 
C    -1.5802371   -1.8350569   -1.6331123 
C     3.2486460    1.7451141   -2.8801074 
C     0.2388272   -3.2805296   -2.3816833 
C     3.6916589    2.1768214   -1.6152669 
C    -1.1053995   -3.1047040   -1.9958039 
C     1.4969069   -1.8049265    0.8860946 
C     2.3776337    0.6245335    2.3427074 
C    -3.0092463    1.0709062   -1.7019603 
C    -0.4454893    2.2488969   -1.8263624 
C     0.3809013   -2.6346461    1.1066056 
C     2.2421038    1.9832169    2.7045999 
C    -3.8326372    2.0528711   -1.1180129 
C     0.2428304    3.2094560   -1.0628886 
C     2.7416701   -2.3831046    0.5594063 
C     3.3192737   -0.1761525    3.0129803 
C    -3.4435455    0.4095702   -2.8703505 
C    -0.5372648    2.4031544   -3.2254422 
C     0.5087793   -4.0272934    1.0302802 
C     3.0713827    2.5429934    3.6844091 
C    -5.0782219    2.3576288   -1.6797328 
C     0.8542560    4.3031363   -1.6913746 
C     2.8686691   -3.7769423    0.5013036 
C     4.1368392    0.3852753    4.0054232 
C    -4.6949690    0.7133716   -3.4236081 
C     0.0728079    3.4983340   -3.8472308 
C     2.2739812    0.8069499   -5.3638122 
C     2.9603986   -3.5271755   -3.1026815 
C     1.7555252   -4.5998622    0.7387318 
C     4.0268772    1.7438450    4.3325075 
C    -5.5154866    1.6829128   -2.8286195 
C     0.7711449    4.4480135   -3.0832748 
C     5.1170680    3.6604023   -0.3861073 
C    -3.2316043   -4.1394258   -1.6078631 
H     3.5014359    1.9475772    0.5370045 
H    -2.6235572   -1.6858347   -1.3502471 
H     3.6819023    2.2193118   -3.7619349 
H     0.5620120   -4.2848483   -2.6593655 
H    -0.5946690   -2.1756107    1.3036721 
H     1.4845312    2.6039296    2.2102026 
H    -3.4922840    2.5816489   -0.2213774 
H     0.3071884    3.0888434    0.0246799 
H     3.6000458   -1.7432825    0.3297765 
H     3.4070840   -1.2403171    2.7776996 
H    -2.8050411   -0.3354436   -3.3544915 
H    -1.0776455    1.6652821   -3.8261058 
H    -0.3681861   -4.6649237    1.1810934 
H     2.9656611    3.6003982    3.9490079 
H    -5.7126870    3.1172162   -1.2123896 
H     1.3985211    5.0408627   -1.0927470 
H     3.8390760   -4.2227072    0.2586458 
H     4.8592914   -0.2488954    4.5292331 
H    -5.0254079    0.1940279   -4.3293887 
H    -0.0024981    3.6158195   -4.9335113 
H     3.3529046    0.5816783   -5.4569327 
H     2.1159156    1.8987421   -5.4474915 
H     1.7196757    0.2927689   -6.1621128 
H     2.4627355   -3.8416443   -4.0389527 
H     2.8465888   -4.3187088   -2.3384527 
H     4.0288505   -3.3510483   -3.2931719 
H     1.8579944   -5.6886404    0.6821813 
H     4.6722804    2.1771161    5.1036405 
H    -6.4928642    1.9165231   -3.2633098 
H     1.2466355    5.3035719   -3.5738130 
H     5.6058287    2.8686580    0.2130135 
H     5.8549360    4.4341530   -0.6419955 
H     4.2980431    4.1120622    0.2065577 
H    -3.6442202   -5.1538363   -1.7043024 
H    -3.3243271   -3.8036119   -0.5564091 
H    -3.7962830   -3.4479493   -2.2621457 
