111
Energy =
C    -1.6002589    0.0124474    3.4987689 
C    -2.7519520    0.3672997    2.7599488 
C    -3.3170175   -0.5580829    1.8236215 
H    -3.1045770    1.4060890    2.7798332 
Pd   -1.2263540   -0.1193473    1.2538341 
P    -1.1050050   -1.2528119   -0.7867608 
P     0.8497299    0.9250304    1.0535752 
H    -1.3747644   -1.0637864    3.5713055 
H    -3.2518401   -1.6269315    2.0690675 
C     0.6340761    2.3537909    6.3216629 
C     1.0339026    1.0498349    5.9921735 
C     0.2927661    0.3050246    5.0696540 
C    -0.8584778    0.8481385    4.4511245 
C    -1.2439965    2.1656996    4.7881590 
C    -0.5063530    2.9061716    5.7163520 
H     1.2070458    2.9384952    7.0486942 
H     1.9209735    0.6103851    6.4597349 
H     0.6060880   -0.7138720    4.8177401 
H    -2.1328511    2.6123517    4.3333244 
H    -0.8220412    3.9230930    5.9693085 
C    -6.3084779    0.4006406   -1.1220854 
C    -6.1002915   -0.9255665   -0.7169981 
C    -5.1373565   -1.2237678    0.2548798 
C    -4.3584048   -0.2011488    0.8412274 
C    -4.5804097    1.1333675    0.4229247 
C    -5.5451541    1.4296410   -0.5442014 
H    -7.0603132    0.6343566   -1.8828656 
H    -6.6891392   -1.7354898   -1.1601025 
H    -4.9768184   -2.2626877    0.5624263 
H    -3.9770479    1.9460152    0.8437598 
H    -5.7008271    2.4680361   -0.8556906 
O     3.9471595   -0.6572512   -1.5784200 
O     1.8948082   -0.2741863   -3.8371096 
O     2.3331769   -5.0655788   -0.2849130 
O     0.8644754    4.3681253   -2.7926204 
C     1.6581127   -1.0443891   -1.2553381 
C     1.4533721    0.3853480   -1.6305736 
C     0.6017303   -1.9396126   -0.9533099 
C     1.1609173    1.4112072   -0.6995604 
C     2.9798981   -1.5579388   -1.2615696 
C     1.5974055    0.7494883   -2.9932881 
C     0.8585920   -3.2831976   -0.6437789 
C     0.9855499    2.7387225   -1.1164299 
C     3.2525643   -2.8987817   -0.9373705 
C     1.4071412    2.0730035   -3.4273157 
C     2.1844375   -3.7572289   -0.6219102 
C     1.0889263    3.0639516   -2.4821586 
C    -1.4429077   -0.3289362   -2.3272108 
C    -2.2417937   -2.6986407   -0.7949879 
C     0.8057621    2.5129035    1.9754173 
C     2.3401482    0.0088865    1.5863678 
C    -2.0203914    0.9519350   -2.2423949 
C    -3.1390897   -2.9555895   -1.8487357 
C    -0.3311071    3.3328478    1.7886867 
C     2.1787632   -1.2278098    2.2414249 
C    -1.1515980   -0.8899040   -3.5886271 
C    -2.2686513   -3.5290888    0.3486837 
C     1.8258664    2.9386910    2.8451123 
C     3.6358067    0.5027174    1.3294118 
C    -2.3061448    1.6702089   -3.4108916 
C    -4.0285582   -4.0383174   -1.7688239 
C    -0.4121822    4.5847779    2.4099023 
C     3.3008603   -1.9599813    2.6495047 
C    -1.4523123   -0.1715531   -4.7525746 
C    -3.1507153   -4.6138268    0.4199629 
C     1.7287393    4.1848244    3.4818950 
C     4.7544947   -0.2265929    1.7535244 
C     5.2993568   -1.0936067   -1.6768974 
C     2.1363034    0.0059937   -5.2127276 
C    -2.0259789    1.1079267   -4.6651311 
C    -4.0342234   -4.8710482   -0.6417332 
C     0.6236107    5.0162241    3.2528247 
C     4.5890245   -1.4557454    2.4123948 
C     3.6447092   -5.6238113   -0.2416000 
C     0.9410990    4.7765076   -4.1567139 
H     0.0605497   -3.9947171   -0.4239705 
H     0.7687571    3.5467863   -0.4157392 
H     4.2799158   -3.2617325   -0.9235451 
H     1.4902120    2.3202656   -4.4852334 
H    -2.2375769    1.3808964   -1.2587871 
H    -3.1600051   -2.3034797   -2.7262610 
H    -1.1475804    2.9881665    1.1415594 
H     1.1690940   -1.6224486    2.4017494 
H    -0.6772599   -1.8743447   -3.6547169 
H    -1.5972526   -3.3188268    1.1902407 
H     2.6934059    2.2994693    3.0326187 
H     3.7654291    1.4435290    0.7847189 
H    -2.7477757    2.6694660   -3.3401758 
H    -4.7251938   -4.2242505   -2.5928566 
H    -1.2879530    5.2204142    2.2423933 
H     3.1700127   -2.9268032    3.1464333 
H    -1.2370800   -0.6109805   -5.7324141 
H    -3.1545625   -5.2549620    1.3075268 
H     2.5251342    4.5052170    4.1613930 
H     5.7602187    0.1628079    1.5628981 
H     5.4118005   -1.8778271   -2.4492785 
H     5.6710957   -1.4719615   -0.7057402 
H     5.8799450   -0.2060941   -1.9674595 
H     2.3843314   -0.9598880   -5.6761309 
H     2.9857106    0.7042532   -5.3354487 
H     1.2372649    0.4266814   -5.7016749 
H    -2.2561559    1.6663440   -5.5788496 
H    -4.7300042   -5.7143880   -0.5839403 
H     0.5604993    5.9927564    3.7439130 
H     5.4672875   -2.0237170    2.7374526 
H     4.1359501   -5.5787554   -1.2324523 
H     4.2770843   -5.1075337    0.5064262 
H     3.5151245   -6.6751087    0.0528713 
H     1.9538353    4.6115451   -4.5718581 
H     0.1968066    4.2422724   -4.7784061 
H     0.7169245    5.8528588   -4.1620487 
