111
Energy =
C    -2.4805818    1.8749517    2.0489378 
C    -2.1826783    0.8444098    2.9697023 
C    -0.8658633    0.7341401    3.5226376 
H    -2.9074605    0.0352258    3.1244436 
Pd   -0.7548320    0.5779468    1.3191176 
P     1.5014783    0.0325593    1.0507076 
P    -1.3224139    0.2516070   -0.9200658 
H    -1.7977978    2.7397280    2.0412051 
H    -0.3135726    1.6678054    3.6970900 
C    -6.1458276    2.6541035   -0.0496378 
C    -6.0800686    1.5757403    0.8476025 
C    -4.8951027    1.2984595    1.5353852 
C    -3.7484976    2.1028641    1.3444221 
C    -3.8302572    3.1860239    0.4372261 
C    -5.0140994    3.4575596   -0.2555529 
H    -7.0772766    2.8672238   -0.5841378 
H    -6.9599185    0.9457991    1.0116428 
H    -4.8676449    0.4586671    2.2358582 
H    -2.9499618    3.8174627    0.2758145 
H    -5.0559516    4.3007123   -0.9526471 
C     0.6234360   -2.6425862    5.7419677 
C     1.2329188   -1.3849160    5.8555213 
C     0.7299775   -0.2899649    5.1422039 
C    -0.3933085   -0.4295879    4.2968031 
C    -0.9983455   -1.7054700    4.1923676 
C    -0.4972945   -2.7965693    4.9079644 
H     1.0166894   -3.4993411    6.2986478 
H     2.1069539   -1.2531885    6.5019030 
H     1.2148636    0.6880694    5.2319531 
H    -1.8581358   -1.8496270    3.5278790 
H    -0.9777916   -3.7760808    4.8121928 
O     1.6827359    0.4142405   -4.0786294 
O     3.0438932   -1.8939173   -2.5808561 
O     3.8545853    3.8979232   -1.6491706 
O    -0.7581593   -4.7698793   -2.4241734 
C     1.7102380    0.2981462   -1.7345204 
C     0.9880022   -0.9998832   -1.8838508 
C     2.1102647    0.8405023   -0.4950180 
C    -0.3891321   -1.1700635   -1.6371437 
C     2.0820126    0.9972716   -2.9190907 
C     1.7258078   -2.1260910   -2.3493805 
C     2.8387364    2.0460949   -0.4225048 
C    -1.0183404   -2.4192323   -1.8172868 
C     2.7891929    2.2024419   -2.8594582 
C     1.1174908   -3.3739716   -2.5162348 
C     3.1671987    2.7263750   -1.6082003 
C    -0.2558387   -3.5202259   -2.2430860 
C     1.9676838   -1.7291720    0.9285209 
C     2.5070218    0.7433395    2.4182683 
C    -3.0823306   -0.2696889   -1.0096414 
C    -1.0818464    1.6366730   -2.0878393 
C     1.0141117   -2.7129799    1.2521810 
C     3.4514214   -0.0089049    3.1416540 
C    -4.0088308    0.2594806   -1.9256258 
C    -1.2257537    1.4546616   -3.4787113 
C     3.2651257   -2.1090037    0.5251000 
C     2.2559986    2.0811197    2.8009005 
C    -3.5035693   -1.2642533   -0.0966084 
C    -0.7060054    2.8963804   -1.5809966 
C     1.3533637   -4.0695585    1.1723071 
C     4.1492663    0.5752972    4.2104114 
C    -5.3232501   -0.2303781   -1.9550435 
C    -1.0223963    2.5360616   -4.3459716 
C     3.6009810   -3.4670911    0.4616445 
C     2.9620506    2.6635982    3.8604383 
C    -4.8100807   -1.7651743   -0.1454166 
C    -0.4877086    3.9693507   -2.4539584 
C     2.0707042    1.0052977   -5.3166517 
C     3.8438187   -2.9435008   -3.1208461 
C     2.6463000   -4.4468748    0.7802085 
C     3.9133076    1.9095553    4.5682964 
C    -5.7212243   -1.2525245   -1.0821090 
C    -0.6526708    3.7910986   -3.8362831 
C     4.2896891    4.4824979   -0.4230660 
C    -2.1424779   -4.9965540   -2.1661296 
H     3.1601961    2.4332822    0.5443262 
H    -2.0881754   -2.5235603   -1.6381690 
H     3.0664695    2.7634582   -3.7532409 
H     1.6701755   -4.2549842   -2.8457812 
H     0.0078821   -2.4072611    1.5570517 
H     3.6340827   -1.0563201    2.8854752 
H    -3.7104057    1.0566682   -2.6125808 
H    -1.4749409    0.4666498   -3.8792793 
H     3.9978820   -1.3458295    0.2438353 
H     1.4966790    2.6658229    2.2668920 
H    -2.7946874   -1.6515605    0.6464196 
H    -0.5569776    3.0178565   -0.5020122 
H     0.6069982   -4.8330045    1.4142428 
H     4.8768948   -0.0227254    4.7687627 
H    -6.0392046    0.1925039   -2.6672258 
H    -1.1425332    2.3959955   -5.4254577 
H     4.6105124   -3.7628423    0.1571820 
H     2.7629666    3.7030338    4.1417723 
H    -5.1208309   -2.5469868    0.5557479 
H    -0.1792888    4.9422389   -2.0579576 
H     1.6629364    0.3513767   -6.1009934 
H     3.1719785    1.0528308   -5.4076789 
H     1.6456759    2.0208447   -5.4253755 
H     3.4541338   -3.2770592   -4.1007358 
H     3.8926032   -3.8059471   -2.4298324 
H     4.8496708   -2.5179851   -3.2483222 
H     2.9115332   -5.5076112    0.7204964 
H     4.4601197    2.3606328    5.4026794 
H    -6.7458997   -1.6367092   -1.1181396 
H    -0.4847561    4.6304084   -4.5193437 
H     3.4321662    4.7294790    0.2326781 
H     4.9827501    3.8124850    0.1204807 
H     4.8162766    5.4068001   -0.7004692 
H    -2.3977871   -4.7718954   -1.1123047 
H    -2.7831820   -4.3884955   -2.8328366 
H    -2.3149365   -6.0638024   -2.3658893 
