111
Energy =
C    -1.4217238   -0.1697051    3.4828320 
C    -2.5886567    0.2907713    2.8314187 
C    -3.2501045   -0.5381524    1.8684564 
H    -2.8826211    1.3426197    2.9365574 
Pd   -1.1680950   -0.1725092    1.2182498 
P    -1.2151470   -1.1544901   -0.9017272 
P     0.9528604    0.7676305    0.9770131 
H    -1.2505112   -1.2581879    3.4755708 
H    -3.2313401   -1.6233371    2.0385726 
C     1.0768902    1.8733312    6.3168513 
C     1.3912721    0.5761395    5.8842575 
C     0.5645624   -0.0710965    4.9607430 
C    -0.5889412    0.5650689    4.4436253 
C    -0.8882663    1.8744634    4.8842452 
C    -0.0649405    2.5172343    5.8132466 
H     1.7170890    2.3814062    7.0453783 
H     2.2786952    0.0655176    6.2720800 
H     0.8117396   -1.0850286    4.6283444 
H    -1.7770681    2.3911644    4.5104981 
H    -0.3149567    3.5290313    6.1473353 
C    -6.3306305    0.7786613   -0.8376593 
C    -6.1766977   -0.5815513   -0.5339954 
C    -5.1831711   -0.9969283    0.3610401 
C    -4.3186680   -0.0601106    0.9701893 
C    -4.4866766    1.3100554    0.6546693 
C    -5.4817036    1.7233215   -0.2356744 
H    -7.1062121    1.1040022   -1.5385452 
H    -6.8317901   -1.3267257   -0.9971941 
H    -5.0657300   -2.0617875    0.5888846 
H    -3.8180434    2.0584356    1.0954475 
H    -5.5945776    2.7875592   -0.4685239 
O     3.8232780   -0.7939100   -1.8986215 
O     1.7112437   -0.1317630   -4.0273081 
O     2.0016513   -5.1853209   -0.8465830 
O     1.1310700    4.4414524   -2.8017718 
C     1.5316757   -1.0709713   -1.4936260 
C     1.4050667    0.3924498   -1.7586640 
C     0.4374677   -1.9229972   -1.2019638 
C     1.2255903    1.3601950   -0.7496883 
C     2.8181955   -1.6584029   -1.6000332 
C     1.5249600    0.8466601   -3.1035121 
C     0.6254859   -3.2982012   -1.0014725 
C     1.1381977    2.7340394   -1.0562459 
C     3.0227496   -3.0329375   -1.3855133 
C     1.4241316    2.2044288   -3.4225451 
C     1.9191417   -3.8490206   -1.0801410 
C     1.2245649    3.1475862   -2.3964416 
C    -1.5601649   -0.0950433   -2.3490052 
C    -2.4380470   -2.5265909   -0.9605263 
C     1.0328331    2.2949193    1.9963593 
C     2.4117108   -0.2582472    1.3818253 
C    -2.0480825    1.2091017   -2.1412004 
C    -3.3953100   -2.6471418   -1.9855330 
C    -0.0695001    3.1770384    1.9131320 
C     2.2103712   -1.5276421    1.9585693 
C    -1.3565645   -0.5721908   -3.6609385 
C    -2.4652256   -3.4413056    0.1169346 
C     2.1145251    2.6234914    2.8326140 
C     3.7201885    0.1818190    1.0940803 
C    -2.3285773    2.0342925   -3.2377067 
C    -4.3456591   -3.6791592   -1.9445266 
C    -0.0575980    4.3950570    2.6033224 
C     3.3065790   -2.3456828    2.2599385 
C    -1.6532758    0.2537762   -4.7522636 
C    -3.4083880   -4.4754860    0.1485834 
C     2.1110960    3.8354363    3.5395266 
C     4.8139248   -0.6342487    1.4117631 
C     5.1400872   -1.2984840   -2.0993671 
C     1.9118732    0.2376927   -5.3896615 
C    -2.1340331    1.5567121   -4.5423414 
C    -4.3523692   -4.5965171   -0.8850699 
C     1.0390206    4.7296619    3.4131380 
C     4.6091325   -1.8959498    1.9935314 
C     3.2763385   -5.8215731   -0.9117989 
C     0.9294665    5.4548257   -1.8186880 
H    -0.2039156   -3.9767051   -0.7938443 
H     1.0159698    3.4659729   -0.2582873 
H     4.0255283   -3.4545859   -1.4483995 
H     1.4863891    2.5709137   -4.4483146 
H    -2.1975831    1.5707360   -1.1186034 
H    -3.4140110   -1.9280175   -2.8090612 
H    -0.9331870    2.9062161    1.2924400 
H     1.1883925   -1.8788155    2.1403094 
H    -0.9510547   -1.5761089   -3.8229825 
H    -1.7454727   -3.3373175    0.9380042 
H     2.9573507    1.9345090    2.9396368 
H     3.8779321    1.1490380    0.6059727 
H    -2.6977670    3.0517245   -3.0737219 
H    -5.0883037   -3.7587709   -2.7451368 
H    -0.9095088    5.0781649    2.5187238 
H     3.1438691   -3.3367896    2.6958672 
H    -1.5046427   -0.1188868   -5.7712786 
H    -3.4123276   -5.1833665    0.9838825 
H     2.9545254    4.0790919    4.1936335 
H     5.8302880   -0.2873926    1.1970550 
H     5.1663889   -2.0291682   -2.9296895 
H     5.5351355   -1.7674060   -1.1781920 
H     5.7583785   -0.4266532   -2.3576869 
H     2.0644792   -0.7042058   -5.9361803 
H     2.8047987    0.8810690   -5.5005194 
H     1.0269955    0.7615303   -5.7972929 
H    -2.3561495    2.2014582   -5.3991268 
H    -5.0954059   -5.4001397   -0.8575744 
H     1.0482877    5.6782836    3.9598381 
H     5.4675515   -2.5322147    2.2341012 
H     3.7222059   -5.7300448   -1.9206724 
H     3.9740836   -5.4018619   -0.1615463 
H     3.0951076   -6.8827735   -0.6887802 
H    -0.0160721    5.2963459   -1.2646010 
H     1.7697797    5.4937138   -1.0995072 
H     0.8763060    6.4038050   -2.3712120 
