111
Energy =
C    -3.0442951    0.7964701    2.0295026 
C    -2.3215711    0.1261243    3.0690585 
C    -1.1243882    0.6847776    3.5719255 
H    -2.5993864   -0.8961859    3.3542896 
Pd   -1.0019064    0.3277441    1.3226793 
P     1.1082016   -0.6443807    1.1110267 
P    -1.1708855    0.9760884   -0.9160395 
H    -3.0246670    1.8950081    2.0305676 
H    -0.9651579    1.7582828    3.3810002 
C    -6.2620718   -0.9108996   -0.2675056 
C    -5.3794887   -1.7544120    0.4287676 
C    -4.3394853   -1.2126322    1.1895086 
C    -4.1590068    0.1890863    1.2776097 
C    -5.0582304    1.0239953    0.5769884 
C    -6.0966234    0.4793335   -0.1883140 
H    -7.0731820   -1.3375036   -0.8664450 
H    -5.5013725   -2.8413513    0.3717948 
H    -3.6460631   -1.8868679    1.7052780 
H    -4.9327373    2.1107964    0.6303463 
H    -6.7786054    1.1463862   -0.7259721 
C     1.5471953   -0.8654031    6.5549035 
C     1.8242780    0.3439838    5.8996758 
C     0.9419533    0.8299140    4.9300207 
C    -0.2312629    0.1158043    4.5885395 
C    -0.4920224   -1.1050684    5.2516205 
C     0.3872087   -1.5855200    6.2263178 
H     2.2309772   -1.2462514    7.3204926 
H     2.7262322    0.9122365    6.1490288 
H     1.1599845    1.7761116    4.4230212 
H    -1.3935878   -1.6777568    5.0157926 
H     0.1672710   -2.5299427    6.7337399 
O     1.5369438   -0.5275499   -4.0119895 
O     3.7936916    0.4413077   -2.1624090 
O     0.9683123   -4.8600482   -1.8658212 
O     2.2091387    4.9245281   -1.7832995 
C     1.3842449   -0.6944500   -1.6787814 
C     1.5277431    0.7911185   -1.6574256 
C     1.2651897   -1.4968399   -0.5184743 
C     0.4540434    1.6804628   -1.4409017 
C     1.4075302   -1.3486665   -2.9364481 
C     2.8073749    1.3487088   -1.9429326 
C     1.1431995   -2.8908581   -0.6120788 
C     0.6384448    3.0782774   -1.4814965 
C     1.2695475   -2.7433391   -3.0458228 
C     3.0067049    2.7327941   -1.9688592 
C     1.1266488   -3.5101751   -1.8762662 
C     1.9198061    3.5974212   -1.7361442 
C     1.2718432   -1.9844735    2.3558555 
C     2.5772232    0.4344993    1.2469380 
C    -1.6158636   -0.2834864   -2.1632731 
C    -2.3926833    2.3403097   -1.1011858 
C     0.1825681   -2.8765649    2.4873376 
C     3.8687842   -0.0465041    0.9487956 
C    -1.5003625   -0.0120613   -3.5430707 
C    -3.4074372    2.3301437   -2.0764884 
C     2.4039433   -2.1551718    3.1727854 
C     2.4003294    1.7803696    1.6240074 
C    -2.0930987   -1.5345420   -1.7290844 
C    -2.3499817    3.3997817   -0.1657636 
C     0.2547572   -3.9578686    3.3736024 
C     4.9717247    0.8107474    1.0567984 
C    -1.8762549   -0.9874151   -4.4750496 
C    -4.3458590    3.3728841   -2.1291152 
C     2.4612734   -3.2278639    4.0749219 
C     3.5043607    2.6370694    1.7135247 
C    -2.4544570   -2.5102422   -2.6672877 
C    -3.2815705    4.4432183   -0.2278025 
C     1.6543589   -1.0968879   -5.3125753 
C     5.0929289    0.9088452   -2.5170587 
C     1.3998660   -4.1391429    4.1644853 
C     4.7913359    2.1504933    1.4364729 
C    -2.3500778   -2.2360290   -4.0390238 
C    -4.2837010    4.4315142   -1.2128095 
C     0.9362765   -5.5616136   -3.1069419 
C     1.1578086    5.8648574   -1.5722542 
H     1.0609703   -3.5300569    0.2686514 
H    -0.2102655    3.7465359   -1.3354814 
H     1.2594902   -3.2180555   -4.0264632 
H     3.9825325    3.1802477   -2.1637235 
H    -0.7187158   -2.7248853    1.8799476 
H     4.0051016   -1.0807060    0.6162645 
H    -1.1006190    0.9493076   -3.8814900 
H    -3.4805169    1.5015964   -2.7864219 
H     3.2387875   -1.4510823    3.1121136 
H     1.3882909    2.1548714    1.8158523 
H    -2.1720158   -1.7382310   -0.6562208 
H    -1.5846756    3.3997881    0.6201749 
H    -0.5862753   -4.6545974    3.4526498 
H     5.9755792    0.4339773    0.8340195 
H    -1.7974784   -0.7737022   -5.5463267 
H    -5.1339510    3.3497095   -2.8888865 
H     3.3441404   -3.3493474    4.7108471 
H     3.3611398    3.6866809    1.9897150 
H    -2.8172025   -3.4848940   -2.3253257 
H    -3.2333546    5.2607358    0.4992090 
H     0.7426499   -1.6597342   -5.5890096 
H     2.5354518   -1.7626366   -5.3794137 
H     1.7815630   -0.2485279   -6.0004848 
H     5.0632674    1.4973096   -3.4532169 
H     5.7049350    0.0075802   -2.6662712 
H     5.5318703    1.5223143   -1.7079186 
H     1.4569660   -4.9809861    4.8622020 
H     5.6555283    2.8191750    1.5090133 
H    -2.6396687   -2.9961950   -4.7725157 
H    -5.0189282    5.2415612   -1.2568822 
H     0.0942679   -5.2204543   -3.7396417 
H     1.8860244   -5.4429423   -3.6628478 
H     0.7949663   -6.6213477   -2.8504886 
H     0.3656596    5.7643190   -2.3384641 
H     0.7089014    5.7488910   -0.5665692 
H     1.6216803    6.8582556   -1.6534062 
