111
Energy =
C    -1.5249799    0.0278936    3.4889185 
C    -2.6779069    0.3673421    2.7445276 
C    -3.2287921   -0.5685807    1.8101139 
H    -3.0426207    1.4020438    2.7591733 
Pd   -1.1416502   -0.1063877    1.2457772 
P    -0.9978999   -1.2382347   -0.7938537 
P     0.9270715    0.9551310    1.0536582 
H    -1.2882630   -1.0456632    3.5654619 
H    -3.1518371   -1.6351919    2.0619149 
C     0.6744723    2.3997806    6.3132133 
C     1.0895723    1.0994973    5.9881067 
C     0.3594418    0.3445320    5.0651426 
C    -0.7954870    0.8738569    4.4414817 
C    -1.1961342    2.1881416    4.7736911 
C    -0.4695843    2.9386335    5.7025667 
H     1.2386519    2.9923097    7.0407711 
H     1.9803002    0.6711085    6.4589330 
H     0.6847645   -0.6714349    4.8166048 
H    -2.0881509    2.6241322    4.3146818 
H    -0.7965919    3.9529273    5.9516328 
C    -6.2238140    0.3369187   -1.1488662 
C    -6.0023336   -0.9841035   -0.7339559 
C    -5.0383762   -1.2650041    0.2420621 
C    -4.2717627   -0.2299766    0.8229499 
C    -4.5071014    1.0990068    0.3946418 
C    -5.4726075    1.3780110   -0.5768590 
H    -6.9768155    0.5572287   -1.9124746 
H    -6.5819476   -1.8032385   -1.1723291 
H    -4.8675185   -2.2999507    0.5574647 
H    -3.9135705    1.9209382    0.8114047 
H    -5.6382623    2.4123787   -0.8964342 
O     4.0505118   -0.6118683   -1.5734441 
O     1.9999648   -0.2448784   -3.8309999 
O     2.6556369   -5.0120223   -0.3703371 
O     0.9393006    4.3927480   -2.7968583 
C     1.7597153   -1.0147183   -1.2552148 
C     1.5462236    0.4148707   -1.6275677 
C     0.7128056   -1.9143711   -0.9630146 
C     1.2414961    1.4395114   -0.6992633 
C     3.0909510   -1.5220995   -1.2650998 
C     1.6939433    0.7784227   -2.9901472 
C     0.9700943   -3.2692731   -0.6672490 
C     1.0599530    2.7652890   -1.1188854 
C     3.3605077   -2.8593680   -0.9565424 
C     1.4983315    2.1002883   -3.4267742 
C     2.2973118   -3.7324476   -0.6557860 
C     1.1692827    3.0901705   -2.4843137 
C    -1.3451414   -0.3205682   -2.3357648 
C    -2.1177484   -2.6988841   -0.7996599 
C     0.8686244    2.5442782    1.9719736 
C     2.4207876    0.0485932    1.5898743 
C    -1.9345128    0.9550230   -2.2530783 
C    -3.0038442   -2.9779242   -1.8569563 
C    -0.2727254    3.3566753    1.7798213 
C     2.2668083   -1.1900309    2.2433618 
C    -1.0433283   -0.8785248   -3.5960507 
C    -2.1370691   -3.5240145    0.3483402 
C     1.8836859    2.9784025    2.8434427 
C     3.7133258    0.5496131    1.3316635 
C    -2.2218702    1.6708473   -3.4226603 
C    -3.8741277   -4.0763593   -1.7765920 
C    -0.3632769    4.6096810    2.3975580 
C     3.3931935   -1.9180018    2.6461543 
C    -1.3458712   -0.1628418   -4.7611471 
C    -2.9990512   -4.6249466    0.4201653 
C     1.7770485    4.2255399    3.4767314 
C     4.8363384   -0.1749667    1.7523199 
C     5.4052207   -1.0452260   -1.6692512 
C     2.2536651    0.0346681   -5.2046730 
C    -1.9313988    1.1113764   -4.6758208 
C    -3.8710480   -4.9040509   -0.6457408 
C     0.6673715    5.0494679    3.2424842 
C     4.6783125   -1.4072965    2.4065533 
C     1.6340303   -5.9609654   -0.0707106 
C     1.0256370    4.8017370   -4.1602622 
H     0.1440130   -3.9523508   -0.4694171 
H     0.8352541    3.5729228   -0.4202005 
H     4.3739452   -3.2630624   -0.9377784 
H     1.5860460    2.3467607   -4.4845121 
H    -2.1588221    1.3821723   -1.2703021 
H    -3.0307612   -2.3309159   -2.7381849 
H    -1.0851890    3.0054198    1.1311919 
H     1.2590831   -1.5895596    2.4047254 
H    -0.5574642   -1.8574495   -3.6603520 
H    -1.4758005   -3.2949704    1.1932429 
H     2.7546858    2.3449408    3.0345466 
H     3.8373854    1.4915440    0.7875851 
H    -2.6723058    2.6662764   -3.3536401 
H    -4.5630004   -4.2786296   -2.6032904 
H    -1.2422662    5.2396562    2.2256077 
H     3.2699905   -2.8879299    3.1386187 
H    -1.1217997   -0.5997383   -5.7401223 
H    -2.9992281   -5.2596345    1.3125719 
H     2.5697547    4.5528086    4.1572610 
H     5.8397140    0.2195163    1.5600571 
H     5.5209202   -1.8235017   -2.4467259 
H     5.7706447   -1.4329211   -0.6998078 
H     5.9854691   -0.1541116   -1.9492146 
H     2.5117970   -0.9304914   -5.6639586 
H     3.1004149    0.7373347   -5.3196811 
H     1.3571281    0.4497310   -5.7030403 
H    -2.1619572    1.6682884   -5.5903412 
H    -4.5523618   -5.7591152   -0.5875636 
H     0.5968594    6.0268041    3.7309600 
H     5.5596182   -1.9746503    2.7237360 
H     1.0581544   -5.6635069    0.8271229 
H     0.9394905   -6.0897912   -0.9226628 
H     2.1529917   -6.9101265    0.1252046 
H     2.0426601    4.6415554   -4.5666234 
H     0.2892002    4.2641234   -4.7883678 
H     0.7964037    5.8770008   -4.1673447 
