111
Energy =
C    -2.5184950    1.9468548    2.0887456 
C    -2.2350760    0.9061131    3.0025649 
C    -0.9174806    0.7695030    3.5478144 
H    -2.9741344    0.1099220    3.1571016 
Pd   -0.8218039    0.6194466    1.3434718 
P     1.4260992    0.0471988    1.0589187 
P    -1.4134059    0.3053289   -0.8913981 
H    -1.8186298    2.7978770    2.0804243 
H    -0.3474495    1.6920682    3.7241822 
C    -6.1790807    2.8107268    0.0166773 
C    -6.1306368    1.7280373    0.9097412 
C    -4.9474559    1.4229257    1.5886211 
C    -3.7853557    2.2035076    1.3928127 
C    -3.8496683    3.2914168    0.4898166 
C    -5.0318537    3.5905698   -0.1942260 
H    -7.1090942    3.0451707   -0.5113354 
H    -7.0224455    1.1160817    1.0769376 
H    -4.9332927    0.5798295    2.2854926 
H    -2.9569893    3.9042941    0.3246996 
H    -5.0601589    4.4364308   -0.8887111 
C     0.5295915   -2.6460442    5.7354573 
C     1.1649355   -1.4010390    5.8475092 
C     0.6749424   -0.2930031    5.1455278 
C    -0.4605300   -0.4066776    4.3124354 
C    -1.0920994   -1.6698290    4.2098809 
C    -0.6041832   -2.7738484    4.9147964 
H     0.9126238   -3.5130042    6.2834249 
H     2.0487674   -1.2894103    6.4843275 
H     1.1792861    0.6752091    5.2347632 
H    -1.9624967   -1.7944365    3.5554146 
H    -1.1057789   -3.7429212    4.8209989 
O     1.5843681    0.4240361   -4.0712665 
O     2.9194048   -1.8997028   -2.5673041 
O     3.8081764    3.8849447   -1.6561513 
O    -1.0794723   -4.6598048   -2.2629439 
C     1.6213633    0.3104815   -1.7266556 
C     0.8816287   -0.9785163   -1.8649077 
C     2.0367397    0.8478271   -0.4899949 
C    -0.5013100   -1.1322486   -1.6039729 
C     1.9955894    1.0034981   -2.9138961 
C     1.5995420   -2.1126924   -2.3216233 
C     2.7802330    2.0445752   -0.4220716 
C    -1.1335227   -2.3740284   -1.7621774 
C     2.7171906    2.2003473   -2.8588554 
C     0.9821717   -3.3669686   -2.4687854 
C     3.1084456    2.7207114   -1.6101247 
C    -0.3868690   -3.4936828   -2.1754663 
C     1.8733850   -1.7208649    0.9395852 
C     2.4472361    0.7472602    2.4207847 
C    -3.1826464   -0.1790803   -0.9753129 
C    -1.1493196    1.6845343   -2.0613228 
C     0.9108605   -2.6920754    1.2738232 
C     3.3880074   -0.0137556    3.1397206 
C    -4.1020482    0.3806175   -1.8805844 
C    -1.3083072    1.5059401   -3.4509691 
C     3.1651869   -2.1175101    0.5337158 
C     2.2109273    2.0874078    2.8045925 
C    -3.6222276   -1.1678025   -0.0650232 
C    -0.7449423    2.9365219   -1.5573351 
C     1.2358985   -4.0530970    1.2046858 
C     4.0963259    0.5636961    4.2052658 
C    -5.4287656   -0.0744241   -1.9024025 
C    -1.0904091    2.5834011   -4.3196414 
C     3.4867864   -3.4794375    0.4795437 
C     2.9270288    2.6629659    3.8611182 
C    -4.9418721   -1.6331464   -0.1061908 
C    -0.5121890    4.0051862   -2.4317996 
C     1.9679972    1.0141246   -5.3109647 
C     3.7067876   -2.9567068   -3.1079006 
C     2.5235907   -4.4468308    0.8115811 
C     3.8742236    1.8998841    4.5647323 
C    -5.8463676   -1.0909180   -1.0321551 
C    -0.6916088    3.8306559   -3.8128021 
C     4.2557056    4.4661339   -0.4330053 
C    -0.3933134   -5.8422707   -2.6685016 
H     3.1122549    2.4282159    0.5426183 
H    -2.1999492   -2.5138707   -1.5772635 
H     2.9951768    2.7582823   -3.7543322 
H     1.5640291   -4.2298385   -2.7915134 
H    -0.0911235   -2.3743681    1.5800460 
H     3.5593685   -1.0629554    2.8832090 
H    -3.7886180    1.1742567   -2.5648708 
H    -1.5822669    0.5236495   -3.8494383 
H     3.9048502   -1.3639710    0.2447365 
H     1.4547091    2.6791694    2.2739562 
H    -2.9183219   -1.5802289    0.6689832 
H    -0.5857078    3.0546793   -0.4794462 
H     0.4818353   -4.8053569    1.4577555 
H     4.8209339   -0.0411763    4.7601737 
H    -6.1386309    0.3708235   -2.6070082 
H    -1.2227723    2.4462789   -5.3980881 
H     4.4925134   -3.7879741    0.1749360 
H     2.7389391    3.7041415    4.1435535 
H    -5.2664060   -2.4134050    0.5901467 
H    -0.1814302    4.9716780   -2.0381652 
H     1.5521806    2.0340232   -5.4140953 
H     1.5472861    0.3662894   -6.0935633 
H     3.0689616    1.0512280   -5.4111408 
H     3.7608598   -3.8148666   -2.4113949 
H     4.7136784   -2.5379633   -3.2490241 
H     3.3068800   -3.2947545   -4.0824176 
H     2.7797755   -5.5106808    0.7641008 
H     4.4285132    2.3454635    5.3971301 
H    -6.8804475   -1.4493559   -1.0633785 
H    -0.5129841    4.6668145   -4.4970264 
H     3.4043203    4.7216468    0.2274532 
H     4.9454419    3.7899778    0.1072029 
H     4.7894853    5.3852317   -0.7139759 
H     0.0182860   -5.7402238   -3.6909130 
H     0.4244509   -6.0931777   -1.9655776 
H    -1.1443325   -6.6451675   -2.6572971 
