111
Energy =
C    -2.4819276    1.8610813    2.1364358 
C    -2.1985514    0.8193726    3.0489815 
C    -0.8884142    0.6951791    3.6145172 
H    -2.9290815    0.0122729    3.1867788 
Pd   -0.7546392    0.5642556    1.4105082 
P     1.5027603    0.0125298    1.1622974 
P    -1.3031493    0.2575070   -0.8356016 
H    -1.7955380    2.7229921    2.1446290 
H    -0.3311169    1.6226807    3.8051171 
C    -6.1204326    2.6711043    0.0024740 
C    -6.0704363    1.5886438    0.8957385 
C    -4.8945806    1.3018725    1.5952467 
C    -3.7414854    2.1006336    1.4204554 
C    -3.8077337    3.1887612    0.5179999 
C    -4.9822912    3.4695656   -0.1868445 
H    -7.0446186    2.8914010   -0.5416505 
H    -6.9554910    0.9629310    1.0475727 
H    -4.8795229    0.4588703    2.2922685 
H    -2.9226835    3.8167945    0.3700449 
H    -5.0119191    4.3161734   -0.8803940 
C     0.5552464   -2.7192035    5.8062412 
C     1.1747983   -1.4682983    5.9381659 
C     0.6864753   -0.3609737    5.2338711 
C    -0.4317969   -0.4813180    4.3789730 
C    -1.0472350   -1.7506193    4.2559524 
C    -0.5609028   -2.8540207    4.9627912 
H     0.9370850   -3.5855673    6.3559682 
H     2.0456752   -1.3513795    6.5915948 
H     1.1794553    0.6115303    5.3378611 
H    -1.9035940   -1.8801117    3.5840213 
H    -1.0494126   -3.8280796    4.8528501 
O     1.7198917    0.4407486   -3.9640257 
O     3.0674300   -1.8883584   -2.4844585 
O     3.8338803    3.9114493   -1.2814277 
O    -0.7461967   -4.7516453   -2.3844862 
C     1.7301674    0.3026259   -1.6246845 
C     1.0094835   -0.9936589   -1.7925204 
C     2.1190818    0.8377057   -0.3713378 
C    -0.3703445   -1.1612923   -1.5590817 
C     2.1060301    1.0127749   -2.7933996 
C     1.7467341   -2.1176725   -2.2640239 
C     2.8319954    2.0427014   -0.2899522 
C    -1.0029925   -2.4061694   -1.7563345 
C     2.8068348    2.2299298   -2.7249434 
C     1.1350373   -3.3615549   -2.4477471 
C     3.1635953    2.7436462   -1.4655552 
C    -0.2409686   -3.5055591   -2.1867946 
C     1.9625768   -1.7493721    1.0186775 
C     2.4997932    0.6969736    2.5476263 
C    -3.0641076   -0.2580193   -0.9425990 
C    -1.0524432    1.6530023   -1.9905593 
C     1.0038339   -2.7338448    1.3245226 
C     3.4249347   -0.0768974    3.2734663 
C    -3.9828081    0.2781780   -1.8622904 
C    -1.1923317    1.4864074   -3.3838659 
C     3.2623325   -2.1285492    0.6221786 
C     2.2573081    2.0314123    2.9460048 
C    -3.4939267   -1.2578076   -0.0392838 
C    -0.6758945    2.9064080   -1.4691767 
C     1.3400167   -4.0904843    1.2331462 
C     4.1125898    0.4834058    4.3611729 
C    -5.2975923   -0.2097202   -1.9051875 
C    -0.9851309    2.5768383   -4.2388959 
C     3.5948970   -3.4868498    0.5469352 
C     2.9528182    2.5893848    4.0252782 
C    -4.8007282   -1.7564459   -0.1013305 
C    -0.4549193    3.9891070   -2.3297495 
C     2.1141531    1.0385112   -5.1953244 
C     3.8678168   -2.9384175   -3.0224954 
C     2.6350301   -4.4672833    0.8474557 
C     3.8845567    1.8143349    4.7360350 
C    -5.7038093   -1.2368150   -1.0419665 
C    -0.6168589    3.8264339   -3.7143935 
C     4.2163112    4.6769808   -2.4222245 
C    -2.1328356   -4.9762192   -2.1376038 
H     3.1583115    2.4646824    0.6622779 
H    -2.0744867   -2.5083157   -1.5861153 
H     3.0615994    2.7683867   -3.6373968 
H     1.6868910   -4.2415952   -2.7812722 
H    -0.0036583   -2.4284862    1.6256260 
H     3.6000716   -1.1223622    3.0046626 
H    -3.6784522    1.0796765   -2.5415281 
H    -1.4422861    0.5032633   -3.7957728 
H     4.0001697   -1.3643352    0.3574742 
H     1.5146272    2.6339514    2.4088064 
H    -2.7911481   -1.6512138    0.7063303 
H    -0.5292916    3.0163682   -0.3887396 
H     0.5898691   -4.8543629    1.4616663 
H     4.8259576   -0.1305799    4.9206165 
H    -6.0074226    0.2188510   -2.6201018 
H    -1.1036726    2.4489419   -5.3201172 
H     4.6063315   -3.7821961    0.2484226 
H     2.7629349    3.6274679    4.3170747 
H    -5.1180304   -2.5421436    0.5925150 
H    -0.1492122    4.9574784   -1.9203787 
H     1.6830824    2.0517270   -5.3058857 
H     1.7164588    0.3855622   -5.9856420 
H     3.2160005    1.0916650   -5.2795656 
H     3.9050941   -3.8055022   -2.3366411 
H     4.8772009   -2.5173336   -3.1363629 
H     3.4871611   -3.2640772   -4.0086618 
H     2.8980612   -5.5280758    0.7794087 
H     4.4238352    2.2472481    5.5847971 
H    -6.7286266   -1.6194732   -1.0885405 
H    -0.4503377    4.6738289   -4.3880313 
H     4.9028790    4.1084180   -3.0781953 
H     3.3320617    4.9987175   -3.0057279 
H     4.7368994    5.5623286   -2.0300147 
H    -2.3941967   -4.7611440   -1.0832687 
H    -2.7673003   -4.3594261   -2.8022872 
H    -2.3075592   -6.0408448   -2.3490759 
