111
Energy =
C    -3.1241062    0.6704525    2.1485212 
C    -2.2654973   -0.0590951    3.0273442 
C    -1.1390893    0.5422101    3.6322725 
H    -2.4012860   -1.1445916    3.1186787 
Pd   -1.0379877    0.6648374    1.3526299 
P     1.2269702    0.0820249    1.0400197 
P    -1.3956790    1.0270977   -0.9247299 
H    -3.2639426    1.7437386    2.3438781 
H    -1.1428144    1.6401056    3.7209007 
C    -6.2213933   -1.2162535   -0.1763681 
C    -5.0685549   -1.9391195    0.1720956 
C    -4.0665088   -1.3345472    0.9375569 
C    -4.1901771    0.0066231    1.3715837 
C    -5.3574407    0.7164858    1.0166378 
C    -6.3620985    0.1117407    0.2517193 
H    -7.0022596   -1.6849584   -0.7839331 
H    -4.9344725   -2.9689710   -0.1750224 
H    -3.1565165   -1.9003240    1.1657482 
H    -5.4737472    1.7548867    1.3430829 
H    -7.2548129    0.6844520   -0.0187628 
C     1.6919704   -1.3700063    6.2439739 
C     1.5230907    0.0220833    6.2612954 
C     0.6057765    0.6286498    5.3961291 
C    -0.1718800   -0.1440174    4.5043008 
C     0.0106332   -1.5464934    4.4975933 
C     0.9341045   -2.1507175    5.3553223 
H     2.4128007   -1.8460532    6.9167408 
H     2.1124385    0.6397562    6.9462056 
H     0.4827250    1.7166858    5.4102854 
H    -0.5645860   -2.1728941    3.8104387 
H     1.0638486   -3.2376910    5.3308659 
O     1.6298888    0.3586230   -4.0815022 
O     2.2339811   -2.2600378   -2.5568625 
O     4.6495471    3.0867436   -1.5925029 
O    -2.3085099   -3.9002187   -1.9285852 
C     1.5880785    0.2311541   -1.7410215 
C     0.5224626   -0.8034963   -1.8884322 
C     2.0815311    0.6594371   -0.4904873 
C    -0.8492225   -0.5813726   -1.6198547 
C     2.1730164    0.7870539   -2.9132688 
C     0.9117435   -2.1111453   -2.2843203 
C     3.1205021    1.6072687   -0.3959173 
C    -1.7746032   -1.6390936   -1.6410444 
C     3.1960156    1.7370876   -2.8329454 
C    -0.0100834   -3.1713608   -2.3405509 
C     3.6675712    2.1480174   -1.5716422 
C    -1.3500338   -2.9343721   -1.9828586 
C     1.3772141   -1.7471611    0.9533643 
C     2.3094053    0.6707495    2.4023489 
C    -3.0857338    1.4200546   -1.5348016 
C    -0.4593749    2.3763022   -1.7562092 
C     0.2434834   -2.5511362    1.1783945 
C     3.2309447   -0.1454822    3.0820073 
C    -3.6713076    2.5721314   -0.9676487 
C     0.2771129    3.3065696   -1.0014034 
C     2.6059522   -2.3550315    0.6207099 
C     2.2019193    2.0345399    2.7544111 
C    -3.7447082    0.7584540   -2.5878582 
C    -0.5689212    2.5362450   -3.1534272 
C     0.3375480   -3.9465179    1.1026400 
C     4.0585579    0.4059199    4.0715818 
C    -4.8925275    3.0572950   -1.4474514 
C     0.9210154    4.3765540   -1.6386818 
C     2.6997367   -3.7516951    0.5610806 
C     3.0434601    2.5845525    3.7291190 
C    -4.9811732    1.2360019   -3.0490677 
C     0.0739847    3.6074908   -3.7835746 
C     2.1620616    0.8516451   -5.3093668 
C     2.7131800   -3.5180003   -3.0234904 
C     1.5691330   -4.5486994    0.8048665 
C     3.9800054    1.7699424    4.3850832 
C    -5.5548685    2.3839448   -2.4856532 
C     0.8217724    4.5268619   -3.0289957 
C     5.1589640    3.5733217   -0.3520956 
C    -1.9522212   -5.2442611   -2.2485112 
H     3.4876670    1.9192570    0.5817539 
H    -2.8213446   -1.4945777   -1.3694848 
H     3.6392490    2.1961753   -3.7177957 
H     0.3231645   -4.1717048   -2.6154799 
H    -0.7194129   -2.0690266    1.3805395 
H     3.2969752   -1.2127916    2.8537002 
H    -3.1574294    3.0957810   -0.1522623 
H     0.3538436    3.1803628    0.0844563 
H     3.4787640   -1.7357481    0.3891914 
H     1.4556307    2.6659337    2.2567490 
H    -3.2946878   -0.1176644   -3.0626457 
H    -1.1503689    1.8208986   -3.7438893 
H    -0.5539174   -4.5612603    1.2656151 
H     4.7655857   -0.2395634    4.6026420 
H    -5.3326777    3.9566900   -1.0044112 
H     1.5041444    5.0908577   -1.0483018 
H     3.6584534   -4.2200840    0.3144410 
H     2.9603046    3.6460495    3.9851596 
H    -5.4907129    0.7100599   -3.8631385 
H    -0.0141837    3.7308945   -4.8682554 
H     2.0422708    1.9489350   -5.3839977 
H     1.5813048    0.3634160   -6.1051984 
H     3.2313163    0.5889715   -5.4159479 
H     2.5625858   -4.3106304   -2.2662341 
H     3.7900385   -3.3811691   -3.1985624 
H     2.2188685   -3.8080554   -3.9697313 
H     1.6478016   -5.6399096    0.7524985 
H     4.6343342    2.1952074    5.1531579 
H    -6.5154134    2.7561885   -2.8565831 
H     1.3233725    5.3636605   -3.5258785 
H     5.6237430    2.7624066    0.2404347 
H     5.9224226    4.3202409   -0.6126558 
H     4.3625372    4.0528656    0.2493862 
H    -2.8699737   -5.8369143   -2.1251145 
H    -1.5988183   -5.3300781   -3.2936289 
H    -1.1714455   -5.6266504   -1.5631061 
