111
Energy =
C    -2.5346790   -1.1264234    2.4038243 
C    -1.7743077   -0.3684030    3.3422612 
C    -1.6743616    1.0378268    3.2481394 
H    -1.1199992   -0.8942787    4.0497116 
Pd   -0.9650536    0.0359808    1.3205062 
P     0.8477703    1.3472166    0.6188277 
P    -1.1918777   -1.0321260   -0.7536315 
H    -3.4255364   -0.6493658    1.9726473 
H    -2.4248269    1.5621915    2.6345702 
C    -2.5662643   -5.4283942    2.2012387 
C    -3.6504485   -4.6806297    1.7208542 
C    -3.6309971   -3.2824218    1.7958854 
C    -2.5267945   -2.6018018    2.3542403 
C    -1.4410290   -3.3702870    2.8374215 
C    -1.4612019   -4.7655998    2.7621998 
H    -2.5787870   -6.5214676    2.1402034 
H    -4.5165944   -5.1860561    1.2812505 
H    -4.4794207   -2.7044828    1.4140597 
H    -0.5626466   -2.8691390    3.2597637 
H    -0.6086874   -5.3422916    3.1361406 
C     0.5220728    3.5797991    5.9262338 
C     0.1834479    2.2776575    6.3249823 
C    -0.5252966    1.4380198    5.4587504 
C    -0.9182610    1.8907693    4.1783654 
C    -0.5867378    3.2115874    3.7982344 
C     0.1335547    4.0440090    4.6592202 
H     1.0807458    4.2341951    6.6031649 
H     0.4669485    1.9170670    7.3192354 
H    -0.8031950    0.4331679    5.7931835 
H    -0.8768551    3.5722555    2.8047248 
H     0.3978638    5.0573731    4.3411230 
O     2.1200167   -1.2547242   -3.6588060 
O     2.0038388    1.7524166   -3.6743380 
O     4.9913793   -1.8366562    0.1045477 
O    -2.6401615    2.1784437   -4.6729541 
C     1.6440289   -0.0634544   -1.6915595 
C     0.4681425    0.4924622   -2.4227116 
C     1.9848792    0.2753439   -0.3658396 
C    -0.8640174    0.1076088   -2.1683384 
C     2.4935038   -0.9762350   -2.3831641 
C     0.7006413    1.4257037   -3.4736117 
C     3.1055384   -0.2945374    0.2740712 
C    -1.9389433    0.6456499   -2.9062023 
C     3.6036821   -1.5517983   -1.7581491 
C    -0.3566470    1.9758049   -4.2044392 
C     3.9034466   -1.2167807   -0.4235360 
C    -1.6790832    1.5879777   -3.9154666 
C     1.8907273    1.9531462    2.0077107 
C     0.4859131    2.8041865   -0.4284537 
C    -0.1165791   -2.4829297   -1.0390507 
C    -2.9271700   -1.5893235   -1.0104897 
C     2.5535177    3.1955925    1.9961185 
C    -0.8391905    3.2761465   -0.5066047 
C     0.6481388   -2.9903446    0.0283684 
C    -3.2642023   -2.8804836   -1.4556893 
C     2.0299203    1.1089998    3.1305098 
C     1.5064787    3.4633101   -1.1462743 
C    -0.0358772   -3.0856886   -2.3120307 
C    -3.9608756   -0.6737750   -0.7080696 
C     3.3631555    3.5708491    3.0771822 
C    -1.1421187    4.3994533   -1.2878921 
C     1.4818175   -4.0977910   -0.1702183 
C    -4.6112554   -3.2396028   -1.6200731 
C     2.8457173    1.4840354    4.2042054 
C     1.2001195    4.5960222   -1.9106368 
C     0.7876878   -4.2028675   -2.4994194 
C    -5.3032708   -1.0331905   -0.8803644 
C     2.9519259   -2.0979560   -4.4520257 
C     2.3403728    2.6045254   -4.7667783 
C     3.5164682    2.7160482    4.1779014 
C    -0.1217707    5.0635260   -1.9847048 
C     1.5473594   -4.7080533   -1.4316017 
C    -5.6310125   -2.3199063   -1.3402396 
C     5.3644502   -1.5389508    1.4488163 
C    -4.0046098    1.8338213   -4.4408353 
H     3.3525802   -0.0077398    1.2966661 
H    -2.9586810    0.3170654   -2.7070705 
H     4.2514660   -2.2702733   -2.2625789 
H    -0.2008451    2.7094908   -4.9968283 
H     2.4329738    3.8791703    1.1513537 
H    -1.6326944    2.7446361    0.0322241 
H     0.5986725   -2.4983166    1.0050479 
H    -2.4805909   -3.6158129   -1.6579466 
H     1.4839397    0.1580066    3.1618666 
H     2.5278814    3.0702158   -1.1324307 
H    -0.5970547   -2.6677601   -3.1540882 
H    -3.7080961    0.3266081   -0.3348692 
H     3.8724957    4.5399828    3.0591089 
H    -2.1756337    4.7539152   -1.3567522 
H     2.0858274   -4.4808508    0.6584616 
H    -4.8608655   -4.2496841   -1.9609454 
H     2.9397887    0.8239609    5.0721539 
H     1.9957263    5.1111818   -2.4591333 
H     0.8435927   -4.6761093   -3.4854246 
H    -6.0946754   -0.3128447   -0.6480392 
H     3.0207266   -3.1136860   -4.0192836 
H     3.9669106   -1.6710991   -4.5569726 
H     2.4694939   -2.1516742   -5.4386732 
H     3.4363466    2.6925124   -4.7515074 
H     1.8878857    3.6071567   -4.6484657 
H     2.0156806    2.1654284   -5.7285555 
H     4.1459504    3.0152019    5.0222578 
H    -0.3578441    5.9429992   -2.5927029 
H     2.1967475   -5.5762168   -1.5858376 
H    -6.6801320   -2.6054163   -1.4688871 
H     5.6121513   -0.4673828    1.5717082 
H     4.5599483   -1.8104101    2.1596248 
H     6.2565368   -2.1474254    1.6551795 
H    -4.1865118    0.7575475   -4.6235686 
H    -4.3130115    2.0851482   -3.4074628 
H    -4.5913139    2.4305017   -5.1538251 
