111
Energy =
C    -3.1258130    0.6839431    2.0434202 
C    -2.4716389   -0.0685095    3.0628278 
C    -1.2945568    0.3997209    3.6880734 
H    -2.7876848   -1.1027754    3.2507014 
Pd   -1.0207567    0.2671782    1.4212974 
P     1.1848224   -0.4822430    1.1486514 
P    -1.2332135    0.9616855   -0.8071416 
H    -3.0686837    1.7793355    2.1068710 
H    -1.0595931    1.4724483    3.5957180 
C    -6.4040757   -0.7773851   -0.3370150 
C    -5.5185216   -1.6888935    0.2632142 
C    -4.4535047   -1.2272521    1.0414436 
C    -4.2477799    0.1589226    1.2405897 
C    -5.1480664    1.0620895    0.6337817 
C    -6.2147459    0.5985307   -0.1462033 
H    -7.2357745   -1.1408060   -0.9492953 
H    -5.6575512   -2.7652609    0.1168960 
H    -3.7612970   -1.9518470    1.4850007 
H    -5.0037663    2.1385980    0.7746928 
H    -6.8983511    1.3181508   -0.6085263 
C     0.8668506   -1.6317019    6.7958139 
C     1.4766480   -0.6059000    6.0559300 
C     0.7632083    0.0531836    5.0511383 
C    -0.5694773   -0.3120231    4.7520340 
C    -1.1725339   -1.3436496    5.5076606 
C    -0.4614664   -1.9924281    6.5229032 
H     1.4239274   -2.1435285    7.5871622 
H     2.5141023   -0.3235834    6.2608301 
H     1.2461743    0.8450140    4.4670065 
H    -2.2156450   -1.6198139    5.3224052 
H    -0.9479210   -2.7793527    7.1085951 
O     1.3374622   -0.6398947   -4.0142205 
O     3.6304267    0.5268372   -2.4411711 
O     0.9136279   -4.8323056   -1.5770682 
O     1.7668624    4.9979831   -1.9534939 
C     1.3142592   -0.6600522   -1.6688680 
C     1.4126415    0.8264113   -1.7417717 
C     1.2724453   -1.3920216   -0.4567743 
C     0.3335826    1.6957263   -1.4498818 
C     1.2773921   -1.3924265   -2.8837439 
C     2.6334143    1.4094002   -2.1658364 
C     1.1499628   -2.7895319   -0.4573573 
C     0.4780610    3.0877721   -1.5420126 
C     1.1486765   -2.7918679   -2.8984160 
C     2.7963492    2.8030249   -2.2504130 
C     1.0683674   -3.4856676   -1.6777198 
C     1.7145863    3.6402058   -1.9248155 
C     1.6976827   -1.7181769    2.4090453 
C     2.5153992    0.7757647    1.0961674 
C    -1.7058078   -0.3243699   -2.0196626 
C    -2.4740777    2.3120532   -0.9553030 
C     0.7133200   -2.6168401    2.8736307 
C     3.8130292    0.4528997    0.6448472 
C    -1.6788912   -0.0601726   -3.4054524 
C    -3.4963656    2.3150861   -1.9220447 
C     3.0052602   -1.8044331    2.9254139 
C     2.2345254    2.0848710    1.5337221 
C    -2.1009176   -1.5925108   -1.5541227 
C    -2.4100898    3.3674764   -0.0174153 
C     1.0397264   -3.6060930    3.8080706 
C     4.8186721    1.4273082    0.6604914 
C    -2.0701745   -1.0558535   -4.3093090 
C    -4.4222579    3.3691205   -1.9645877 
C     3.3255377   -2.7918241    3.8670944 
C     3.2408070    3.0607232    1.5303703 
C    -2.4767835   -2.5886373   -2.4643632 
C    -3.3318510    4.4202986   -0.0671507 
C     1.3812930   -1.2894217   -5.2809726 
C     4.8637710    1.0112024   -2.9635842 
C     2.3483292   -3.6965159    4.3052498 
C     4.5347351    2.7302027    1.1013173 
C    -2.4680989   -2.3190642   -3.8409153 
C    -4.3408560    4.4234198   -1.0448775 
C     0.8159486   -5.6074542   -2.7699759 
C     2.9863022    5.6352534   -2.3281131 
H     1.1168338   -3.3705804    0.4666145 
H    -0.3432290    3.7757517   -1.3343075 
H     1.0898899   -3.3267188   -3.8458245 
H     3.7551034    3.2254334   -2.5498337 
H    -0.3160202   -2.5299918    2.5042215 
H     4.0244648   -0.5483199    0.2563903 
H    -1.3344531    0.9121986   -3.7721354 
H    -3.5870902    1.4882981   -2.6316866 
H     3.7747262   -1.0965678    2.6060202 
H     1.2181696    2.3379781    1.8579333 
H    -2.0952830   -1.7958321   -0.4786209 
H    -1.6320450    3.3612711    0.7560136 
H     0.2668048   -4.2947302    4.1628594 
H     5.8279121    1.1701663    0.3217783 
H    -2.0602502   -0.8468022   -5.3843223 
H    -5.2165955    3.3572373   -2.7180411 
H     4.3447204   -2.8492484    4.2632620 
H     3.0127179    4.0796296    1.8594788 
H    -2.7734462   -3.5763200   -2.0968410 
H    -3.2663093    5.2363531    0.6598536 
H     1.4568085   -0.4854215   -6.0273808 
H     0.4602671   -1.8744142   -5.4651393 
H     2.2637289   -1.9521361   -5.3604523 
H     5.3737721    1.6777646   -2.2421932 
H     4.7100215    1.5488748   -3.9182089 
H     5.4855012    0.1212615   -3.1385829 
H     2.6015228   -4.4634041    5.0444296 
H     5.3235536    3.4899680    1.1062979 
H    -2.7692811   -3.0951298   -4.5527919 
H    -5.0656153    5.2431761   -1.0819548 
H    -0.0583728   -5.3023904   -3.3768322 
H     1.7349496   -5.5259333   -3.3815298 
H     0.6883981   -6.6492811   -2.4427148 
H     3.8072301    5.3722241   -1.6333558 
H     3.2797302    5.3700848   -3.3618822 
H     2.7915642    6.7157983   -2.2710042 
