111
Energy =
C    -2.5341874   -1.1844826    2.4342324 
C    -1.7947934   -0.4341463    3.3951495 
C    -1.7256207    0.9758781    3.3364769 
H    -1.1331032   -0.9630148    4.0933864 
Pd   -0.9840095    0.0376439    1.3881984 
P     0.8071997    1.4029153    0.7349230 
P    -1.1777847   -0.9832064   -0.7124311 
H    -3.4322902   -0.7153787    2.0094401 
H    -2.4835372    1.4982179    2.7303238 
C    -2.4819324   -5.4804937    2.1329016 
C    -1.3932969   -4.8099405    2.7162943 
C    -1.3997909   -3.4164950    2.8230277 
C    -2.4967393   -2.6577771    2.3497286 
C    -3.5839598   -3.3461644    1.7679457 
C    -3.5767324   -4.7424444    1.6615844 
H    -2.4737062   -6.5720074    2.0476617 
H    -0.5327341   -5.3787707    3.0838286 
H    -0.5338491   -2.9089972    3.2630376 
H    -4.4404607   -2.7755792    1.3931293 
H    -4.4306717   -5.2539677    1.2054065 
C     0.3820746    3.5039769    6.0967613 
C     0.0783112    2.1824018    6.4577979 
C    -0.5997967    1.3466926    5.5638921 
C    -0.9968270    1.8227180    4.2931919 
C    -0.6997712    3.1619424    3.9507433 
C    -0.0097637    3.9908542    4.8393518 
H     0.9171105    4.1554104    6.7952825 
H     0.3657531    1.8030392    7.4438732 
H    -0.8505586    0.3255256    5.8689636 
H    -0.9932030    3.5408893    2.9650102 
H     0.2288397    5.0191414    4.5502219 
O     2.1473853   -1.0823972   -3.5925285 
O     1.9841783    1.9262125   -3.5460414 
O     4.9119249   -1.6685777    0.3707804 
O    -2.6605998    2.2923141   -4.5652269 
C     1.6407199    0.0546374   -1.6053827 
C     0.4633247    0.6100077   -2.3339915 
C     1.9651052    0.3649809   -0.2620300 
C    -0.8631027    0.1939038   -2.0992329 
C     2.5014689   -0.8308716   -2.3047386 
C     0.6857577    1.5715931   -3.3611163 
C     3.0739506   -0.2183635    0.3689750 
C    -1.9430998    0.7292233   -2.8317610 
C     3.6125754   -1.4258161   -1.6829176 
C    -0.3768516    2.1194779   -4.0859465 
C     3.8846971   -1.1275389   -0.3358491 
C    -1.6938486    1.7007813   -3.8155636 
C     1.8227159    2.0070901    2.1424644 
C     0.4263387    2.8704730   -0.2908365 
C    -0.0781212   -2.4118865   -1.0237892 
C    -2.9018837   -1.5646493   -0.9920034 
C     2.4347389    3.2753529    2.1687678 
C    -0.9073880    3.3159613   -0.3769230 
C     0.6867948   -2.9306963    0.0377790 
C    -3.2155770   -2.8506896   -1.4680420 
C     1.9840568    1.1412173    3.2454052 
C     1.4420344    3.5667074   -0.9799563 
C     0.0170063   -2.9890449   -2.3077801 
C    -3.9522000   -0.6737589   -0.6733710 
C     3.2183235    3.6548356    3.2670791 
C    -1.2240635    4.4491762   -1.1381841 
C     1.5332411   -4.0259229   -0.1766147 
C    -4.5557260   -3.2284052   -1.6467300 
C     2.7738468    1.5214519    4.3362569 
C     1.1214841    4.7087480   -1.7243834 
C     0.8538034   -4.0934377   -2.5117600 
C    -5.2876406   -1.0514230   -0.8600060 
C     2.9920166   -1.8953671   -4.4014746 
C     2.3096687    2.8164924   -4.6108349 
C     3.3947265    2.7793046    4.3477124 
C    -0.2090859    5.1494916   -1.8068136 
C     1.6117843   -4.6119203   -1.4486906 
C    -5.5919290   -2.3324833   -1.3508058 
C     5.7754024   -2.6041664   -0.2716192 
C    -4.0199957    1.9181673   -4.3502584 
H     3.3409831    0.0101344    1.4028651 
H    -2.9578667    0.3772930   -2.6477135 
H     4.2395809   -2.1253860   -2.2348397 
H    -0.2298524    2.8754335   -4.8588550 
H     2.2945783    3.9752600    1.3406370 
H    -1.6961333    2.7564922    0.1401408 
H     0.6266852   -2.4589476    1.0236605 
H    -2.4192173   -3.5683832   -1.6832204 
H     1.4776489    0.1681595    3.2479620 
H     2.4720245    3.1971245   -0.9575116 
H    -0.5445179   -2.5614744   -3.1447523 
H    -3.7177608    0.3215745   -0.2755300 
H     3.6893279    4.6432742    3.2780255 
H    -2.2638573    4.7834831   -1.2131073 
H     2.1342289   -4.4180059    0.6502114 
H    -4.7869209   -4.2346149   -2.0112279 
H     2.8885936    0.8426298    5.1869035 
H     1.9132456    5.2532177   -2.2496647 
H     0.9190984   -4.5481944   -3.5059209 
H    -6.0919335   -0.3498584   -0.6148283 
H     3.0632412   -2.9243244   -4.0005988 
H     4.0050787   -1.4588998   -4.4863775 
H     2.5193794   -1.9231945   -5.3939407 
H     3.4034443    2.9270396   -4.5853779 
H     1.8355129    3.8055901   -4.4667113 
H     2.0004657    2.3992581   -5.5874310 
H     4.0044932    3.0811453    5.2054221 
H    -0.4559000    6.0368148   -2.3989575 
H     2.2678698   -5.4730474   -1.6152597 
H    -6.6355686   -2.6323333   -1.4908976 
H     5.2162183   -3.4950360   -0.6174919 
H     6.3027724   -2.1445633   -1.1293947 
H     6.5107372   -2.9061031    0.4879027 
H    -4.1818204    0.8436681   -4.5604394 
H    -4.3389256    2.1384020   -3.3129754 
H    -4.6130608    2.5218062   -5.0520570 
