111
Energy =
C    -3.1329725    0.6556985    2.2110281 
C    -2.2868503   -0.0845016    3.0929065 
C    -1.1637646    0.5055578    3.7146270 
H    -2.4295035   -1.1698552    3.1751239 
Pd   -1.0393286    0.6468394    1.4361665 
P     1.2290564    0.0624433    1.1467829 
P    -1.3746698    1.0278397   -0.8410896 
H    -3.2701848    1.7280398    2.4132222 
H    -1.1609209    1.6027900    3.8109947 
C    -6.2201919   -1.2040665   -0.1492222 
C    -5.0713162   -1.9325291    0.2007200 
C    -4.0725692   -1.3365007    0.9771261 
C    -4.1954243    0.0015881    1.4207523 
C    -5.3584533    0.7172575    1.0637444 
C    -6.3598904    0.1210936    0.2878789 
H    -6.9988207   -1.6662706   -0.7646017 
H    -4.9376259   -2.9600219   -0.1534929 
H    -3.1656119   -1.9064513    1.2069523 
H    -5.4741387    1.7534158    1.3975104 
H    -7.2493612    0.6982933    0.0161762 
C     1.6078756   -1.4479355    6.3586324 
C     1.4490346   -0.0548504    6.3841123 
C     0.5530332    0.5656630    5.5066136 
C    -0.2135013   -0.1940913    4.5944414 
C    -0.0402428   -1.5977136    4.5785605 
C     0.8623103   -2.2157346    5.4485584 
H     2.3121878   -1.9347480    7.0411176 
H     2.0301793    0.5529082    7.0846770 
H     0.4382785    1.6544721    5.5269176 
H    -0.6062594   -2.2140254    3.8747979 
H     0.9855011   -3.3032933    5.4168594 
O     1.6605424    0.3780014   -3.9712988 
O     2.2566139   -2.2623300   -2.4633908 
O     4.6057466    3.1298751   -1.2406936 
O    -2.2976802   -3.8893438   -1.8853613 
C     1.6072367    0.2305934   -1.6357576 
C     0.5444975   -0.8041296   -1.7987594 
C     2.0915838    0.6548035   -0.3732576 
C    -0.8289936   -0.5781643   -1.5430200 
C     2.1897804    0.8015970   -2.7937968 
C     0.9326884   -2.1102721   -2.1999029 
C     3.1117518    1.6109490   -0.2727409 
C    -1.7585843   -1.6317791   -1.5800923 
C     3.2030542    1.7723281   -2.7073406 
C     0.0073257   -3.1666088   -2.2709784 
C     3.6559198    2.1787419   -1.4400371 
C    -1.3351793   -2.9266175   -1.9248644 
C     1.3749732   -1.7661477    1.0417954 
C     2.2969711    0.6302416    2.5273066 
C    -3.0583680    1.4304455   -1.4631818 
C    -0.4322615    2.3847114   -1.6567555 
C     0.2375823   -2.5698104    1.2486665 
C     3.1933847   -0.2043753    3.2184628 
C    -3.6477433    2.5777110   -0.8904245 
C     0.2990794    3.3082433   -0.8890500 
C     2.6064259   -2.3736441    0.7187083 
C     2.1971075    1.9913057    2.8909969 
C    -3.7070904    0.7814848   -2.5304479 
C    -0.5389949    2.5617118   -3.0524105 
C     0.3300744   -3.9647561    1.1634936 
C     4.0041546    0.3267386    4.2323798 
C    -4.8625154    3.0707167   -1.3786404 
C     0.9385673    4.3906168   -1.5108129 
C     2.6984562   -3.7700235    0.6497067 
C     3.0219446    2.5204317    3.8908920 
C    -4.9371044    1.2668813   -3.0005909 
C     0.0989757    3.6444888   -3.6674849 
C     2.1903133    0.8825987   -5.1940540 
C     2.7351249   -3.5217324   -2.9265452 
C     1.5638593   -4.5668690    0.8748048 
C     3.9332257    1.6879230    4.5592518 
C    -5.5144749    2.4102275   -2.4315222 
C     0.8391112    4.5591375   -2.8989067 
C     5.1895514    3.7719346   -2.3726990 
C    -1.9426271   -5.2332472   -2.2068494 
H     3.4964372    1.9538135    0.6895807 
H    -2.8074218   -1.4848306   -1.3180517 
H     3.6114177    2.2206911   -3.6124419 
H     0.3391185   -4.1667152   -2.5485058 
H    -0.7264934   -2.0875428    1.4448039 
H     3.2524170   -1.2699349    2.9804955 
H    -3.1419500    3.0913265   -0.0636983 
H     0.3745487    3.1694781    0.1952060 
H     3.4833860   -1.7540952    0.5041329 
H     1.4714240    2.6378028    2.3825189 
H    -3.2538577   -0.0909990   -3.0089482 
H    -1.1168119    1.8518794   -3.6529645 
H    -0.5640829   -4.5791557    1.3125619 
H     4.6921170   -0.3324141    4.7715964 
H    -5.3059662    3.9659703   -0.9305194 
H     1.5185987    5.0975307   -0.9089225 
H     3.6593618   -4.2382959    0.4114511 
H     2.9477556    3.5807206    4.1538997 
H    -5.4387058    0.7508021   -3.8258434 
H     0.0103538    3.7824326   -4.7504590 
H     3.2631215    0.6332464   -5.3001720 
H     2.0554173    1.9785413   -5.2670176 
H     1.6188538    0.3901737   -5.9940411 
H     2.5731555   -4.3147101   -2.1720551 
H     3.8144509   -3.3896737   -3.0899057 
H     2.2496960   -3.8086644   -3.8784122 
H     1.6413416   -5.6578212    0.8154392 
H     4.5754983    2.0977657    5.3456057 
H    -6.4699388    2.7886798   -2.8092480 
H     1.3321528    5.4084500   -3.3838603 
H     4.4253185    4.3067451   -2.9689301 
H     5.9112364    4.4963922   -1.9689020 
H     5.7207470    3.0471168   -3.0189689 
H    -2.8634297   -5.8234024   -2.0945885 
H    -1.5793695   -5.3164277   -3.2488258 
H    -1.1697591   -5.6207753   -1.5154003 
