111
Energy =
C    -3.1041587    0.6816384    2.1731889 
C    -2.2416392   -0.0521104    3.0446344 
C    -1.1078527    0.5438903    3.6409944 
H    -2.3813866   -1.1370766    3.1362823 
Pd   -1.0243929    0.6678212    1.3608558 
P     1.2361523    0.0766318    1.0303817 
P    -1.3983538    1.0327858   -0.9136225 
H    -3.2380424    1.7553246    2.3705218 
H    -1.1059974    1.6417218    3.7304687 
C    -6.2285380   -1.1916470   -0.1261546 
C    -5.0746146   -1.9185230    0.2102719 
C    -4.0637022   -1.3182294    0.9673639 
C    -4.1793455    0.0225718    1.4047663 
C    -5.3476574    0.7365396    1.0618308 
C    -6.3612505    0.1360535    0.3053497 
H    -7.0165362   -1.6570719   -0.7269997 
H    -4.9468728   -2.9481768   -0.1398296 
H    -3.1533239   -1.8870656    1.1862202 
H    -5.4576871    1.7748143    1.3908951 
H    -7.2547271    0.7118672    0.0441018 
C     1.7322590   -1.3833688    6.2317516 
C     1.5710128    0.0096144    6.2501981 
C     0.6509741    0.6211258    5.3914190 
C    -0.1370760   -0.1473454    4.5051023 
C     0.0383874   -1.5507205    4.4966056 
C     0.9645019   -2.1599214    5.3479480 
H     2.4546701   -1.8633735    6.8999979 
H     2.1682656    0.6240751    6.9311425 
H     0.5339104    1.7098103    5.4063545 
H    -0.5446079   -2.1739661    3.8131319 
H     1.0885232   -3.2475410    5.3223429 
O     1.6003576    0.3553694   -4.0939262 
O     2.2067564   -2.2667674   -2.5751387 
O     4.6468880    3.0731636   -1.6264333 
O    -2.3375228   -3.8899215   -1.9159243 
C     1.5761115    0.2265355   -1.7532648 
C     0.5057344   -0.8042341   -1.8931559 
C     2.0808013    0.6521224   -0.5062992 
C    -0.8630299   -0.5771282   -1.6141191 
C     2.1535960    0.7815628   -2.9296100 
C     0.8871179   -2.1130382   -2.2928698 
C     3.1233539    1.5967284   -0.4191099 
C    -1.7926600   -1.6312431   -1.6295925 
C     3.1798276    1.7286925   -2.8565400 
C    -0.0391833   -3.1696463   -2.3432571 
C     3.6625382    2.1371124   -1.5986401 
C    -1.3756287   -2.9277967   -1.9757913 
C     1.3784290   -1.7530798    0.9413997 
C     2.3312647    0.6600173    2.3848703 
C    -3.0914048    1.4314437   -1.5114066 
C    -0.4636177    2.3796252   -1.7507254 
C     2.6021607   -2.3657637    0.5992682 
C     2.2318001    2.0239089    2.7389092 
C    -3.6713934    2.5828139   -0.9372260 
C     0.2811448    3.3067492   -1.0001590 
C     0.2431347   -2.5525535    1.1744384 
C     3.2543518   -0.1605387    3.0571928 
C    -3.7575717    0.7747009   -2.5630382 
C    -0.5827933    2.5416592   -3.1469180 
C     2.6897784   -3.7627653    0.5381086 
C     3.0821914    2.5695429    3.7083772 
C    -4.8942906    3.0720180   -1.4086215 
C     0.9234039    4.3757598   -1.6407312 
C     0.3309114   -3.9482584    1.0971816 
C     4.0908933    0.3865201    4.0416539 
C    -4.9955360    1.2563136   -3.0158600 
C     0.0587365    3.6117674   -3.7803895 
C     2.1243356    0.8478135   -5.3255371 
C     2.6777287   -3.5262576   -3.0459807 
C     1.5577574   -4.5552873    0.7898184 
C     4.0198706    1.7504942    4.3571542 
C    -5.5637320    2.4035287   -2.4453868 
C     0.8145381    4.5281024   -3.0300987 
C     5.1677450    3.5568997   -0.3896719 
C    -1.9888318   -5.2349483   -2.2400524 
H     3.4991941    1.9066894    0.5559030 
H    -2.8368635   -1.4828205   -1.3504120 
H     3.6172224    2.1874876   -3.7444500 
H     0.2881949   -4.1710280   -2.6214481 
H     3.4757420   -1.7499056    0.3615533 
H     1.4847985    2.6588322    2.2468376 
H    -3.1519042    3.1025872   -0.1229274 
H     0.3653256    3.1789419    0.0849625 
H    -0.7161899   -2.0665846    1.3842294 
H     3.3147074   -1.2278185    2.8272140 
H    -3.3119255   -0.1008019   -3.0431058 
H    -1.1707664    1.8288808   -3.7340107 
H     3.6447494   -4.2349331    0.2842323 
H     3.0050114    3.6310823    3.9661124 
H    -5.3302673    3.9707032   -0.9600452 
H     1.5126001    5.0878320   -1.0536847 
H    -0.5617926   -4.5594653    1.2665618 
H     4.7989285   -0.2623420    4.5672310 
H    -5.5105345    0.7343094   -3.8290355 
H    -0.0368033    3.7367204   -4.8642717 
H     3.1920256    0.5823737   -5.4405875 
H     2.0069150    1.9454716   -5.3984998 
H     1.5361284    0.3617029   -6.1171859 
H     3.7538106   -3.3934659   -3.2287747 
H     2.1754661   -3.8138357   -3.9887934 
H     2.5295697   -4.3187947   -2.2881439 
H     1.6315293   -5.6467738    0.7360628 
H     4.6809465    2.1722797    5.1213633 
H    -6.5255478    2.7789809   -2.8097391 
H     1.3149471    5.3640779   -3.5295639 
H     5.6352346    2.7440479    0.1980525 
H     5.9309963    4.3021380   -0.6555982 
H     4.3775506    4.0378205    0.2188987 
H    -2.9080145   -5.8241411   -2.1108579 
H    -1.6432315   -5.3208321   -3.2877792 
H    -1.2047094   -5.6213027   -1.5607132 
