111
Energy =
C    -3.0077021    0.8478727    2.2960252 
C    -2.2043873   -0.0136910    3.0996813 
C    -0.9978272    0.4496435    3.6748622 
H    -2.4664451   -1.0779658    3.1694273 
Pd   -0.9695294    0.5877021    1.3909027 
P     1.3024568   -0.0053104    1.0923746 
P    -1.3028833    0.8606074   -0.9131347 
H    -2.9700501    1.9230784    2.5288069 
H    -0.8928196    1.5389758    3.7972806 
C    -6.6173847   -0.4749781    0.3604664 
C    -5.4713342   -1.2872822    0.3368125 
C    -4.2989542   -0.8676308    0.9721468 
C    -4.2424524    0.3796040    1.6339839 
C    -5.4006380    1.1854382    1.6504587 
C    -6.5796375    0.7578710    1.0271092 
H    -7.5333622   -0.8018851   -0.1418908 
H    -5.4935397   -2.2481234   -0.1883743 
H    -3.3979175   -1.4911586    0.9293866 
H    -5.3735826    2.1559651    2.1587253 
H    -7.4698274    1.3948699    1.0530403 
C     1.6315599   -1.8032011    6.2246939 
C     1.5536038   -0.4065478    6.3246992 
C     0.7045278    0.3119148    5.4755952 
C    -0.0962092   -0.3519533    4.5194080 
C    -0.0120982   -1.7606352    4.4349613 
C     0.8466271   -2.4766583    5.2738294 
H     2.3016778   -2.3663534    6.8824591 
H     2.1628195    0.1279100    7.0604124 
H     0.6559975    1.4030847    5.5513743 
H    -0.6130561   -2.3027505    3.7002717 
H     0.9049430   -3.5664828    5.1852394 
O     1.7980654    0.3516205   -4.0144322 
O     2.4888117   -2.2641763   -2.5404737 
O     4.5812088    3.2188748   -1.2320850 
O    -1.8213246   -4.2259029   -1.9836941 
C     1.7235355    0.1922623   -1.6813447 
C     0.7128652   -0.8896533   -1.8511979 
C     2.1649829    0.6341394   -0.4101488 
C    -0.6566278   -0.7306467   -1.5708433 
C     2.2946009    0.7924811   -2.8294467 
C     1.1631375   -2.1799841   -2.2634970 
C     3.1401996    1.6338295   -0.2911422 
C    -1.5456242   -1.8313196   -1.5870958 
C     3.2622696    1.8069425   -2.7246226 
C     0.2858454   -3.2660649   -2.3264657 
C     3.6772020    2.2279079   -1.4490107 
C    -1.0637539   -3.0962373   -1.9567604 
C     1.4957481   -1.8259718    0.9738859 
C     2.3479736    0.5757641    2.4858852 
C    -2.9765604    1.0726644   -1.6464287 
C    -0.4185932    2.2615219   -1.7211211 
C     2.7476488   -2.3962617    0.6609373 
C     3.2570621   -0.2474517    3.1739172 
C    -3.8096884    2.0485558   -1.0660953 
C     0.2612833    3.2117877   -0.9376545 
C     0.3786077   -2.6615741    1.1643878 
C     2.2193113    1.9311190    2.8616817 
C    -3.3932392    0.4209994   -2.8265929 
C    -0.5050093    2.4408995   -3.1178223 
C     2.8794044   -3.7888266    0.5852547 
C     4.0510748    0.2894273    4.1981890 
C    -5.0478951    2.3559213   -1.6425267 
C     0.8685375    4.3213834   -1.5429302 
C     0.5115407   -4.0526796    1.0702865 
C     3.0254511    2.4657507    3.8739735 
C    -4.6371459    0.7277095   -3.3950622 
C     0.1000573    3.5513704   -3.7168624 
C     2.3264052    0.8768277   -5.2293249 
C     3.0177260   -3.5037205   -3.0068555 
C     1.7645807   -4.6178529    0.7915344 
C     3.9491068    1.6448145    4.5401531 
C    -5.4678864    1.6903688   -2.8031676 
C     0.7884785    4.4918463   -2.9320114 
C     5.1562679    3.8880255   -2.3529478 
C    -3.1932298   -4.1377466   -1.6072080 
H     3.4966189    1.9898289    0.6771265 
H    -2.5929651   -1.6867731   -1.3170493 
H     3.6637445    2.2766762   -3.6219556 
H     0.6138652   -4.2668518   -2.6111475 
H     3.6086532   -1.7509814    0.4578730 
H     3.3373183   -1.3096757    2.9275806 
H    -3.4829018    2.5704392   -0.1604345 
H     0.3221034    3.0726439    0.1477176 
H    -0.6013697   -2.2080110    1.3520906 
H     1.4872130    2.5699530    2.3523864 
H    -2.7468112   -0.3189351   -3.3079817 
H    -1.0398383    1.7118678   -3.7340122 
H     3.8553496   -4.2286500    0.3541739 
H     4.7488849   -0.3615034    4.7346652 
H    -5.6902509    3.1102484   -1.1774690 
H     1.4078246    5.0484524   -0.9273509 
H    -0.3661317   -4.6946021    1.1969355 
H     2.9291096    3.5218824    4.1464563 
H    -4.9535778    0.2160180   -4.3101760 
H     0.0257160    3.6897553   -4.8008348 
H     2.1477547    1.9662864   -5.3056043 
H     1.7886387    0.3608421   -6.0377353 
H     3.4100095    0.6714023   -5.3175660 
H     2.5360105   -3.8111399   -3.9538460 
H     2.8914879   -4.3013170   -2.2509702 
H     4.0892770   -3.3262086   -3.1778839 
H     1.8710669   -5.7054931    0.7216811 
H     4.5772234    2.0593501    5.3354248 
H    -6.4397386    1.9256950   -3.2492034 
H     1.2562069    5.3620680   -3.4048082 
H     4.3801560    4.3918788   -2.9607130 
H     5.8399674    4.6410877   -1.9356173 
H     5.7280637    3.1878712   -2.9915980 
H    -3.6029471   -5.1518438   -1.7183457 
H    -3.2999476   -3.8118921   -0.5539243 
H    -3.7507712   -3.4410432   -2.2621333 
