111
Energy =
C    -2.5188100    1.9362721    2.1716144 
C    -2.2516955    0.8846495    3.0777059 
C    -0.9409823    0.7330821    3.6353089 
H    -2.9975439    0.0918588    3.2165528 
Pd   -0.8222817    0.6059817    1.4305171 
P     1.4258090    0.0230229    1.1692945 
P    -1.3924217    0.3137245   -0.8123620 
H    -1.8137126    2.7829678    2.1792102 
H    -0.3653562    1.6491283    3.8268851 
C    -6.1531765    2.8418215    0.0707532 
C    -6.1197768    1.7497391    0.9529827 
C    -4.9454377    1.4313437    1.6410681 
C    -3.7770573    2.2073218    1.4653628 
C    -3.8262721    3.3049520    0.5732783 
C    -4.9997289    3.6177133   -0.1197304 
H    -7.0763180    3.0867034   -0.4645434 
H    -7.0164673    1.1408343    1.1045308 
H    -4.9432140    0.5811567    2.3294282 
H    -2.9288712    3.9151054    0.4245147 
H    -5.0164823    4.4713704   -0.8050208 
C     0.4543682   -2.7170233    5.8019446 
C     1.0952218   -1.4773220    5.9382739 
C     0.6222666   -0.3580264    5.2424751 
C    -0.5018682   -0.4548539    4.3922109 
C    -1.1395890   -1.7127592    4.2655143 
C    -0.6681886   -2.8282260    4.9635679 
H     0.8246884   -3.5929237    6.3444274 
H     1.9705594   -1.3785710    6.5887817 
H     1.1317791    0.6056009    5.3496042 
H    -2.0014149   -1.8241075    3.5973715 
H    -1.1737632   -3.7931754    4.8504993 
O     1.6277644    0.4479695   -3.9574858 
O     2.9432545   -1.9003684   -2.4680730 
O     3.8036906    3.8882424   -1.2848963 
O    -1.0711341   -4.6433840   -2.2169576 
C     1.6441956    0.3115607   -1.6176156 
C     0.9036813   -0.9743529   -1.7753876 
C     2.0487246    0.8398717   -0.3662985 
C    -0.4826954   -1.1229784   -1.5299217 
C     2.0260147    1.0149994   -2.7882599 
C     1.6202297   -2.1084198   -2.2343779 
C     2.7804749    2.0338078   -0.2880868 
C    -1.1198403   -2.3602510   -1.7032931 
C     2.7449192    2.2217661   -2.7230017 
C     0.9981006   -3.3586193   -2.3954949 
C     3.1155998    2.7300819   -1.4653856 
C    -0.3742894   -3.4807354   -2.1159821 
C     1.8624827   -1.7463350    1.0286135 
C     2.4372522    0.6939204    2.5511363 
C    -3.1638102   -0.1597612   -0.9167366 
C    -1.1136806    1.7032275   -1.9682734 
C     3.1575735   -2.1454187    0.6358001 
C     3.3533326   -0.0916030    3.2759430 
C    -4.0726858    0.4126917   -1.8246584 
C    -1.2649028    1.5402586   -3.3608055 
C     0.8905015   -2.7160837    1.3387761 
C     2.2141453    2.0320285    2.9486306 
C    -3.6164230   -1.1541696   -0.0191063 
C    -0.7111304    2.9490852   -1.4483141 
C     3.4726958   -3.5083904    0.5706375 
C     4.0512789    0.4604637    4.3613124 
C    -5.4014078   -0.0354280   -1.8620997 
C    -1.0418057    2.6271522   -4.2163678 
C     1.2090914   -4.0780326    1.2582765 
C     2.9199098    2.5817045    4.0254773 
C    -4.9378770   -1.6126403   -0.0760716 
C    -0.4746302    4.0280302   -2.3094866 
C     2.0203803    1.0444386   -5.1898067 
C     3.7307352   -2.9604840   -3.0020830 
C     2.4999955   -4.4743003    0.8785187 
C     3.8426952    1.7948787    4.7349580 
C    -5.8315725   -1.0577970   -1.0050094 
C    -0.6470894    3.8692615   -3.6933082 
C     4.1880702    4.6497759   -2.4275898 
C    -0.3849280   -5.8274712   -2.6174424 
H     3.1178100    2.4508095    0.6625032 
H    -2.1885946   -2.4961675   -1.5292284 
H     3.0025392    2.7570791   -3.6364889 
H     1.5788095   -4.2225164   -2.7175067 
H     3.9057832   -1.3925765    0.3677151 
H     3.5132997   -1.1398333    3.0086641 
H    -3.7498719    1.2112768   -2.4987115 
H    -1.5382280    0.5628620   -3.7715405 
H    -0.1135122   -2.3963913    1.6360880 
H     1.4781267    2.6438387    2.4127416 
H    -2.9211489   -1.5764704    0.7174989 
H    -0.5575176    3.0557220   -0.3685375 
H     4.4812190   -3.8188708    0.2774339 
H     4.7570468   -0.1627919    4.9201615 
H    -6.1029854    0.4200971   -2.5684387 
H    -1.1697541    2.5024356   -5.2969010 
H     0.4476008   -4.8289551    1.4923943 
H     2.7449930    3.6226580    4.3163839 
H    -5.2722694   -2.3974568    0.6104097 
H    -0.1492522    4.9904482   -1.9012157 
H     3.1222139    1.0841069   -5.2823556 
H     1.6014316    2.0633259   -5.2943408 
H     1.6084702    0.3991764   -5.9792005 
H     4.7418495   -2.5475427   -3.1297323 
H     3.3407714   -3.2937069   -3.9823691 
H     3.7714447   -3.8209029   -2.3075212 
H     2.7513823   -5.5389215    0.8230210 
H     4.3900355    2.2214158    5.5817860 
H    -6.8670691   -1.4108162   -1.0484691 
H    -0.4688356    4.7139312   -4.3673901 
H     4.8628900    4.0731881   -3.0887816 
H     3.3040751    4.9832950   -3.0048403 
H     4.7226056    5.5280848   -2.0382843 
H     0.0384852   -5.7249228   -3.6349986 
H     0.4239996   -6.0828646   -1.9059620 
H    -1.1389935   -6.6275976   -2.6164111 
