111
Energy =
C    -2.5876152   -1.1112686    2.4862486 
C    -1.8173892   -0.3364307    3.4027998 
C    -1.7091992    1.0664636    3.2762348 
H    -1.1618610   -0.8500648    4.1181031 
Pd   -1.0197972    0.0172328    1.3667228 
P     0.8029525    1.2945088    0.6276653 
P    -1.2750293   -1.0936062   -0.6816966 
H    -3.4787967   -0.6399764    2.0494038 
H    -2.4597692    1.5820342    2.6553551 
C    -2.6376246   -5.4164515    2.3842620 
C    -1.5251276   -4.7453067    2.9201479 
C    -1.4989036   -3.3487351    2.9623526 
C    -2.5858589   -2.5874238    2.4704058 
C    -3.6970759   -3.2762056    1.9367696 
C    -3.7226128   -4.6757084    1.8950153 
H    -2.6551317   -6.5106112    2.3493462 
H    -0.6716523   -5.3166178    3.3001456 
H    -0.6146971   -2.8413439    3.3647333 
H    -4.5457230   -2.7039126    1.5471181 
H    -4.5940366   -5.1875869    1.4737384 
C     0.5233585    3.6496437    5.8845904 
C     0.1737177    2.3606651    6.3152217 
C    -0.5470928    1.5080238    5.4719245 
C    -0.9412404    1.9343242    4.1828730 
C    -0.5986447    3.2425383    3.7705320 
C     0.1337436    4.0877029    4.6086489 
H     1.0911706    4.3142907    6.5437089 
H     0.4581165    2.0206490    7.3164476 
H    -0.8331841    0.5140309    5.8309810 
H    -0.8901610    3.5828539    2.7702804 
H     0.4065761    5.0906555    4.2656519 
O     2.0224037   -1.3965361   -3.6094934 
O     1.9293960    1.6139588   -3.6677559 
O     4.9122220   -1.9403112    0.1456536 
O    -2.8539059    2.0275099   -4.4724788 
C     1.5695773   -0.1675865   -1.6595241 
C     0.3932946    0.3905148   -2.3877050 
C     1.9238371    0.1929110   -0.3429568 
C    -0.9471320    0.0269643   -2.1114710 
C     2.4059639   -1.0997443   -2.3407467 
C     0.6238974    1.3079825   -3.4438150 
C     3.0434259   -0.3758328    0.2999090 
C    -2.0125568    0.5819130   -2.8353190 
C     3.5147952   -1.6746153   -1.7126235 
C    -0.4348196    1.8821048   -4.1685296 
C     3.8268943   -1.3187610   -0.3861957 
C    -1.7563173    1.5221310   -3.8507991 
C     1.8594278    1.9125644    2.0014437 
C     0.4549765    2.7400032   -0.4422671 
C    -0.2075951   -2.5532458   -0.9518974 
C    -3.0126171   -1.6501260   -0.9144039 
C     2.5373649    3.1463846    1.9670642 
C     1.4812714    3.3795828   -1.1698817 
C     0.5632818   -3.0468355    0.1175703 
C    -3.3541209   -2.9529630   -1.3211895 
C     1.9921888    1.0859821    3.1380297 
C    -0.8651412    3.2243872   -0.5251645 
C    -0.1436620   -3.1801078   -2.2141027 
C    -4.0425431   -0.7265817   -0.6249331 
C     3.3548857    3.5300376    3.0391841 
C     1.1860637    4.5067990   -1.9466278 
C     1.3871361   -4.1637986   -0.0683238 
C    -4.7026837   -3.3160821   -1.4605920 
C     2.8156520    1.4692508    4.2029244 
C    -1.1575714    4.3424612   -1.3184509 
C     0.6698490   -4.3067456   -2.3884321 
C    -5.3864556   -1.0907282   -0.7720848 
C     2.8387536   -2.2665309   -4.3896591 
C     2.2708083    2.4445074   -4.7735518 
C     3.5012144    2.6923421    4.1538793 
C    -0.1309328    4.9886366   -2.0226855 
C     1.4362080   -4.7976873   -1.3187581 
C    -5.7191127   -2.3891460   -1.1931756 
C     5.2965059   -1.6233949    1.4822803 
C    -2.6788415    2.9873875   -5.5125524 
H     3.3002775   -0.0729774    1.3154395 
H    -3.0519680    0.3058254   -2.6500316 
H     4.1520780   -2.4086746   -2.2079021 
H    -0.2303021    2.6079771   -4.9550737 
H     2.4223268    3.8174677    1.1116345 
H     2.4985431    2.9760482   -1.1522482 
H     0.5254838   -2.5375380    1.0858741 
H    -2.5731341   -3.6938945   -1.5125312 
H     1.4351234    0.1421904    3.1869161 
H    -1.6639996    2.7074673    0.0196113 
H    -0.7113989   -2.7747788   -3.0579155 
H    -3.7869928    0.2839362   -0.2826445 
H     3.8756092    4.4926092    3.0032946 
H     1.9867059    5.0079088   -2.5009464 
H     1.9959363   -4.5362113    0.7617039 
H    -4.9558639   -4.3346884   -1.7722009 
H     2.9041934    0.8229198    5.0817318 
H    -2.1879413    4.7055638   -1.3892647 
H     0.7119627   -4.7991805   -3.3656969 
H    -6.1749247   -0.3630630   -0.5538592 
H     2.8981526   -3.2736565   -3.9359933 
H     3.8583120   -1.8547264   -4.5101454 
H     2.3493008   -2.3355545   -5.3719226 
H     3.3685866    2.5081493   -4.7727654 
H     1.8447941    3.4598664   -4.6622950 
H     1.9264611    2.0017096   -5.7270623 
H     4.1365736    2.9982532    4.9913777 
H    -0.3572343    5.8671697   -2.6362217 
H     2.0775955   -5.6735015   -1.4629523 
H    -6.7695972   -2.6772982   -1.3032062 
H     5.5562840   -0.5525575    1.5851757 
H     4.4934791   -1.8738403    2.2024126 
H     6.1833475   -2.2376790    1.6940205 
H    -2.1691701    3.8964499   -5.1388313 
H    -2.1047678    2.5651323   -6.3594612 
H    -3.6905301    3.2498525   -5.8535437 
