111
Energy =
C     3.0199020   -1.7547670    1.7202226 
C     2.3723728   -1.1122168    2.8199282 
C     1.1783062   -1.6200434    3.3788729 
H     2.7319835   -0.1265243    3.1424984 
Pd    0.9420085   -1.1671002    1.1500031 
P    -1.1718095   -0.1185686    1.2004507 
P     1.1087530   -1.0237796   -1.1727838 
H     2.9468006   -2.8500763    1.6518477 
H     0.9606139   -2.6872118    3.2149593 
C     6.3247404    0.0261875   -0.3933262 
C     5.3598701    0.8452079    0.2160216 
C     4.2927040    0.2711619    0.9139721 
C     4.1612840   -1.1339850    1.0179618 
C     5.1425042   -1.9417185    0.4037673 
C     6.2125308   -1.3681262   -0.2935962 
H     7.1558892    0.4738128   -0.9477682 
H     5.4213035    1.9348460    0.1259882 
H     3.5283183    0.9244581    1.3490124 
H     5.0607544   -3.0311970    0.4732612 
H     6.9569653   -2.0144636   -0.7691946 
C    -1.0500652    0.0970364    6.6306555 
C    -1.1686682   -1.2645879    6.3168566 
C    -0.4465376   -1.8037609    5.2465194 
C     0.4200067   -0.9966078    4.4755788 
C     0.5273078    0.3751928    4.8026333 
C    -0.2020198    0.9150631    5.8656744 
H    -1.6184793    0.5217881    7.4645099 
H    -1.8315567   -1.9089556    6.9027715 
H    -0.5481656   -2.8664411    5.0026509 
H     1.1768430    1.0311417    4.2168106 
H    -0.1089514    1.9807622    6.0991891 
O    -1.8460537    3.1804759   -1.6606835 
O    -1.8520720    0.9378429   -3.7898715 
O     2.9594082    3.7395191   -1.0983875 
O    -5.1872664   -1.8075888   -1.5444140 
C    -0.4383494    1.3115236   -1.5042924 
C    -1.6807895    0.4851035   -1.4998020 
C     0.8702943    0.7785446   -1.4257110 
C    -2.1922761   -0.1428915   -0.3368685 
C    -0.5708760    2.7250193   -1.5524858 
C    -2.4109208    0.3405988   -2.7050055 
C     1.9900890    1.6172741   -1.2910613 
C    -3.3800602   -0.8862023   -0.3776889 
C     0.5441265    3.5755195   -1.4500995 
C    -3.5962684   -0.4131168   -2.7633104 
C     1.8227659    3.0124599   -1.2836952 
C    -4.0728065   -1.0317181   -1.5942798 
C    -0.1167692   -1.9352055   -2.2032868 
C     2.6531612   -1.5641341   -2.0135714 
C    -2.2793463   -0.8049316    2.4931015 
C    -0.9509903    1.6731777    1.5429396 
C    -0.9905707   -2.8680020   -1.6172563 
C     3.0186032   -2.9076339   -1.7829736 
C    -2.9690082   -0.0183388    3.4330002 
C    -2.0456950    2.5604823    1.4771453 
C    -0.0995517   -1.7748524   -3.6049216 
C     3.3815686   -0.8014035   -2.9455608 
C    -2.4353638   -2.2084357    2.5166932 
C     0.3320231    2.1741507    1.8350936 
C    -1.8582073   -3.6215734   -2.4212401 
C     4.0904557   -3.4807025   -2.4755285 
C    -3.8305302   -0.6271188    4.3575322 
C    -1.8564643    3.9226576    1.7452603 
C    -0.9651582   -2.5311381   -4.4027070 
C     4.4706654   -1.3746671   -3.6199210 
C    -3.3107783   -2.8093232    3.4292613 
C     0.5197887    3.5388508    2.0877333 
C    -2.0790706    4.5813313   -1.7736358 
C    -2.5203279    0.8652914   -5.0462357 
C    -1.8461928   -3.4536351   -3.8129139 
C     4.8247749   -2.7112861   -3.3912776 
C    -4.0159706   -2.0164651    4.3481466 
C    -0.5768941    4.4130639    2.0537639 
C     2.8692324    5.1628751   -1.0613647 
C    -5.9317296   -2.0262861   -2.7411966 
H     2.9967953    1.2179909   -1.1593911 
H    -3.7885178   -1.3810866    0.5054235 
H     0.4096691    4.6568336   -1.4555825 
H    -4.1220900   -0.5355134   -3.7096862 
H    -0.9966040   -2.9926252   -0.5286581 
H     2.4491756   -3.5081040   -1.0630316 
H    -2.8269976    1.0655552    3.4575824 
H    -3.0368583    2.1883502    1.1979329 
H     0.5869868   -1.0580689   -4.0667537 
H     3.0976368    0.2321307   -3.1616645 
H    -1.8698601   -2.8298509    1.8115482 
H     1.1856509    1.4871408    1.8295574 
H    -2.5466325   -4.3351495   -1.9571923 
H     4.3590579   -4.5265236   -2.2936349 
H    -4.3556580   -0.0079251    5.0919424 
H    -2.7111839    4.6062670    1.7055746 
H    -0.9460158   -2.4085749   -5.4909587 
H     5.0366713   -0.7712925   -4.3372670 
H    -3.4361044   -3.8970902    3.4287299 
H     1.5244893    3.9192451    2.3001078 
H    -1.7347429    5.1197522   -0.8703856 
H    -3.1681350    4.6960717   -1.8728882 
H    -1.5803314    4.9989964   -2.6685435 
H    -1.8915867    1.4259740   -5.7529008 
H    -3.5228782    1.3306822   -4.9953308 
H    -2.6149313   -0.1823832   -5.3897943 
H    -2.5185509   -4.0471417   -4.4416394 
H     5.6699498   -3.1548062   -3.9277557 
H    -4.6968795   -2.4842129    5.0667596 
H    -0.4349093    5.4797060    2.2581545 
H     2.2147383    5.5024251   -0.2355168 
H     3.8929462    5.5253513   -0.8899945 
H     2.4929880    5.5685862   -2.0197093 
H    -6.3306334   -1.0773600   -3.1479734 
H    -5.3144702   -2.5271717   -3.5116395 
H    -6.7682919   -2.6818173   -2.4597924 
