111
Energy =
C     2.8862928   -1.9340784    1.7288990 
C     2.3080034   -1.1737455    2.7876015 
C     1.0635058   -1.5438658    3.3490797 
H     2.7781458   -0.2263908    3.0836544 
Pd    0.8982085   -1.0919955    1.1104620 
P    -1.2225392   -0.0429272    1.1806434 
P     1.0619797   -0.8197568   -1.2117712 
H     2.6481805   -3.0083219    1.7007138 
H     0.7522218   -2.5919797    3.2177315 
C     6.5915574   -0.8339948   -0.1651213 
C     5.6303140    0.1504750    0.1190654 
C     4.4289763   -0.1993256    0.7424207 
C     4.1563341   -1.5432178    1.0838378 
C     5.1301275   -2.5219328    0.7925236 
C     6.3400646   -2.1689990    0.1818282 
H     7.5299954   -0.5601690   -0.6576645 
H     5.8187707    1.1936522   -0.1561579 
H     3.6692106    0.5666316    0.9391321 
H     4.9342217   -3.5690779    1.0495952 
H     7.0857086   -2.9413281   -0.0335171 
C    -0.9584347    0.4294334    6.5907342 
C    -1.1578654   -0.9363381    6.3425379 
C    -0.5029502   -1.5586924    5.2740414 
C     0.3768142   -0.8325943    4.4403408 
C     0.5742596    0.5414544    4.7079928 
C    -0.0908638    1.1659156    5.7669331 
H    -1.4768378    0.9202468    7.4209096 
H    -1.8330872   -1.5187737    6.9772793 
H    -0.6711571   -2.6228035    5.0789470 
H     1.2435554    1.1324028    4.0774441 
H     0.0674591    2.2336662    5.9506133 
O    -2.1015514    3.2516482   -1.6682192 
O    -2.0197731    1.0260992   -3.7873485 
O     2.5335436    4.1896092   -1.0578860 
O    -5.1797006   -1.9155286   -1.5355954 
C    -0.6059721    1.4476259   -1.5019295 
C    -1.8027322    0.5595482   -1.5049486 
C     0.7158666    0.9766973   -1.3991176 
C    -2.2625650   -0.1086789   -0.3438523 
C    -0.8082065    2.8601137   -1.5449402 
C    -2.5364374    0.3902483   -2.7039364 
C     1.8046637    1.8645367   -1.2314877 
C    -3.4095258   -0.9135260   -0.3792291 
C     0.2640146    3.7483213   -1.4236740 
C    -3.6807584   -0.4248545   -2.7570674 
C     1.5681258    3.2475872   -1.2351580 
C    -4.1088237   -1.0809741   -1.5896103 
C    -0.1199695   -1.7819963   -2.2482951 
C     2.6241278   -1.1370421   -2.1298230 
C    -2.2979321   -0.7671192    2.4815497 
C    -1.0576919    1.7512482    1.5271199 
C    -0.9350779   -2.7656051   -1.6591460 
C     3.2714594   -2.3633054   -1.8839266 
C    -3.0087783   -0.0007406    3.4222105 
C    -2.1845193    2.5988863    1.4786983 
C    -0.1384539   -1.6059590   -3.6479720 
C     3.1074336   -0.2926768   -3.1518397 
C    -2.4095215   -2.1747678    2.5084658 
C     0.2100183    2.2947404    1.8099076 
C    -1.7773278   -3.5544212   -2.4559047 
C     4.3949010   -2.7334857   -2.6327824 
C    -3.8457920   -0.6344079    4.3527113 
C    -2.0411175    3.9648217    1.7544717 
C    -0.9784792   -2.3975164   -4.4390802 
C     4.2370941   -0.6651566   -3.8932656 
C    -3.2580324   -2.8013493    3.4293587 
C     0.3511206    3.6640560    2.0680061 
C    -2.3932842    4.6438087   -1.7702226 
C    -2.7010243    0.9397781   -5.0361193 
C    -1.7992806   -3.3714058   -3.8455055 
C     4.8848337   -1.8817867   -3.6333276 
C    -3.9837336   -2.0292219    4.3502859 
C    -0.7762489    4.4983538    2.0512707 
C     3.8761031    3.7604187   -0.8457723 
C    -5.9272474   -2.1594089   -2.7257068 
H     2.8131227    1.4677670   -1.1038144 
H    -3.7819999   -1.4385438    0.5022183 
H     0.1292106    4.8309457   -1.4235579 
H    -4.2110283   -0.5649232   -3.6985257 
H    -0.9147270   -2.9034458   -0.5720509 
H     2.8894321   -3.0303076   -1.1037851 
H    -2.9001427    1.0869982    3.4452074 
H    -3.1643512    2.1936012    1.2056908 
H     0.4987383   -0.8493202   -4.1156101 
H     2.6001304    0.6503104   -3.3765850 
H    -1.8315258   -2.7799542    1.7991177 
H     1.0881522    1.6390824    1.7905315 
H    -2.4189644   -4.3078059   -1.9878059 
H     4.8943808   -3.6852583   -2.4266925 
H    -4.3876840   -0.0300648    5.0872673 
H    -2.9197806    4.6179683    1.7273268 
H    -0.9860712   -2.2610373   -5.5257929 
H     4.6068229   -0.0031147   -4.6834515 
H    -3.3482985   -3.8926074    3.4321467 
H     1.3432759    4.0829346    2.2644516 
H    -2.0789681    5.1855648   -0.8585618 
H    -3.4850845    4.7131899   -1.8805458 
H    -1.9010900    5.0901481   -2.6544818 
H    -3.7241535    1.3546828   -4.9644378 
H    -2.7489755   -0.1060653   -5.3945800 
H    -2.1102730    1.5412858   -5.7419310 
H    -2.4507219   -3.9926540   -4.4694255 
H     5.7678188   -2.1684942   -4.2137935 
H    -4.6443313   -2.5170725    5.0744535 
H    -0.6683260    5.5686493    2.2561009 
H     3.9636959    3.1609710    0.0815326 
H     4.2529388    3.1661768   -1.7001656 
H     4.4743505    4.6772685   -0.7451882 
H    -6.3803950   -1.2281525   -3.1160079 
H    -5.2945079   -2.6184165   -3.5095586 
H    -6.7245887   -2.8610883   -2.4417918 
