111
Energy =
C     3.0027960   -1.4665179    1.7962758 
C     2.0362179   -2.1628324    2.5795506 
C     1.2010259   -3.1522119    2.0141350 
H     1.8198224   -1.8135035    3.5974131 
Pd    0.9725922   -1.1610817    0.9134167 
P    -1.3122397   -1.0425552    0.3981256 
P     1.5652734    0.5407343   -0.5849863 
H     3.4653827   -2.0120735    0.9621101 
H     1.5065131   -3.5856539    1.0480057 
C     5.3003623    1.9011420    3.1836776 
C     4.0675247    1.6027806    3.7888431 
C     3.3140798    0.5104427    3.3505047 
C     3.7756941   -0.3124921    2.2956774 
C     5.0176919   -0.0017359    1.6998939 
C     5.7718806    1.0930376    2.1397167 
H     5.8876690    2.7592791    3.5263187 
H     3.6906888    2.2308083    4.6029911 
H     2.3460525    0.3044851    3.8212430 
H     5.3898546   -0.6260116    0.8806121 
H     6.7309696    1.3155134    1.6605821 
C    -1.7581730   -5.4441955    4.1223550 
C    -1.7801657   -5.3675785    2.7205039 
C    -0.8105150   -4.6227124    2.0438694 
C     0.1918988   -3.9242095    2.7554399 
C     0.2042694   -4.0129489    4.1664891 
C    -0.7591299   -4.7703445    4.8413087 
H    -2.5141287   -6.0329600    4.6519247 
H    -2.5596185   -5.8873148    2.1545696 
H    -0.8375771   -4.5546836    0.9501625 
H     0.9915761   -3.5126904    4.7397330 
H    -0.7267590   -4.8408265    5.9335344 
O    -2.8619805    1.2099831   -3.1263840 
O    -1.3466599    3.5476012   -1.9749695 
O     0.8812754   -0.7725713   -5.5259510 
O    -3.0553707    3.2753441    2.5749407 
C    -0.7933928    0.9013511   -2.0668068 
C    -1.4156721    1.4925564   -0.8469302 
C     0.5579853    0.4832550   -2.1303845 
C    -1.7690050    0.7450498    0.3032960 
C    -1.5758006    0.7851505   -3.2433925 
C    -1.6903581    2.8846864   -0.8391314 
C     1.0946373   -0.0613010   -3.3061659 
C    -2.3281331    1.3675831    1.4291508 
C    -1.0550292    0.2295267   -4.4248766 
C    -2.2434016    3.5219997    0.2848027 
C     0.2823244   -0.2041221   -4.4464896 
C    -2.5458578    2.7578896    1.4259890 
C     3.3012099    0.3320582   -1.1571089 
C     1.4143235    2.2560160    0.0335190 
C    -1.8749938   -1.7982451   -1.1728637 
C    -2.3975965   -1.7296094    1.7130872 
C     4.2365298    1.3828179   -1.1798086 
C     1.1435674    2.4709525    1.3979015 
C    -1.0159551   -2.6858519   -1.8496575 
C    -1.9861426   -1.5523788    3.0517132 
C     3.7096939   -0.9623953   -1.5506441 
C     1.5642561    3.3568574   -0.8362544 
C    -3.1538170   -1.5225336   -1.7024409 
C    -3.5976559   -2.4180164    1.4487370 
C     5.5505970    1.1463871   -1.6126562 
C     1.0342105    3.7759821    1.8948188 
C    -1.4316786   -3.3003118   -3.0389839 
C    -2.7791320   -2.0198420    4.1057056 
C     5.0197392   -1.1927378   -1.9878273 
C     1.4677615    4.6592013   -0.3301701 
C    -3.5703008   -2.1532435   -2.8812915 
C    -4.3842701   -2.8919171    2.5075111 
C    -3.6986676    1.2213308   -4.2790137 
C    -1.6521569    4.9338276   -2.0909124 
C     5.9439737   -0.1350888   -2.0213037 
C     1.2029325    4.8700332    1.0332035 
C    -2.7115737   -3.0404372   -3.5505820 
C    -3.9818566   -2.6891467    3.8349992 
C     0.1240821   -0.9557958   -6.7204027 
C    -3.2966105    4.6785122    2.6536458 
H     2.1359651   -0.3789056   -3.3808932 
H    -2.6094101    0.8077686    2.3235563 
H    -1.6877206    0.1224403   -5.3055350 
H    -2.4144136    4.5980153    0.2755477 
H     3.9511597    2.3830614   -0.8428760 
H     1.0031343    1.6105675    2.0596999 
H    -0.0135709   -2.8762470   -1.4484084 
H    -1.0326240   -1.0530059    3.2630561 
H     2.9940762   -1.7931839   -1.5136372 
H     1.7351382    3.1926225   -1.9051685 
H    -3.8061131   -0.7954966   -1.2085155 
H    -3.9178181   -2.5980927    0.4190295 
H     6.2710337    1.9708339   -1.6202144 
H     0.8142601    3.9367416    2.9551979 
H    -0.7541770   -3.9788625   -3.5672812 
H    -2.4476917   -1.8790282    5.1390556 
H     5.3215486   -2.1984939   -2.2979409 
H     1.5953095    5.5134893   -1.0035013 
H    -4.5681532   -1.9472565   -3.2829270 
H    -5.3146747   -3.4271082    2.2909798 
H    -3.8561823    0.1994556   -4.6735185 
H    -3.2748207    1.8631075   -5.0743420 
H    -4.6615895    1.6352670   -3.9464648 
H    -2.7403555    5.1125906   -2.0008520 
H    -1.3122310    5.2325703   -3.0931006 
H    -1.1138593    5.5293115   -1.3292669 
H     6.9702375   -0.3144292   -2.3578306 
H     1.1255969    5.8908250    1.4227354 
H    -3.0403857   -3.5270533   -4.4750151 
H    -4.5972812   -3.0643168    4.6590698 
H    -0.7468049   -1.6169842   -6.5468031 
H    -0.2239148    0.0115652   -7.1307149 
H     0.8063140   -1.4314936   -7.4394576 
H    -2.3618046    5.2553531    2.5149903 
H    -4.0438925    5.0029207    1.9043075 
H    -3.6918446    4.8599554    3.6634242 
