111
Energy =
C     3.0471459   -1.7343138    1.6910671 
C     2.4035023   -1.1006659    2.7982444 
C     1.2176298   -1.6193565    3.3646351 
H     2.7580766   -0.1133444    3.1214321 
Pd    0.9607800   -1.1610759    1.1392890 
P    -1.1613754   -0.1305546    1.2086340 
P     1.1089184   -1.0098652   -1.1842195 
H     2.9821546   -2.8299397    1.6194354 
H     1.0067061   -2.6876344    3.1991537 
C     6.3218372    0.0795213   -0.4413781 
C     5.3553444    0.8889229    0.1781434 
C     4.2978598    0.3042238    0.8819757 
C     4.1781969   -1.1022431    0.9821420 
C     5.1609563   -1.9002267    0.3577686 
C     6.2211466   -1.3159554   -0.3457151 
H     7.1451692    0.5354746   -1.0006818 
H     5.4078438    1.9793202    0.0916906 
H     3.5317272    0.9500287    1.3250720 
H     5.0882453   -2.9905327    0.4242191 
H     6.9669576   -1.9548577   -0.8291403 
C    -0.9977251    0.0718957    6.6388193 
C    -1.1076701   -1.2899671    6.3229222 
C    -0.3899313   -1.8208319    5.2454869 
C     0.4634031   -1.0048231    4.4691925 
C     0.5620360    0.3671040    4.7984228 
C    -0.1628376    0.8985928    5.8687048 
H    -1.5627700    0.4901050    7.4782527 
H    -1.7604658   -1.9410454    6.9127473 
H    -0.4847354   -2.8837948    5.0001090 
H     1.2012193    1.0296742    4.2086698 
H    -0.0766939    1.9645315    6.1037879 
O    -1.8882755    3.1678662   -1.6399727 
O    -1.8891246    0.9285784   -3.7744605 
O     2.9153841    3.7703920   -1.1082456 
O    -5.1829097   -1.8498287   -1.5084186 
C    -0.4620653    1.3117849   -1.4984248 
C    -1.6966650    0.4738014   -1.4865211 
C     0.8519786    0.7908828   -1.4300894 
C    -2.1936700   -0.1606068   -0.3207848 
C    -0.6081730    2.7241060   -1.5416419 
C    -2.4344065    0.3245104   -2.6864909 
C     1.9647418    1.6396983   -1.3004002 
C    -3.3750167   -0.9144786   -0.3539359 
C     0.4994483    3.5847423   -1.4441724 
C    -3.6132837   -0.4398543   -2.7371799 
C     1.7843835    3.0332149   -1.2879377 
C    -4.0756389   -1.0642202   -1.5655085 
C    -0.1160770   -1.9301123   -2.2074340 
C     2.6515984   -1.5337962   -2.0384788 
C    -2.2526521   -0.8296309    2.5083299 
C    -0.9537774    1.6622230    1.5538187 
C    -0.9777965   -2.8712033   -1.6167572 
C     3.0285707   -2.8757619   -1.8174407 
C    -2.9412399   -0.0513064    3.4558705 
C     0.3267570    2.1737624    1.8384128 
C    -0.1100400   -1.7675420   -3.6089081 
C     3.3682291   -0.7607300   -2.9710102 
C    -2.3964287   -2.2344794    2.5296630 
C    -2.0567895    2.5399118    1.4983605 
C    -1.8442909   -3.6312471   -2.4158410 
C     4.1000556   -3.4371224   -2.5200398 
C    -3.7898310   -0.6697396    4.3859498 
C     0.5040786    3.5393153    2.0940779 
C    -0.9748246   -2.5299320   -4.4017845 
C     4.4571628   -1.3222487   -3.6554742 
C    -3.2588970   -2.8451305    3.4480628 
C    -1.8778579    3.9028880    1.7694355 
C    -2.1351680    4.5668118   -1.7470468 
C    -2.5657328    0.8513707   -5.0260859 
C    -1.8434543   -3.4611486   -3.8073187 
C     4.8226541   -2.6573795   -3.4364000 
C    -3.9631319   -2.0606391    4.3748306 
C    -0.6005901    4.4037599    2.0706240 
C     2.8121962    5.1927457   -1.0669393 
C    -5.9343573   -2.0733845   -2.6999281 
H     2.9759851    1.2495902   -1.1762090 
H    -3.7721542   -1.4147308    0.5313148 
H     0.3548283    4.6647538   -1.4453648 
H    -4.1449444   -0.5657110   -3.6798358 
H    -0.9753061   -2.9973478   -0.5283260 
H     2.4683338   -3.4843861   -1.0971221 
H    -2.8082844    1.0337108    3.4820151 
H     1.1864552    1.4944870    1.8247114 
H     0.5672245   -1.0443555   -4.0744415 
H     3.0750877    0.2716741   -3.1800090 
H    -1.8315127   -2.8492986    1.8182896 
H    -3.0465993    2.1596982    1.2253013 
H    -2.5232090   -4.3514692   -1.9480680 
H     4.3774938   -4.4819040   -2.3456038 
H    -4.3144699   -0.0568399    5.1259670 
H     1.5067893    3.9280008    2.3007647 
H    -0.9647183   -2.4052030   -5.4899126 
H     5.0139015   -0.7108528   -4.3732815 
H    -3.3749570   -3.9339258    3.4457373 
H    -2.7389066    4.5789406    1.7378793 
H    -3.2258710    4.6715990   -1.8390804 
H    -1.6460568    4.9919234   -2.6437698 
H    -1.7901893    5.1056643   -0.8443019 
H    -1.9471810    1.4185029   -5.7365875 
H    -3.5720528    1.3076254   -4.9674205 
H    -2.6533125   -0.1967469   -5.3701413 
H    -2.5147223   -4.0598221   -4.4322989 
H     5.6675826   -3.0917064   -3.9807363 
H    -4.6336454   -2.5360353    5.0981836 
H    -0.4666984    5.4709972    2.2773736 
H     2.4257450    5.5973162   -2.0216914 
H     2.1601360    5.5241007   -0.2358558 
H     3.8336158    5.5643316   -0.9014812 
H    -6.3441328   -1.1273681   -3.1026399 
H    -5.3186509   -2.5682439   -3.4754895 
H    -6.7633288   -2.7361785   -2.4131159 
