111
Energy =
C     2.9826280   -1.4057687    1.6972349 
C     2.0483476   -2.1735475    2.4518516 
C     1.2570256   -3.1755589    1.8463923 
H     1.8189178   -1.8753740    3.4830164 
Pd    0.9375014   -1.1535369    0.8289715 
P    -1.3488044   -1.1236813    0.3077453 
P     1.4450885    0.6424130   -0.5894602 
H     3.4648254   -1.8975889    0.8410659 
H     1.5813529   -3.5554984    0.8640210 
C     5.1456709    1.9941696    3.2164629 
C     3.9274690    1.6220412    3.8101650 
C     3.2175649    0.5186315    3.3289501 
C     3.7090637   -0.2419148    2.2414029 
C     4.9360538    0.1426858    1.6575383 
C     5.6466587    1.2484104    2.1403255 
H     5.6988744    2.8606659    3.5930790 
H     3.5277973    2.2008557    4.6494846 
H     2.2600520    0.2549024    3.7922693 
H     5.3315198   -0.4328083    0.8137383 
H     6.5948380    1.5285245    1.6697764 
C    -1.5881002   -5.6903750    3.8548312 
C    -1.6094263   -5.5636461    2.4566317 
C    -0.6774556   -4.7453120    1.8127375 
C     0.2854196   -4.0228297    2.5545116 
C     0.2971564   -4.1619125    3.9615554 
C    -0.6278652   -4.9924042    4.6031511 
H    -2.3142292   -6.3364778    4.3586384 
H    -2.3589073   -6.1019485    1.8680656 
H    -0.7042284   -4.6388539    0.7221089 
H     1.0550302   -3.6426410    4.5570997 
H    -0.5955365   -5.1011797    5.6922160 
O    -2.9987254    1.2283503   -3.1188544 
O    -1.5918833    3.5676526   -1.8451156 
O     0.6837354   -0.3432167   -5.7101177 
O    -3.2988731    2.9993371    2.6778450 
C    -0.9172820    0.9642873   -2.0639799 
C    -1.5703255    1.4600442   -0.8175931 
C     0.4485346    0.6241984   -2.1431644 
C    -1.8891061    0.6431033    0.2946702 
C    -1.6926090    0.8805723   -3.2560088 
C    -1.9090769    2.8362843   -0.7443435 
C     1.0293416    0.1852252   -3.3512191 
C    -2.4793790    1.1848790    1.4460559 
C    -1.1322878    0.4358130   -4.4572076 
C    -2.4941402    3.3929775    0.4057793 
C     0.2301037    0.0826945   -4.5021019 
C    -2.7629650    2.5619834    1.5079112 
C     3.1883464    0.5347643   -1.1710736 
C     1.2211600    2.3169456    0.1131854 
C    -1.8634157   -1.8258035   -1.3025210 
C    -2.4069975   -1.9251293    1.5788747 
C     4.0769856    1.6251063   -1.1559964 
C     1.3198225    3.4648542   -0.7013643 
C    -3.1497086   -1.5820057   -1.8291951 
C    -2.0186060   -1.7870204    2.9289814 
C     3.6491801   -0.7224897   -1.6237131 
C     0.9393864    2.4520094    1.4855775 
C    -0.9589168   -2.6365519   -2.0158660 
C    -3.5654000   -2.6641287    1.2691446 
C     5.3956733    1.4655225   -1.6100552 
C     1.1629779    4.7350060   -0.1325213 
C    -3.5264957   -2.1663064   -3.0447663 
C    -2.7963506   -2.3422305    3.9512829 
C     4.9632303   -0.8762637   -2.0825163 
C     0.7693919    3.7247012    2.0453254 
C    -1.3360432   -3.2036873   -3.2406056 
C    -4.3361424   -3.2260205    2.2960819 
C    -3.8285232    1.2567626   -4.2777295 
C    -1.9681283    4.9402450   -1.9017190 
C     5.8401858    0.2216751   -2.0783610 
C     0.8881377    4.8662752    1.2388148 
C    -2.6217461   -2.9740136   -3.7522404 
C    -3.9589997   -3.0611746    3.6361814 
C     2.0541907   -0.7179308   -5.8348032 
C    -3.6087614    4.3839230    2.8212756 
H     2.0916403   -0.0537584   -3.3931665 
H    -2.7364462    0.5706726    2.3114911 
H    -1.7148473    0.3407415   -5.3747958 
H    -2.7153251    4.4591197    0.4464170 
H     3.7515260    2.5963328   -0.7734054 
H     1.4963600    3.3613705   -1.7769441 
H    -3.8394739   -0.9142192   -1.3035580 
H    -1.0950460   -1.2482782    3.1742094 
H     2.9704462   -1.5846202   -1.6144805 
H     0.8367449    1.5546728    2.1038289 
H     0.0476009   -2.8024507   -1.6136862 
H    -3.8650418   -2.8139018    0.2284463 
H     6.0797944    2.3200762   -1.5870531 
H     1.2502511    5.6261592   -0.7631338 
H    -4.5288688   -1.9837984   -3.4462506 
H    -2.4834903   -2.2304350    4.9939159 
H     5.3064599   -1.8543100   -2.4357522 
H     0.5401948    3.8229849    3.1113560 
H    -0.6249139   -3.8216787   -3.7982220 
H    -5.2340687   -3.7999512    2.0444847 
H    -4.8165529    1.5923322   -3.9308783 
H    -3.9189378    0.2520854   -4.7319996 
H    -3.4373210    1.9667240   -5.0302705 
H    -3.0642388    5.0584375   -1.8090453 
H    -1.6416636    5.2995741   -2.8883331 
H    -1.4630031    5.5283874   -1.1121115 
H     6.8700626    0.1022475   -2.4301912 
H     0.7629236    5.8620202    1.6775171 
H    -2.9176494   -3.4201470   -4.7073691 
H    -4.5621378   -3.5043785    4.4351487 
H     2.3035507   -1.5620648   -5.1629185 
H     2.1869137   -1.0300766   -6.8805292 
H     2.7276392    0.1326268   -5.6158959 
H    -2.7030142    5.0116204    2.7139957 
H    -4.3693789    4.7062188    2.0846530 
H    -4.0144869    4.4980025    3.8367147 
