111
Energy =
C     3.0322620   -1.7218613    1.6342935 
C     2.3711648   -1.0946323    2.7349968 
C     1.1797074   -1.6211424    3.2821950 
H     2.7169544   -0.1069735    3.0664789 
Pd    0.9518111   -1.1533486    1.0564839 
P    -1.1712696   -0.1236721    1.0983470 
P     1.1269197   -0.9924923   -1.2648855 
H     2.9720969   -2.8174661    1.5580710 
H     0.9773020   -2.6899325    3.1093479 
C     6.3252886    0.1096730   -0.4538857 
C     5.3505403    0.9140078    0.1592965 
C     4.2869592    0.3236487    0.8490200 
C     4.1695712   -1.0835652    0.9413512 
C     5.1606654   -1.8764271    0.3235971 
C     6.2267586   -1.2864707   -0.3660430 
H     7.1533851    0.5701452   -1.0023300 
H     5.4015708    2.0049047    0.0786444 
H     3.5145638    0.9657660    1.2865776 
H     5.0898014   -2.9671843    0.3841382 
H     6.9788059   -1.9213931   -0.8450010 
C    -1.1078072    0.0452324    6.5197208 
C    -1.2065535   -1.3153091    6.1943036 
C    -0.4638406   -1.8380981    5.1299229 
C     0.4032892   -1.0153272    4.3761889 
C     0.4910328    0.3548616    4.7154101 
C    -0.2586367    0.8783784    5.7725328 
H    -1.6916288    0.4571203    7.3493775 
H    -1.8694791   -1.9716413    6.7667969 
H    -0.5493369   -2.9001998    4.8773405 
H     1.1413995    1.0224279    4.1438595 
H    -0.1805816    1.9432025    6.0153130 
O    -1.8706729    3.1834428   -1.7350241 
O    -1.8558821    0.9676509   -3.8823761 
O     2.9264030    3.7889821   -1.1522802 
O    -5.2269921   -1.7235135   -1.8454810 
C    -0.4442989    1.3283987   -1.5884253 
C    -1.6818019    0.4939730   -1.5931500 
C     0.8693608    0.8085815   -1.5062089 
C    -2.1903864   -0.1406545   -0.4402118 
C    -0.5911533    2.7409572   -1.6269173 
C    -2.4168876    0.3619573   -2.8045717 
C     1.9795784    1.6581804   -1.3611896 
C    -3.3871889   -0.8843178   -0.4779732 
C     0.5143901    3.6023861   -1.5144832 
C    -3.5994594   -0.3824440   -2.8581248 
C     1.7981022    3.0515696   -1.3464126 
C    -4.0824264   -1.0076069   -1.6927385 
C    -0.0894396   -1.9055526   -2.3019055 
C     2.6793968   -1.5102182   -2.1042624 
C    -2.2820425   -0.8366210    2.3758342 
C    -0.9707368    1.6663744    1.4614927 
C    -0.9544402   -2.8518293   -1.7241659 
C     3.0597277   -2.8507580   -1.8807818 
C    -2.9994858   -0.0690153    3.3104609 
C     0.3056864    2.1769077    1.7657118 
C    -0.0784987   -1.7273774   -3.7011599 
C     3.4013303   -0.7332939   -3.0295654 
C    -2.4180129   -2.2426428    2.3851222 
C    -2.0731338    2.5441041    1.3951238 
C    -1.8204938   -3.5995702   -2.5344005 
C     4.1403520   -3.4069221   -2.5734922 
C    -3.8680576   -0.6983991    4.2147910 
C     0.4789224    3.5412062    2.0306593 
C    -0.9435648   -2.4781533   -4.5048736 
C     4.4989421   -1.2896641   -3.7041999 
C    -3.3005056   -2.8646262    3.2768732 
C    -1.8985546    3.9056902    1.6757327 
C    -2.1188288    4.5819722   -1.8459134 
C    -2.5302334    0.9024845   -5.1372995 
C    -1.8171736   -3.4124743   -3.9237764 
C     4.8681974   -2.6233522   -3.4823693 
C    -4.0333422   -2.0902161    4.1902706 
C    -0.6256850    4.4053806    1.9967748 
C     2.8219114    5.2112587   -1.1091837 
C    -5.7621627   -2.4093604   -0.7150423 
H     2.9897775    1.2683167   -1.2277900 
H    -3.7616456   -1.3624812    0.4271285 
H     0.3684517    4.6822257   -1.5136916 
H    -4.1637459   -0.5191585   -3.7817693 
H    -0.9546347   -2.9896633   -0.6369843 
H     2.4949633   -3.4624023   -1.1665870 
H    -2.8736698    1.0166088    3.3466252 
H     1.1658289    1.4981459    1.7595824 
H     0.6007355   -0.9995283   -4.1564742 
H     3.1056621    0.2980105   -3.2405128 
H    -1.8294095   -2.8490278    1.6857598 
H    -3.0584258    2.1656285    1.1039965 
H    -2.5011510   -4.3262153   -2.0788002 
H     4.4207451   -4.4505926   -2.3971551 
H    -4.4143287   -0.0934852    4.9456886 
H     1.4786455    3.9293146    2.2523088 
H    -0.9318093   -2.3396927   -5.5912374 
H     5.0594542   -0.6756175   -4.4167777 
H    -3.4072187   -3.9545021    3.2672138 
H    -2.7591839    4.5817696    1.6350687 
H    -3.2085993    4.6845867   -1.9502115 
H    -1.6205422    5.0069554   -2.7375312 
H    -1.7846426    5.1219526   -0.9397520 
H    -1.9034349    1.4653762   -5.8439154 
H    -3.5318992    1.3679975   -5.0777204 
H    -2.6294081   -0.1437193   -5.4830537 
H    -2.4924620   -3.9979937   -4.5561503 
H     5.7200057   -3.0536777   -4.0190953 
H    -4.7180072   -2.5742026    4.8944823 
H    -0.4949319    5.4716570    2.2102827 
H     2.4450240    5.6174420   -2.0670329 
H     2.1611413    5.5404779   -0.2841351 
H     3.8413448    5.5830881   -0.9324912 
H    -5.0458058   -3.1565042   -0.3218030 
H    -6.0337989   -1.7050306    0.0941755 
H    -6.6664995   -2.9211651   -1.0739888 
