111
Energy =
C     2.9834272   -1.5211806    1.7060128 
C     1.9990367   -2.2123639    2.4716804 
C     1.1339898   -3.1600547    1.8803418 
H     1.7948808   -1.8860764    3.4997145 
Pd    0.9616589   -1.1337834    0.8376921 
P    -1.3192690   -0.9346055    0.3275726 
P     1.5975035    0.5991676   -0.6069801 
H     3.4299376   -2.0555968    0.8560311 
H     1.4252814   -3.5758943    0.9022154 
C     5.3726529    1.7418054    3.1855785 
C     4.1290710    1.4645749    3.7787092 
C     3.3461680    0.4060803    3.3102031 
C     3.7880001   -0.4031671    2.2365438 
C     5.0406340   -0.1135481    1.6526406 
C     5.8246253    0.9471306    2.1228795 
H     5.9831956    2.5735351    3.5518470 
H     3.7672110    2.0831062    4.6067702 
H     2.3702594    0.2167126    3.7715751 
H     5.3972419   -0.7265636    0.8181008 
H     6.7914308    1.1540086    1.6524138 
C    -1.8983743   -5.4094484    3.9308479 
C    -1.9198181   -5.2925372    2.5317512 
C    -0.9253538   -4.5637185    1.8737911 
C     0.1019526   -3.9208799    2.6020274 
C     0.1141045   -4.0508117    4.0098114 
C    -0.8744250   -4.7925204    4.6656709 
H    -2.6737135   -5.9860227    4.4456107 
H    -2.7179986   -5.7683431    1.9533574 
H    -0.9517644   -4.4642075    0.7825027 
H     0.9200742   -3.5957057    4.5946972 
H    -0.8418729   -4.8961179    5.7552639 
O    -2.8113626    1.4442439   -3.1292387 
O    -1.2502547    3.7166358   -1.9190529 
O     0.8865181   -0.5563545   -5.5830084 
O    -3.0433234    3.5268142    2.4965711 
C    -0.7515677    1.0585453   -2.0785524 
C    -1.3662428    1.6306325   -0.8453817 
C     0.5889270    0.6084289   -2.1527135 
C    -1.7425994    0.8627800    0.2760749 
C    -1.5353311    0.9935054   -3.2583376 
C    -1.6194869    3.0330340   -0.8048605 
C     1.1132333    0.0848051   -3.3434330 
C    -2.3142654    1.4603008    1.4189309 
C    -1.0270540    0.4592878   -4.4549829 
C    -2.1793180    3.6379672    0.3243885 
C     0.2995047   -0.0054450   -4.4881991 
C    -2.5180700    2.8500725    1.4414690 
C     3.3288008    0.3700199   -1.1845025 
C     1.4787480    2.2972474    0.0603876 
C    -1.9046338   -1.6427047   -1.2571332 
C    -2.4195998   -1.6192900    1.6334453 
C     4.2859903    1.4010647   -1.1727320 
C     1.6508963    3.4182025   -0.7787487 
C    -3.1728458   -1.3156159   -1.7828340 
C    -1.9916298   -1.4931617    2.9728344 
C     3.7102103   -0.9193708   -1.6196425 
C     1.2048633    2.4796101    1.4290492 
C    -1.0718107   -2.5415171   -1.9518092 
C    -3.6513857   -2.2458780    1.3626211 
C     5.5951015    1.1511734   -1.6128721 
C     1.5725629    4.7077958   -0.2381036 
C    -3.6059561   -1.9069874   -2.9759876 
C    -2.7971897   -1.9505066    4.0220481 
C     5.0152559   -1.1626937   -2.0646807 
C     1.1115755    3.7721732    1.9595892 
C    -1.5039375   -3.1169866   -3.1547298 
C    -4.4513327   -2.7099282    2.4160605 
C    -3.6443193    1.5177119   -4.2824598 
C    -1.5302160    5.1122741   -1.9944922 
C     5.9615647   -0.1242090   -2.0635013 
C     1.3016276    4.8860920    1.1283669 
C    -2.7738912   -2.8061192   -3.6627609 
C    -4.0310797   -2.5581476    3.7449502 
C     0.1285271   -0.6831580   -6.7843142 
C    -3.4234265    2.7939478    3.6597910 
H     2.1470300   -0.2543998   -3.4271574 
H    -2.6053050    0.8420351    2.2686319 
H    -1.6612324    0.3930634   -5.3385912 
H    -2.3575084    4.7126495    0.3843691 
H     4.0210279    2.3956362   -0.8038063 
H     1.8236800    3.2801483   -1.8510757 
H    -3.8022422   -0.5777982   -1.2754751 
H    -1.0147307   -1.0423817    3.1871661 
H     2.9774656   -1.7358360   -1.6093829 
H     1.0482975    1.6033220    2.0661084 
H    -0.0763053   -2.7709828   -1.5538357 
H    -3.9864863   -2.3849303    0.3312581 
H     6.3327097    1.9600926   -1.5936023 
H     1.7156850    5.5776925   -0.8878073 
H    -4.5952117   -1.6598492   -3.3756512 
H    -2.4508765   -1.8535585    5.0557188 
H     5.2958556   -2.1636973   -2.4082836 
H     0.8849348    3.9103249    3.0216186 
H    -0.8468394   -3.8048552   -3.6965681 
H    -5.4061649   -3.1978476    2.1942727 
H    -3.8299877    0.5143160   -4.7108498 
H    -3.1998940    2.1730007   -5.0550962 
H    -4.5957413    1.9481072   -3.9380137 
H    -0.9936210    5.6715725   -1.2052380 
H    -2.6161173    5.3059206   -1.9113831 
H    -1.1711643    5.4367545   -2.9818827 
H     6.9840074   -0.3139879   -2.4058768 
H     1.2332198    5.8967384    1.5444154 
H    -3.1153494   -3.2616989   -4.5983273 
H    -4.6564209   -2.9270425    4.5644218 
H    -0.7588478   -1.3278042   -6.6335292 
H    -0.1942900    0.3049694   -7.1645280 
H     0.8009287   -1.1527602   -7.5164976 
H    -4.2112007    2.0512431    3.4303233 
H    -2.5551712    2.2755924    4.1109601 
H    -3.8156581    3.5369849    4.3688079 
