111
Energy =
C     2.5058352   -2.5473625    1.3663023 
C     1.7217825   -2.4110621    2.5574992 
C     0.3738978   -2.8365276    2.5718843 
H     2.1087909   -1.8235419    3.3994789 
Pd    0.7421870   -1.2825477    0.9447753 
P    -1.0896424    0.1350561    1.2166040 
P     1.2250672   -0.6089108   -1.2400814 
H     2.3036962   -3.4167798    0.7257941 
H     0.0735888   -3.5468124    1.7847331 
C     6.3400662   -0.7057348    0.6941940 
C     5.9365936   -1.8171064   -0.0596177 
C     4.6953182   -2.4192697    0.1795425 
C     3.8279436   -1.9203467    1.1769755 
C     4.2491404   -0.7980421    1.9307332 
C     5.4904385   -0.2008938    1.6934667 
H     7.3100463   -0.2338048    0.5069774 
H     6.5901763   -2.2191692   -0.8408130 
H     4.3849722   -3.2839346   -0.4167841 
H     3.5893389   -0.3749892    2.6970891 
H     5.7974749    0.6674622    2.2861102 
C    -2.5102006   -2.5784858    5.7434124 
C    -1.2030705   -2.1129398    5.9595637 
C    -0.2503771   -2.1787188    4.9388058 
C    -0.5854568   -2.7214514    3.6773299 
C    -1.9066315   -3.1865723    3.4745680 
C    -2.8604649   -3.1130865    4.4943160 
H    -3.2515358   -2.5257093    6.5474120 
H    -0.9248482   -1.6944432    6.9318082 
H     0.7641746   -1.8176073    5.1304918 
H    -2.1829621   -3.6081682    2.5021443 
H    -3.8768824   -3.4791424    4.3167523 
O    -3.2587810    1.7254879   -2.2166035 
O    -0.5694150    2.9669126   -3.0437421 
O    -2.4008809   -2.5722294   -4.3396845 
O     0.3435438    5.0948742    1.2386431 
C    -1.2224716    0.6135031   -1.8839918 
C    -0.8250823    1.7776516   -1.0392233 
C    -0.3727602   -0.4868955   -2.1592617 
C    -0.7882037    1.7501767    0.3758924 
C    -2.4984984    0.6357364   -2.5022508 
C    -0.5004546    2.9966556   -1.6862546 
C    -0.7914297   -1.5327214   -2.9947050 
C    -0.4091021    2.8818232    1.1124924 
C    -2.9367118   -0.4140529   -3.3289296 
C    -0.1027485    4.1334883   -0.9613420 
C    -2.0778803   -1.5018747   -3.5667200 
C    -0.0471642    4.0653867    0.4417604 
C     2.2206251   -1.8869434   -2.1107575 
C     2.0943033    0.9780680   -1.4983144 
C    -2.7258712   -0.4309303    0.6276002 
C    -1.2475763    0.5594617    2.9965250 
C     3.3937948   -1.5809855   -2.8260174 
C     2.1971289    1.5486228   -2.7846422 
C    -3.8356561    0.4386116    0.5989869 
C    -2.4649010    0.5328093    3.7005572 
C     1.8308858   -3.2390218   -1.9757904 
C     2.6843064    1.6206339   -0.3936323 
C    -2.8617831   -1.7557837    0.1685232 
C    -0.0625120    0.9222588    3.6773950 
C     4.1479568   -2.6074197   -3.4154833 
C     2.8995148    2.7478913   -2.9566335 
C    -5.0743261   -0.0297904    0.1415275 
C    -2.5006893    0.9056907    5.0523890 
C     2.5806106   -4.2589256   -2.5737475 
C     3.3742039    2.8270854   -0.5713176 
C    -4.0986390   -2.2141360   -0.3023426 
C    -0.1080825    1.3142409    5.0205363 
C    -4.5302022    1.8708746   -2.8419138 
C    -0.3359305    4.1647237   -3.7785615 
C     3.7433215   -3.9438419   -3.2967855 
C     3.4852478    3.3886149   -1.8519583 
C    -5.2072154   -1.3533793   -0.3086937 
C    -1.3312170    1.3136360    5.7086813 
C    -3.6840718   -2.6152339   -4.9602583 
C     0.7362140    6.3254673    0.6346227 
H    -0.1484349   -2.3814844   -3.2346244 
H    -0.3818318    2.8861939    2.2034705 
H    -3.9323070   -0.3855155   -3.7708168 
H     0.1736047    5.0482801   -1.4847444 
H     3.7329478   -0.5449622   -2.9115414 
H     1.7154035    1.0637173   -3.6398247 
H    -3.7237810    1.4803402    0.9168155 
H    -3.3845294    0.2159621    3.2002987 
H     0.9371768   -3.4925220   -1.3926091 
H     2.5943786    1.1726314    0.6013376 
H    -1.9846235   -2.4125552    0.1567202 
H     0.8958843    0.9072750    3.1430197 
H     5.0613340   -2.3565907   -3.9647628 
H     2.9898150    3.1854167   -3.9565858 
H    -5.9381867    0.6433171    0.1297851 
H    -3.4519082    0.8760444    5.5935533 
H     2.2623288   -5.3013270   -2.4693259 
H     3.8248168    3.3275395    0.2918310 
H    -4.1954317   -3.2407074   -0.6705839 
H     0.8127182    1.6125161    5.5325557 
H    -5.2156178    1.0513503   -2.5536680 
H    -4.4331714    1.9045837   -3.9435612 
H    -4.9343569    2.8271335   -2.4794064 
H    -1.0572074    4.9545480   -3.4955422 
H    -0.4772335    3.8997017   -4.8363743 
H     0.6961396    4.5344349   -3.6283151 
H     4.3349745   -4.7411021   -3.7582438 
H     4.0311479    4.3277886   -1.9920997 
H    -6.1767662   -1.7125638   -0.6700197 
H    -1.3688621    1.6147441    6.7606723 
H    -4.4955724   -2.6084231   -4.2070178 
H    -3.8234694   -1.7681282   -5.6589178 
H    -3.7153512   -3.5595880   -5.5223252 
H     1.6071262    6.1845913   -0.0342832 
H    -0.0964510    6.7796143    0.0640130 
H     1.0154401    6.9921666    1.4630790 
