111
Energy =
C     2.9733161   -2.0475742    1.3398377 
C     2.3817480   -1.5051761    2.5221800 
C     1.1781293   -2.0216229    3.0521560 
H     2.7934759   -0.5786220    2.9426611 
Pd    0.9134961   -1.3084399    0.8967224 
P    -1.1449636   -0.1746603    1.1199746 
P     1.0302641   -0.9116589   -1.4000271 
H     2.8473060   -3.1239790    1.1523421 
H     0.9101570   -3.0534613    2.7751602 
C     6.3065521   -0.1885275   -0.6581874 
C     6.1301490   -1.5787155   -0.7121294 
C     5.0513371   -2.1790887   -0.0518586 
C     4.1255161   -1.4029723    0.6781534 
C     4.3215714   -0.0024344    0.7286755 
C     5.3975273    0.5985761    0.0679021 
H     7.1441154    0.2813471   -1.1837969 
H     6.8309067   -2.1996868   -1.2791259 
H     4.9192165   -3.2646767   -0.1025125 
H     3.6004438    0.6308172    1.2571448 
H     5.5090778    1.6875083    0.0989805 
C    -0.9222074   -0.5895332    6.5202764 
C    -0.0471974    0.2716559    5.8374855 
C     0.6429952   -0.1755831    4.7073848 
C     0.4681370   -1.4949376    4.2290440 
C    -0.4239805   -2.3456115    4.9200669 
C    -1.1068629   -1.9003280    6.0572116 
H    -1.4593853   -0.2376362    7.4070858 
H     0.0977294    1.2987495    6.1881721 
H     1.3145573    0.5133417    4.1881531 
H    -0.5766371   -3.3683897    4.5599333 
H    -1.7904772   -2.5774231    6.5789354 
O    -1.7303266    3.4495996   -1.3235330 
O    -1.9049565    1.4771350   -3.6924620 
O     3.1089771    3.7237244   -0.8491706 
O    -5.3666331   -1.2295377   -1.8357779 
C    -0.4112299    1.5136987   -1.4229840 
C    -1.6947945    0.7537091   -1.4726292 
C     0.8715605    0.9164170   -1.4425052 
C    -2.2064744    0.0286565   -0.3758009 
C    -0.4763274    2.9281364   -1.3075723 
C    -2.4696907    0.7915215   -2.6656998 
C     2.0334500    1.6831293   -1.2483888 
C    -3.4446060   -0.6408998   -0.4506755 
C     0.6806264    3.7102919   -1.1443304 
C    -3.6939786    0.1219286   -2.7568499 
C     1.9342869    3.0747526   -1.0803923 
C    -4.1792678   -0.5965931   -1.6476179 
C    -0.2669230   -1.6415752   -2.4831831 
C     2.5248594   -1.4212293   -2.3429512 
C    -2.2586895   -0.9594006    2.3520274 
C    -0.8303018    1.5525079    1.6622999 
C    -1.1690229   -2.5937784   -1.9762490 
C     2.8350208   -2.7961879   -2.2724787 
C    -2.9075860   -0.2588867    3.3843259 
C    -1.8810833    2.4914514    1.7282578 
C    -0.2854998   -1.3190343   -3.8562866 
C     3.2613563   -0.5913009   -3.2088569 
C    -2.4724813   -2.3493462    2.2181882 
C     0.4823612    1.9567545    1.9720168 
C    -2.1002617   -3.2036429   -2.8286122 
C     3.8608024   -3.3335774   -3.0572201 
C    -3.7857041   -0.9343988    4.2451187 
C    -1.6189250    3.8035297    2.1441369 
C    -1.2157715   -1.9326052   -4.7025347 
C     4.3045671   -1.1317148   -3.9763834 
C    -3.3644295   -3.0154492    3.0676762 
C     0.7429029    3.2733088    2.3723515 
C    -1.8990580    4.8634010   -1.2767541 
C    -2.6155114    1.5804358   -4.9246419 
C    -2.1256630   -2.8727727   -4.1906632 
C     4.6040913   -2.4990742   -3.9062756 
C    -4.0286662   -2.3051269    4.0802508 
C    -0.3099750    4.1953215    2.4698080 
C     3.0893705    5.1370063   -0.6542582 
C    -5.9084543   -2.0014223   -0.7656143 
H     3.0226200    1.2261898   -1.1934678 
H    -3.8203639   -1.1918402    0.4114611 
H     0.5980197    4.7902396   -1.0250429 
H    -4.2905103    0.1143384   -3.6703205 
H    -1.1463192   -2.8440073   -0.9095227 
H     2.2583903   -3.4483191   -1.6049742 
H    -2.7208254    0.8086777    3.5299727 
H    -2.8949933    2.2008616    1.4345188 
H     0.4222787   -0.5866668   -4.2576062 
H     3.0184219    0.4707638   -3.3016973 
H    -1.9370511   -2.9077490    1.4405835 
H     1.3007355    1.2363030    1.8633666 
H    -2.8088850   -3.9352962   -2.4268883 
H     4.0866610   -4.4034566   -2.9994795 
H    -4.2779944   -0.3828226    5.0525424 
H    -2.4394390    4.5262594    2.2057287 
H    -1.2268423   -1.6824736   -5.7687446 
H     4.8770270   -0.4772925   -4.6419882 
H    -3.5319007   -4.0909835    2.9473351 
H     1.7698656    3.5802255    2.5968722 
H    -1.4028087    5.3539524   -2.1352321 
H    -1.5074732    5.2830443   -0.3307637 
H    -2.9834753    5.0367333   -1.3312134 
H    -2.7831646    0.5832145   -5.3733338 
H    -1.9771665    2.1801969   -5.5893550 
H    -3.5872043    2.0900771   -4.7844266 
H    -2.8517738   -3.3508697   -4.8562021 
H     5.4134216   -2.9156221   -4.5148248 
H    -4.7202638   -2.8246657    4.7515878 
H    -0.1108323    5.2237185    2.7896935 
H     2.7095714    5.6628654   -1.5508091 
H     2.4730031    5.4128300    0.2230812 
H     4.1335157    5.4309745   -0.4752335 
H    -5.2251874   -2.8233864   -0.4765694 
H    -6.1169448   -1.3731155    0.1212069 
H    -6.8500651   -2.4230190   -1.1453607 
