111
Energy =
C     2.9449718   -2.0747734    1.4724285 
C     2.2033052   -1.7226010    2.6417994 
C     0.9898338   -2.3660489    2.9725398 
H     2.5091015   -0.8383981    3.2160542 
Pd    0.8942723   -1.3946588    0.9044572 
P    -1.2484136   -0.4159806    1.0476322 
P     1.2154895   -0.7011578   -1.2991313 
H     2.9101030   -3.1227773    1.1408110 
H     0.8172010   -3.3649203    2.5416247 
C     6.3329047    0.2015378    0.0944578 
C     6.2559123   -1.1774057   -0.1488700 
C     5.1579849   -1.9146137    0.3108487 
C     4.1128461   -1.2896749    1.0247141 
C     4.2087970    0.1010701    1.2677396 
C     5.3041249    0.8387546    0.8076933 
H     7.1866174    0.7793102   -0.2742557 
H     7.0504110   -1.6817923   -0.7079095 
H     5.1045675   -2.9901007    0.1135028 
H     3.3965638    0.6214608    1.7869257 
H     5.3389089    1.9189868    0.9838912 
C    -1.5124173   -1.5181956    6.3649596 
C    -1.5680094   -2.7636582    5.7228265 
C    -0.7564436   -3.0171883    4.6116123 
C     0.1379023   -2.0363971    4.1266557 
C     0.1807944   -0.7843002    4.7830484 
C    -0.6375480   -0.5284125    5.8868799 
H    -2.1501404   -1.3162924    7.2317606 
H    -2.2511496   -3.5390886    6.0832505 
H    -0.8091446   -3.9893658    4.1104589 
H     0.8503287    0.0024013    4.4248040 
H    -0.5932925    0.4493843    6.3776701 
O    -1.8138269    3.4654536   -0.9798963 
O    -1.6081565    1.8003911   -3.5825572 
O     2.9267964    3.9254263    0.0384970 
O    -5.0169734   -1.4345071   -2.3102603 
C    -0.3685524    1.6292481   -1.1755898 
C    -1.5849144    0.8132325   -1.4602624 
C     0.9461419    1.1070548   -1.1330920 
C    -2.1589012   -0.0803977   -0.5219941 
C    -0.5365720    3.0111764   -0.8932850 
C    -2.2247646    0.9547950   -2.7161271 
C     2.0311625    1.9009068   -0.7231712 
C    -3.3206252   -0.8032733   -0.8268577 
C     0.5452539    3.8240406   -0.5113227 
C    -3.3819839    0.2252939   -3.0404883 
C     1.8252713    3.2516391   -0.3946476 
C    -3.9225907   -0.6594609   -2.0910872 
C     0.0890053   -1.3523113   -2.6038372 
C     2.8283155   -1.0089257   -2.1286213 
C    -2.4221196   -1.4078681    2.0511929 
C    -1.1046629    1.2425552    1.8255288 
C    -0.7972769   -2.4067832   -2.3213884 
C     3.2190948   -2.3634798   -2.1910500 
C    -2.5374375   -2.7772025    1.7253115 
C    -2.2182437    2.1055896    1.8960149 
C     0.1980012   -0.8619564   -3.9222215 
C     3.5925829   -0.0384944   -2.8034299 
C    -3.1990821   -0.8801623    3.0979138 
C     0.1404474    1.6741209    2.3212218 
C    -1.5866380   -2.9558338   -3.3424660 
C     4.3517688   -2.7426785   -2.9192925 
C    -3.4560440   -3.5914460    2.3985939 
C    -2.0879880    3.3646001    2.4969408 
C    -0.5897710   -1.4150421   -4.9377950 
C     4.7412147   -0.4218685   -3.5127155 
C    -4.1046840   -1.7046848    3.7816964 
C     0.2702242    2.9392151    2.9077903 
C    -2.0778311    4.8490374   -0.7666781 
C    -2.1833299    2.0225190   -4.8671787 
C    -1.4835465   -2.4607403   -4.6498417 
C     5.1206675   -1.7695886   -3.5762422 
C    -4.2470841   -3.0528462    3.4254155 
C    -0.8472363    3.7816470    3.0062934 
C     2.7951245    5.2971332    0.4079804 
C    -5.6702939   -1.3662244   -3.5762907 
H     3.0376733    1.4926732   -0.6208602 
H    -3.7762312   -1.4990926   -0.1198228 
H     0.3815839    4.8733686   -0.2675699 
H    -3.8361607    0.3272647   -4.0255945 
H    -0.8748576   -2.7872783   -1.2967911 
H     2.6222632   -3.1241008   -1.6729669 
H    -1.9053486   -3.2028488    0.9364225 
H    -3.1770862    1.7995445    1.4648825 
H     0.8946052   -0.0486739   -4.1493544 
H     3.2914240    1.0125984   -2.7930271 
H    -3.0913925    0.1671697    3.3929923 
H     1.0127392    1.0200740    2.2115886 
H    -2.2854748   -3.7664779   -3.1124244 
H     4.6402680   -3.7979155   -2.9663455 
H    -3.5485758   -4.6482129    2.1273585 
H    -2.9579468    4.0267906    2.5608393 
H    -0.4994482   -1.0361582   -5.9614835 
H     5.3346484    0.3408008   -4.0276562 
H    -4.6987208   -1.2875850    4.6012646 
H     1.2466481    3.2695073    3.2776060 
H    -1.8086446    5.1548427    0.2620096 
H    -3.1607926    4.9723919   -0.9116914 
H    -1.5332626    5.4774554   -1.4964890 
H    -2.2234634    1.0860956   -5.4555616 
H    -1.5222675    2.7423590   -5.3710363 
H    -3.1998192    2.4514681   -4.7833851 
H    -2.0943723   -2.8941545   -5.4489805 
H     6.0127334   -2.0627184   -4.1393975 
H    -4.9618127   -3.6887659    3.9579417 
H    -0.7510086    4.7685464    3.4715058 
H     2.4717960    5.9170265   -0.4498060 
H     2.0785048    5.4211213    1.2426733 
H     3.7949355    5.6190224    0.7328055 
H    -6.0642925   -0.3508306   -3.7731968 
H    -4.9880307   -1.6625189   -4.3961382 
H    -6.5071374   -2.0771927   -3.5218951 
