111
Energy =
C     2.3569978   -2.4166161    1.5241281 
C     2.1239616   -1.6107428    2.6853929 
C     0.8388834   -1.5697664    3.2731993 
H     2.8889786   -0.8963959    3.0144490 
Pd    0.7759035   -0.9339011    1.0859817 
P    -0.5955887    0.9512742    1.1822577 
P     0.4819868   -1.2975665   -1.2045294 
H     1.7951568   -3.3573532    1.4431404 
H     0.1571231   -2.3986158    3.0237004 
C     5.8610654   -2.2284079   -0.9722717 
C     5.0377720   -3.3634087   -0.9769209 
C     3.9109366   -3.4213433   -0.1477672 
C     3.5808558   -2.3428973    0.7031956 
C     4.4224303   -1.2041909    0.6982686 
C     5.5489294   -1.1495897   -0.1273081 
H     6.7412674   -2.1816482   -1.6216415 
H     5.2714540   -4.2101509   -1.6307578 
H     3.2693356   -4.3089845   -0.1613011 
H     4.1810223   -0.3434159    1.3325960 
H     6.1862195   -0.2588855   -0.1189748 
C    -0.5330881    0.7373504    6.6257700 
C    -1.4107691   -0.1009344    5.9217637 
C    -0.9435936   -0.8437228    4.8331884 
C     0.4071831   -0.7599311    4.4194519 
C     1.2772571    0.0941410    5.1348676 
C     0.8103564    0.8303427    6.2275986 
H    -0.8925566    1.3156413    7.4831379 
H    -2.4597375   -0.1802642    6.2250239 
H    -1.6314821   -1.4988126    4.2879228 
H     2.3292587    0.1751675    4.8461095 
H     1.4990997    1.4827429    6.7734051 
O    -3.6483096    1.7058218   -1.8400012 
O    -1.3257608    1.7017973   -3.8509261 
O    -4.4389822   -2.9950269   -2.0213110 
O     1.3268944    4.9805516   -1.6220762 
C    -1.8186695    0.2516087   -1.6247298 
C    -0.9732777    1.4791426   -1.5405501 
C    -1.3064566   -1.0627092   -1.6024990 
C    -0.4177466    1.9743579   -0.3436817 
C    -3.2216634    0.4170143   -1.8100910 
C    -0.7543328    2.2241592   -2.7349394 
C    -2.1528402   -2.1825853   -1.7397825 
C     0.3533755    3.1550195   -0.3256031 
C    -4.0735073   -0.6857431   -1.9299852 
C     0.0217684    3.3873529   -2.7333122 
C    -3.5364611   -1.9870093   -1.8939195 
C     0.5809730    3.8485953   -1.5264125 
C     0.8669285   -3.0441929   -1.6372333 
C     1.4117181   -0.2560057   -2.3821746 
C    -2.3931437    0.7060859    1.4035506 
C     0.0020725    2.0460979    2.5317543 
C     1.6992713   -3.3977304   -2.7156714 
C     2.4587251    0.5527985   -1.9009337 
C    -2.8763916   -0.5937628    1.6526288 
C     1.3967568    2.2689834    2.6046560 
C     0.3624791   -4.0626145   -0.7962732 
C     1.0975512   -0.2600756   -3.7575382 
C    -3.2986882    1.7807529    1.2876505 
C    -0.8430328    2.6653754    3.4696519 
C     2.0003332   -4.7465986   -2.9614619 
C     3.1873037    1.3553920   -2.7879547 
C    -4.2510528   -0.8176446    1.7976638 
C     1.9264267    3.1477378    3.5571735 
C     0.6560476   -5.4076599   -1.0512211 
C     1.8405049    0.5336954   -4.6402364 
C    -4.6715533    1.5535632    1.4507845 
C    -0.3042887    3.5276781    4.4364535 
C    -5.0266392    1.9703061   -2.0906173 
C    -1.2248358    2.4212312   -5.0777934 
C     1.4774827   -5.7527357   -2.1378480 
C     2.8808608    1.3440994   -4.1568664 
C    -5.1484492    0.2573906    1.7038867 
C     1.0731975    3.7854928    4.4713034 
C    -3.9701674   -4.3420691   -2.0126000 
C     1.9260564    5.5083584   -0.4402884 
H    -1.7323143   -3.1882082   -1.7461911 
H     0.7574521    3.5296090    0.6144765 
H    -5.1526405   -0.5814216   -2.0529012 
H     0.2224782    3.9581284   -3.6411792 
H     2.1287940   -2.6227616   -3.3566710 
H     2.6895221    0.5534963   -0.8305232 
H    -2.1685464   -1.4292088    1.6999649 
H     2.0637154    1.7566121    1.8995324 
H    -0.2583918   -3.7957084    0.0678943 
H     0.2639893   -0.8653801   -4.1282884 
H    -2.9309911    2.7843344    1.0501055 
H    -1.9197910    2.4734927    3.4520301 
H     2.6543628   -5.0077555   -3.7998523 
H     3.9934196    1.9923263   -2.4099843 
H    -4.6242038   -1.8316741    1.9735401 
H     3.0064415    3.3257191    3.5938966 
H     0.2535210   -6.1870808   -0.3957239 
H     1.6035681    0.5242780   -5.7094167 
H    -5.3734419    2.3902337    1.3691728 
H    -0.9694821    4.0003456    5.1663356 
H    -5.6664499    1.5462997   -1.2939790 
H    -5.3383275    1.5647015   -3.0712371 
H    -5.1248733    3.0655093   -2.0955615 
H    -1.7803837    1.8286144   -5.8189300 
H    -0.1707995    2.5197010   -5.3987381 
H    -1.6790245    3.4257928   -4.9887697 
H     1.7156394   -6.8033249   -2.3333256 
H     3.4526256    1.9699458   -4.8500709 
H    -6.2234037    0.0836549    1.8200137 
H     1.4847743    4.4682064    5.2218929 
H    -3.2744486   -4.5332413   -2.8517213 
H    -3.4655661   -4.5872080   -1.0578281 
H    -4.8635170   -4.9725405   -2.1267601 
H     1.1621244    5.7933702    0.3079827 
H     2.6273615    4.7821160    0.0146463 
H     2.4797115    6.4036152   -0.7575331 
