111
Energy =
C     2.9427547   -1.4897315    1.7000288 
C     1.9861677   -2.1917988    2.4899555 
C     1.1410345   -3.1740840    1.9262085 
H     1.7855777   -1.8526593    3.5144621 
Pd    0.8981662   -1.1706848    0.8523053 
P    -1.3913980   -1.0514296    0.3618075 
P     1.4662782    0.5557738   -0.6277114 
H     3.3901117   -2.0280067    0.8528791 
H     1.4325429   -3.5983627    0.9517770 
C     5.2775998    1.8527114    3.0864499 
C     4.0516531    1.5552429    3.7058336 
C     3.2862130    0.4710887    3.2679168 
C     3.7284475   -0.3442418    2.1990698 
C     4.9637148   -0.0343356    1.5888908 
C     5.7301185    1.0520397    2.0284108 
H     5.8744894    2.7041465    3.4292176 
H     3.6896001    2.1775469    4.5309757 
H     2.3238794    0.2655817    3.7502703 
H     5.3211223   -0.6530541    0.7588249 
H     6.6839182    1.2737659    1.5384437 
C    -1.7921690   -5.4845905    4.0502055 
C    -1.8287249   -5.3989707    2.6491848 
C    -0.8671683   -4.6482272    1.9675555 
C     0.1415734   -3.9528277    2.6733590 
C     0.1688685   -4.0510825    4.0835826 
C    -0.7864343   -4.8143406    4.7632369 
H    -2.5420456   -6.0775257    4.5837344 
H    -2.6134351   -5.9158184    2.0879369 
H    -0.9057393   -4.5729785    0.8746619 
H     0.9612028   -3.5534538    4.6521666 
H    -0.7425252   -4.8922654    5.8545479 
O    -2.9815511    1.2671259   -3.1173701 
O    -1.4538662    3.5770190   -1.9353823 
O     0.5901865   -0.5464527   -5.7057518 
O    -3.1340311    3.2244851    2.6194316 
C    -0.8997831    0.9402739   -2.0809216 
C    -1.5127274    1.5032045   -0.8426508 
C     0.4478684    0.5355252   -2.1669114 
C    -1.8528216    0.7362894    0.2986312 
C    -1.6945297    0.8560734   -3.2601014 
C    -1.7897565    2.8947017   -0.8089800 
C     0.9914003    0.0349928   -3.3683027 
C    -2.4052978    1.3390673    1.4383978 
C    -1.1717541    0.3505592   -4.4541772 
C    -2.3367652    3.5120538    0.3289063 
C     0.1726377   -0.0651711   -4.5055484 
C    -2.6291849    2.7283057    1.4592457 
C     3.1944000    0.3513968   -1.2280092 
C     1.3274715    2.2593727    0.0249108 
C    -1.9617198   -1.7796645   -1.2177862 
C    -2.4662800   -1.7618006    1.6724128 
C     3.5917461   -0.9383114   -1.6485348 
C     1.4666654    3.3762054   -0.8260155 
C    -3.2417739   -1.4904829   -1.7365452 
C    -2.0500666   -1.6017789    3.0117403 
C     4.1312970    1.4002989   -1.2571750 
C     1.0696742    2.4488354    1.3955979 
C    -1.1076015   -2.6565866   -1.9147997 
C    -3.6653441   -2.4498833    1.4027946 
C     4.8907528   -1.1648004   -2.1199622 
C     1.3738388    4.6689258   -0.2952025 
C    -3.6635877   -2.0954480   -2.9269658 
C    -2.8385658   -2.0846587    4.0621485 
C     5.4348080    1.1678495   -1.7235004 
C     0.9635165    3.7443435    1.9173806 
C    -1.5287807   -3.2442428   -3.1153125 
C    -4.4473632   -2.9392717    2.4579677 
C    -3.8252512    1.2992728   -4.2660680 
C    -1.7691908    4.9627513   -2.0305057 
C     5.8160578   -0.1080250   -2.1604210 
C     1.1225674    4.8542541    1.0743994 
C    -2.8090256   -2.9691266   -3.6182504 
C    -4.0410690   -2.7525044    3.7866474 
C     1.9408202   -0.9857166   -5.8361406 
C    -3.3846273    4.6246005    2.7214391 
H     2.0412504   -0.2529817   -3.4161858 
H    -2.6781978    0.7639074    2.3255980 
H    -1.7708122    0.2549493   -5.3610517 
H    -2.5112805    4.5875264    0.3379832 
H     2.8752642   -1.7681818   -1.6046521 
H     1.6244159    3.2320244   -1.8998508 
H    -3.8906716   -0.7722708   -1.2255609 
H    -1.0969545   -1.1031209    3.2264965 
H     3.8551386    2.3961741   -0.9000464 
H     0.9355442    1.5761888    2.0425125 
H    -0.1049349   -2.8586342   -1.5196064 
H    -3.9886354   -2.6163273    0.3717201 
H     5.1844975   -2.1673420   -2.4483228 
H     1.4923658    5.5355801   -0.9542045 
H    -4.6616308   -1.8776758   -3.3216360 
H    -2.5039076   -1.9566909    5.0961256 
H     6.1568759    1.9908183   -1.7349183 
H     0.7529481    3.8853548    2.9824666 
H    -0.8561956   -3.9140632   -3.6607872 
H    -5.3774105   -3.4735076    2.2376005 
H    -3.9678223    0.2867895   -4.6884944 
H    -3.4125611    1.9678606   -5.0446057 
H    -4.7919709    1.6901649   -3.9170986 
H    -1.2292068    5.5512856   -1.2646000 
H    -2.8578152    5.1328194   -1.9304072 
H    -1.4384768    5.2769164   -3.0310203 
H     6.8342316   -0.2842372   -2.5223105 
H     1.0473769    5.8675810    1.4833013 
H    -3.1396430   -3.4314924   -4.5540851 
H    -4.6532040   -3.1392794    4.6078042 
H     2.6542894   -0.1600154   -5.6514162 
H     2.1616658   -1.8199189   -5.1422905 
H     2.0451114   -1.3342464   -6.8735680 
H    -2.4545194    5.2101072    2.5875362 
H    -4.1377113    4.9553880    1.9808071 
H    -3.7762006    4.7872646    3.7358202 
