111
Energy =
C     2.2421165   -2.7554249    1.3485077 
C     2.1204092   -1.9352365    2.4925936 
C     0.8609975   -1.7219090    3.1262362 
H     2.9811291   -1.3238825    2.7934475 
Pd    0.7384962   -1.0722992    0.9921827 
P    -1.3203452    0.0380598    1.1433837 
P     1.0819179   -0.4516937   -1.2433829 
H     1.4212192   -3.4596407    1.1366102 
H     0.1334983   -2.5447116    3.0935386 
C     5.8912130   -3.5966697   -0.7570374 
C     5.9442115   -3.0967509    0.5530588 
C     4.7627039   -2.8118784    1.2461834 
C     3.5031840   -3.0327359    0.6432592 
C     3.4655816   -3.5551479   -0.6699664 
C     4.6468588   -3.8255554   -1.3659563 
H     6.8164703   -3.8144091   -1.3001761 
H     6.9115310   -2.9348059    1.0399131 
H     4.8197146   -2.4449933    2.2761815 
H     2.4959351   -3.7226560   -1.1529021 
H     4.5990849   -4.2118128   -2.3889473 
C     0.1756316    1.1126133    6.2951906 
C     1.2447291    1.3088077    5.4043346 
C     1.4800312    0.3936919    4.3747851 
C     0.6518640   -0.7419742    4.2101723 
C    -0.4166417   -0.9266690    5.1147503 
C    -0.6512410   -0.0096706    6.1467500 
H    -0.0091786    1.8324858    7.0991245 
H     1.8929406    2.1849388    5.5111850 
H     2.3062754    0.5728012    3.6774057 
H    -1.0702085   -1.7982422    5.0012923 
H    -1.4866854   -0.1733000    6.8353992 
O    -2.4242215    3.3276186   -1.5799989 
O    -2.1558966    1.2906173   -3.7791536 
O     2.1382896    4.6906307   -1.3081729 
O    -5.0867260   -1.9882773   -1.9339899 
C    -0.7637099    1.6697242   -1.4810185 
C    -1.8793958    0.6798562   -1.5288176 
C     0.6019432    1.3223388   -1.4270582 
C    -2.2973926   -0.0811326   -0.4181481 
C    -1.0950642    3.0561399   -1.5174934 
C    -2.6015709    0.5275664   -2.7473788 
C     1.6100731    2.3074901   -1.3731252 
C    -3.3753538   -0.9859657   -0.5095736 
C    -0.1053339    4.0418221   -1.4586196 
C    -3.6643957   -0.3743934   -2.8548326 
C     1.2491477    3.6652012   -1.3764192 
C    -4.0477292   -1.1358124   -1.7341127 
C     0.1549378   -1.3654466   -2.5303653 
C     2.8499077   -0.4940773   -1.7493304 
C    -2.3927507   -0.7539951    2.4125660 
C    -1.2520536    1.8218239    1.5387220 
C    -0.4584554   -2.5877010   -2.1921517 
C     3.2778600   -0.8348314   -3.0469980 
C    -3.0859617   -0.0279940    3.3980636 
C    -0.0196173    2.3971472    1.9015550 
C     0.0533503   -0.8731513   -3.8489265 
C     3.8122591   -0.1542413   -0.7740140 
C    -2.4865124   -2.1644503    2.4030442 
C    -2.4107922    2.6238055    1.4709939 
C    -1.1601089   -3.3158528   -3.1624189 
C     4.6422275   -0.8066753   -3.3676298 
C    -3.8796187   -0.7004828    4.3406337 
C     0.0552685    3.7624707    2.2035528 
C    -0.6343455   -1.6142187   -4.8179182 
C     5.1728664   -0.1197876   -1.1005671 
C    -3.2849886   -2.8313064    3.3404350 
C    -2.3317501    3.9850707    1.7905880 
C    -2.8458971    4.6843768   -1.6965788 
C    -2.8772932    1.2763021   -5.0087948 
C    -1.2426754   -2.8328100   -4.4767977 
C     5.5901300   -0.4438970   -2.4003253 
C    -3.9866772   -2.0975430    4.3119309 
C    -1.1009572    4.5553422    2.1544162 
C     3.5300814    4.3866545   -1.2349762 
C    -5.5342346   -2.7919349   -0.8439223 
H     2.6590481    2.0115459   -1.3425191 
H    -3.6947579   -1.5476033    0.3678796 
H    -0.3402172    5.1072253   -1.4606743 
H    -4.2144845   -0.5221397   -3.7853818 
H    -0.3990855   -2.9521843   -1.1596837 
H     2.5521441   -1.1335591   -3.8082933 
H    -2.9957497    1.0606839    3.4462162 
H     0.8781143    1.7711586    1.9251410 
H     0.4822243    0.1008454   -4.1047385 
H     3.4874296    0.0736794    0.2487702 
H    -1.9279149   -2.7406867    1.6547620 
H    -3.3619229    2.1885640    1.1476164 
H    -1.6467845   -4.2584408   -2.8918015 
H     4.9645434   -1.0753236   -4.3790076 
H    -4.4090145   -0.1246852    5.1067597 
H     1.0179456    4.2094580    2.4712944 
H    -0.7039393   -1.2340692   -5.8425453 
H     5.9099101    0.1380961   -0.3336587 
H    -3.3537611   -3.9240309    3.3190400 
H    -3.2329911    4.6056862    1.7466677 
H    -2.4338363    5.1523738   -2.6101587 
H    -2.5447574    5.2746085   -0.8108504 
H    -3.9432162    4.6523491   -1.7601968 
H    -2.3603057    1.9887279   -5.6677965 
H    -3.9244089    1.5997631   -4.8597402 
H    -2.8648086    0.2708813   -5.4702140 
H    -1.7880560   -3.4035145   -5.2355588 
H     6.6551864   -0.4284118   -2.6534424 
H    -4.6062410   -2.6172540    5.0500076 
H    -1.0428601    5.6223288    2.3938603 
H     3.7664617    3.7975612   -0.3276256 
H     3.8697847    3.8296195   -2.1288285 
H     4.0476572    5.3554311   -1.1881506 
H    -4.7299540   -3.4601282   -0.4795841 
H    -5.8980407   -2.1687212   -0.0047945 
H    -6.3636479   -3.3971843   -1.2367608 
