111
Energy =
C     2.8539086   -2.2425653    1.3686138 
C     2.3512827   -1.5894109    2.5323892 
C     1.1127191   -1.9700190    3.0998581 
H     2.8756195   -0.7041053    2.9164241 
Pd    0.8853732   -1.2512879    0.9378852 
P    -1.1792876   -0.1283290    1.2191600 
P     0.9749610   -0.7172405   -1.3423912 
H     2.5659048   -3.2952273    1.2250880 
H     0.7472112   -2.9810432    2.8617891 
C     6.5316783   -1.0815371   -0.5426216 
C     6.2287945   -2.4366136   -0.3484816 
C     5.0277155   -2.8083369    0.2684905 
C     4.1151058   -1.8310485    0.7191784 
C     4.4400891   -0.4686225    0.5312278 
C     5.6318076   -0.0981300   -0.0987002 
H     7.4621760   -0.7908071   -1.0405948 
H     6.9269070   -3.2087107   -0.6882342 
H     4.7912905   -3.8695622    0.4062671 
H     3.7283748    0.3002746    0.8549335 
H     5.8605846    0.9616589   -0.2535205 
C    -0.6845577   -0.3075520    6.6350732 
C     0.1832883    0.4833569    5.8636661 
C     0.7751451   -0.0397430    4.7105472 
C     0.5027962   -1.3633166    4.2950697 
C    -0.3766335   -2.1444330    5.0778076 
C    -0.9579843   -1.6250239    6.2397994 
H    -1.1465136    0.1040427    7.5384254 
H     0.3990236    1.5145165    6.1620743 
H     1.4459716    0.5922981    4.1230089 
H    -0.6022382   -3.1704172    4.7691936 
H    -1.6333423   -2.2493541    6.8332907 
O    -2.0050397    3.5117431   -1.1911671 
O    -2.1092626    1.5512569   -3.5531495 
O     2.6885701    4.1714472   -0.6713511 
O    -5.3176391   -1.4993066   -1.5261445 
C    -0.5920949    1.6381787   -1.2976968 
C    -1.8288178    0.8084337   -1.3523158 
C     0.7086988    1.1022022   -1.3063141 
C    -2.2770643    0.0298820   -0.2573055 
C    -0.7281611    3.0532812   -1.1683783 
C    -2.6138737    0.8134043   -2.5305066 
C     1.8441195    1.9164990   -1.0831277 
C    -3.4615390   -0.7152950   -0.3367986 
C     0.3889158    3.8742965   -0.9914974 
C    -3.7963919    0.0593817   -2.6292433 
C     1.6736366    3.2991729   -0.9162187 
C    -4.2116909   -0.7099397   -1.5282038 
C    -0.2899833   -1.4994497   -2.4314818 
C     2.4841136   -0.9922607   -2.3576895 
C    -2.2374084   -0.9550320    2.4722928 
C    -0.9167005    1.6039522    1.7637628 
C    -1.1308353   -2.5069097   -1.9245986 
C     3.0789372   -2.2666810   -2.2855129 
C    -2.4131674   -2.3501623    2.3401859 
C     0.3853238    2.0558911    2.0518836 
C    -0.3496721   -1.1629614   -3.8002883 
C     2.9693126   -0.0548003   -3.2942492 
C    -2.8746873   -0.2761352    3.5260990 
C    -2.0031656    2.4986259    1.8628654 
C    -2.0390025   -3.1600330   -2.7702702 
C     4.1521554   -2.5956361   -3.1222214 
C    -3.2524315   -3.0454926    3.2192249 
C     0.6010637    3.3781979    2.4599666 
C    -1.2552062   -1.8198576   -4.6408703 
C     4.0488153   -0.3872337   -4.1242735 
C    -3.7026904   -0.9800955    4.4131810 
C    -1.7845515    3.8154568    2.2879485 
C    -2.2337821    4.9175118   -1.1192983 
C    -2.8393920    1.6410202   -4.7737191 
C    -2.1017357   -2.8172848   -4.1280346 
C     4.6448000   -1.6540206   -4.0372728 
C    -3.9042034   -2.3581770    4.2554836 
C    -0.4853541    4.2558087    2.5895061 
C     4.0162185    3.6632021   -0.5677847 
C    -6.1190777   -1.5703899   -2.7040208 
H     2.8368131    1.4647202   -1.0467115 
H    -3.8263126   -1.3231240    0.4931922 
H     0.3060939    4.9545791   -0.8632364 
H    -4.3663022    0.0521901   -3.5578879 
H    -1.0776256   -2.7706385   -0.8621352 
H     2.6950786   -3.0038117   -1.5722193 
H    -1.8918298   -2.8907023    1.5405280 
H     1.2299665    1.3700485    1.9190501 
H     0.3076042   -0.3874985   -4.2051889 
H     2.5018686    0.9303906   -3.3841164 
H    -2.7143918    0.7957465    3.6708895 
H    -3.0107835    2.1701670    1.5877933 
H    -2.6996313   -3.9329500   -2.3645555 
H     4.6110054   -3.5867855   -3.0513218 
H    -3.3929957   -4.1247975    3.0992738 
H     1.6188945    3.7286315    2.6592389 
H    -1.2939859   -1.5598735   -5.7041516 
H     4.4194583    0.3464111   -4.8480392 
H    -4.1872820   -0.4446309    5.2359495 
H    -2.6314249    4.5045910    2.3733153 
H    -1.8608117    5.3345077   -0.1650866 
H    -3.3243474    5.0462005   -1.1750568 
H    -1.7535752    5.4430483   -1.9658725 
H    -2.9481584    0.6476592   -5.2491988 
H    -2.2484243    2.2971416   -5.4289081 
H    -3.8392596    2.0859587   -4.6112786 
H    -2.8056142   -3.3320569   -4.7907777 
H     5.4893937   -1.9090672   -4.6856962 
H    -4.5568350   -2.9005416    4.9474117 
H    -0.3191672    5.2886287    2.9132391 
H     4.1098274    2.9557749    0.2794481 
H     4.3321963    3.1578063   -1.5004707 
H     4.6607270    4.5354168   -0.3874588 
H    -6.5427118   -0.5816196   -2.9645557 
H    -5.5376124   -1.9602418   -3.5615957 
H    -6.9370751   -2.2666817   -2.4699216 
