111
Energy =
C     2.8299372   -2.2291553    1.3130443 
C     2.3129846   -1.5781742    2.4720354 
C     1.0665870   -1.9603927    3.0209492 
H     2.8326176   -0.6941692    2.8652575 
Pd    0.8697126   -1.2352406    0.8587073 
P    -1.1935044   -0.1020691    1.1130507 
P     0.9866799   -0.6952673   -1.4199131 
H     2.5427177   -3.2812789    1.1641185 
H     0.7059242   -2.9712107    2.7746324 
C     6.5306823   -1.0688250   -0.5533098 
C     6.2222229   -2.4239436   -0.3688340 
C     5.0138462   -2.7952695    0.2338764 
C     4.0990156   -1.8176892    0.6793258 
C     4.4290088   -0.4552221    0.5003132 
C     5.6284762   -0.0851008   -0.1148721 
H     7.4675787   -0.7782437   -1.0391592 
H     6.9216615   -3.1962596   -0.7052239 
H     4.7730243   -3.8564595    0.3638667 
H     3.7152052    0.3141233    0.8182340 
H     5.8615841    0.9746896   -0.2627173 
C    -0.8020362   -0.3027480    6.5215070 
C     0.0854838    0.4873212    5.7719821 
C     0.7021665   -0.0347870    4.6314592 
C     0.4356799   -1.3565275    4.2065779 
C    -0.4624897   -2.1373874    4.9682276 
C    -1.0695557   -1.6187878    6.1173318 
H    -1.2824043    0.1077606    7.4156758 
H     0.2975650    1.5170061    6.0778889 
H     1.3875201    0.5969296    4.0606549 
H    -0.6826769   -3.1625207    4.6528622 
H    -1.7600645   -2.2424854    6.6937956 
O    -1.9810145    3.5430854   -1.2877213 
O    -2.0760574    1.6006430   -3.6580713 
O     2.7102142    4.1869633   -0.7306158 
O    -5.3791723   -1.3202261   -1.8363582 
C    -0.5738107    1.6653205   -1.3871365 
C    -1.8170459    0.8455838   -1.4550222 
C     0.7250668    1.1244065   -1.3823154 
C    -2.2790923    0.0718478   -0.3704621 
C    -0.7059373    3.0807654   -1.2561897 
C    -2.5994881    0.8675721   -2.6427323 
C     1.8609462    1.9348141   -1.1479176 
C    -3.4810594   -0.6598220   -0.4509975 
C     0.4122203    3.8977444   -1.0682369 
C    -3.7874910    0.1363390   -2.7399144 
C     1.6942878    3.3182894   -0.9832318 
C    -4.2256573   -0.6292079   -1.6424838 
C    -0.2729502   -1.4654228   -2.5205704 
C     2.5052046   -0.9742437   -2.4192717 
C    -2.2743890   -0.9329119    2.3456383 
C    -0.9284486    1.6252378    1.6719796 
C    -1.1200217   -2.4741827   -2.0264582 
C     3.0941284   -2.2511286   -2.3418323 
C    -2.4488920   -2.3274811    2.2034797 
C    -2.0100055    2.5268559    1.7609304 
C    -0.3279350   -1.1130382   -3.8853062 
C     3.0032800   -0.0382336   -3.3504143 
C    -2.9381466   -0.2579629    3.3853393 
C     0.3732853    2.0681534    1.9753306 
C    -2.0304973   -3.1111478   -2.8811285 
C     4.1747209   -2.5837075   -3.1674901 
C    -3.3134572   -3.0252246    3.0560402 
C    -1.7877856    3.8410189    2.1922990 
C    -1.2367704   -1.7542142   -4.7344645 
C     4.0905250   -0.3741172   -4.1688029 
C    -3.7914093   -0.9640771    4.2467688 
C     0.5929145    3.3879607    2.3892694 
C    -2.2066714    4.9497238   -1.2224595 
C    -2.8031702    1.7011436   -4.8810219 
C    -2.0907214   -2.7513302   -4.2346523 
C     4.6803552   -1.6434202   -4.0767769 
C    -3.9927145   -2.3408385    4.0768111 
C    -0.4891471    4.2723685    2.5086822 
C     4.0353400    3.6744187   -0.6166685 
C    -5.8734455   -2.1396111   -0.7785351 
H     2.8514267    1.4791360   -1.1010841 
H    -3.8232398   -1.2456323    0.4019079 
H     0.3314991    4.9779705   -0.9383534 
H    -4.3895828    0.1155878   -3.6495289 
H    -1.0705925   -2.7485556   -0.9663283 
H     2.6996588   -2.9872508   -1.6332936 
H    -1.9055136   -2.8650307    1.4165639 
H    -3.0161253    2.2066825    1.4711479 
H     0.3328933   -0.3351320   -4.2795857 
H     2.5399404    0.9484164   -3.4452455 
H    -2.7802275    0.8131531    3.5383340 
H     1.2150513    1.3775726    1.8488922 
H    -2.6952976   -3.8871607   -2.4878733 
H     4.6287907   -3.5767593   -3.0927934 
H    -3.4496623   -4.1045666    2.9302401 
H    -2.6311650    4.5351869    2.2707287 
H    -1.2746353   -1.4798405   -5.7940498 
H     4.4719707    0.3587328   -4.8876910 
H    -4.2956455   -0.4316028    5.0596001 
H     1.6106215    3.7312054    2.6011665 
H    -1.8416508    5.3686601   -0.2659995 
H    -3.2962594    5.0809879   -1.2892345 
H    -1.7169738    5.4710448   -2.0660724 
H    -2.9257776    0.7089834   -5.3548071 
H    -2.2019513    2.3493035   -5.5347664 
H    -3.7972245    2.1580306   -4.7183172 
H    -2.8001920   -3.2506027   -4.9025638 
H     5.5301064   -1.9015567   -4.7171390 
H    -4.6643343   -2.8848206    4.7490501 
H    -0.3196137    5.3038817    2.8347054 
H     4.1201543    2.9676049    0.2319612 
H     4.3566071    3.1670694   -1.5464304 
H     4.6813538    4.5446610   -0.4323846 
H    -5.1467767   -2.9305635   -0.5095636 
H    -6.1084421   -1.5401169    0.1215131 
H    -6.7944249   -2.6020012   -1.1613589 
