111
Energy =
C     2.9212562   -2.1440426    1.3832037 
C     2.2475502   -1.6972634    2.5579614 
C     1.0037412   -2.2548974    2.9363618 
H     2.6421149   -0.8292575    3.1030086 
Pd    0.9141653   -1.2782601    0.8685506 
P    -1.2701438   -0.3872441    1.0615249 
P     1.1668061   -0.4455679   -1.3074971 
H     2.7543616   -3.1893687    1.0813021 
H     0.7652073   -3.2528880    2.5366118 
C     6.6284334   -0.4226823    0.0336394 
C     5.5930817    0.4109992    0.4886225 
C     4.3904496   -0.1426658    0.9373164 
C     4.1913159   -1.5417210    0.9289125 
C     5.2392069   -2.3674489    0.4694049 
C     6.4496169   -1.8133254    0.0342802 
H     7.5678922    0.0118675   -0.3224712 
H     5.7250205    1.4982488    0.4836602 
H     3.5741768    0.5111415    1.2666958 
H     5.1009219   -3.4545296    0.4551888 
H     7.2531451   -2.4697328   -0.3154587 
C    -1.2766776   -1.2416774    6.4385168 
C    -1.3749531   -2.5147831    5.8587285 
C    -0.6371968   -2.8221387    4.7101397 
C     0.2260174   -1.8684772    4.1257394 
C     0.3202187   -0.5917998    4.7256504 
C    -0.4273176   -0.2807378    5.8650070 
H    -1.8597136   -0.9966144    7.3322877 
H    -2.0355930   -3.2698281    6.2963702 
H    -0.7266394   -3.8143274    4.2560326 
H     0.9736403    0.1705146    4.2933940 
H    -0.3478731    0.7173617    6.3081331 
O    -2.2287530    3.4459311   -0.9681676 
O    -1.9028114    1.8014503   -3.5498573 
O     2.3029744    4.4475301    0.1252547 
O    -4.9730081   -1.7484931   -2.2533156 
C    -0.6286413    1.7352224   -1.1474398 
C    -1.7641207    0.8132930   -1.4336684 
C     0.7147635    1.3226329   -1.0813793 
C    -2.2340332   -0.1364265   -0.4936819 
C    -0.9197837    3.1037480   -0.8644478 
C    -2.4283087    0.8992260   -2.6811128 
C     1.7352955    2.1989316   -0.6423961 
C    -3.3249577   -0.9658914   -0.7879892 
C     0.0861408    3.9906823   -0.4712076 
C    -3.5147292    0.0637814   -2.9948319 
C     1.4099567    3.5275670   -0.3297792 
C    -3.9550987   -0.8732156   -2.0436230 
C     0.0974196   -1.1896679   -2.6114257 
C     2.7857037   -0.4509044   -2.1808633 
C    -2.3542970   -1.4566036    2.0881109 
C    -1.2348179    1.2761141    1.8347338 
C    -0.6808932   -2.3251248   -2.3213591 
C     3.4981430   -1.6655011   -2.1981928 
C    -2.3838227   -2.8321719    1.7693459 
C    -2.4100386    2.0514026    1.9249331 
C     0.1336074   -0.6855724   -3.9286280 
C     3.2587046    0.6392018   -2.9418059 
C    -3.1465834   -0.9766346    3.1461413 
C    -0.0180114    1.7989211    2.3126046 
C    -1.4334291   -2.9419967   -3.3311005 
C     4.6743829   -1.7856816   -2.9478117 
C    -3.2314513   -3.7031478    2.4646014 
C    -2.3662007    3.3154007    2.5271767 
C    -0.6166180   -1.3065027   -4.9335058 
C     4.4408136    0.5152313   -3.6846662 
C    -3.9825832   -1.8563659    3.8497452 
C     0.0240547    3.0702138    2.8987089 
C    -2.6048806    4.8044355   -0.7524550 
C    -2.5169673    1.9817373   -4.8232079 
C    -1.4014916   -2.4337444   -4.6370880 
C     5.1523607   -0.6934953   -3.6861854 
C    -4.0386446   -3.2133722    3.5035473 
C    -1.1522217    3.8249877    3.0162265 
C     3.6590241    4.0497820    0.3109337 
C    -5.6499594   -1.7342136   -3.5087951 
H     2.7607545    1.8364395   -0.5541641 
H    -3.7046205   -1.7045786   -0.0797299 
H    -0.1181971    5.0327435   -0.2210428 
H    -3.9900213    0.1263661   -3.9732742 
H    -0.7029232   -2.7176269   -1.2982548 
H     3.1253616   -2.5200395   -1.6236041 
H    -1.7418152   -3.2188547    0.9682260 
H    -3.3490277    1.6742845    1.5066818 
H     0.7428675    0.1918953   -4.1650893 
H     2.7030207    1.5815168   -2.9636098 
H    -3.1028849    0.0765950    3.4364180 
H     0.9001320    1.2133589    2.1879854 
H    -2.0475965   -3.8164847   -3.0935624 
H     5.2237997   -2.7322947   -2.9468105 
H    -3.2576755   -4.7652065    2.1994880 
H    -3.2826035    3.9098049    2.6062167 
H    -0.5812789   -0.9154016   -5.9559631 
H     4.8018371    1.3665787   -4.2713820 
H    -4.5885285   -1.4753152    4.6780593 
H     0.9777916    3.4791419    3.2474181 
H    -2.3678086    5.1253686    0.2791668 
H    -3.6927555    4.8418150   -0.9077760 
H    -2.1030028    5.4760988   -1.4738353 
H    -1.9338439    2.7647519   -5.3289596 
H    -3.5672375    2.3135873   -4.7187311 
H    -2.4795065    1.0512793   -5.4211551 
H    -1.9824018   -2.9198318   -5.4282032 
H     6.0760218   -0.7860054   -4.2668056 
H    -4.6988210   -3.8932375    4.0519568 
H    -1.1217199    4.8178510    3.4771248 
H     3.7414638    3.2493158    1.0721222 
H     4.1137455    3.7001440   -0.6357124 
H     4.1910390    4.9447438    0.6639565 
H    -6.1407823   -0.7592355   -3.6918733 
H    -4.9559287   -1.9600261   -4.3411381 
H    -6.4152738   -2.5210926   -3.4470375 
