111
Energy =
C     2.4892233   -2.4421961    1.5729875 
C     2.2336950   -1.6665480    2.7501197 
C     0.9469707   -1.6701108    3.3353411 
H     2.9795700   -0.9400594    3.0961089 
Pd    0.8731841   -0.9911039    1.1601642 
P    -0.5295746    0.8681323    1.2892293 
P     0.5817950   -1.3356830   -1.1333813 
H     1.9522938   -3.3952376    1.4703668 
H     0.2859812   -2.5094753    3.0656992 
C     5.9890983   -2.1083069   -0.9136819 
C     5.1927008   -3.2618889   -0.9478693 
C     4.0674792   -3.3674316   -0.1212979 
C     3.7115821   -2.3185733    0.7558879 
C     4.5257645   -1.1602861    0.7802979 
C     5.6512561   -1.0586642   -0.0422706 
H     6.8685617   -2.0247777   -1.5604125 
H     5.4460527   -4.0860002   -1.6229588 
H     3.4473595   -4.2695845   -0.1571071 
H     4.2638333   -0.3212473    1.4352079 
H     6.2674870   -0.1537700   -0.0103202 
C    -0.4867115    0.5269996    6.7352575 
C    -1.3423340   -0.3168698    6.0110608 
C    -0.8553750   -1.0231558    4.9070004 
C     0.4934012   -0.8962299    4.4976480 
C     1.3409926   -0.0370651    5.2336247 
C     0.8544366    0.6624754    6.3416797 
H    -0.8616085    1.0768233    7.6046689 
H    -2.3893432   -0.4291471    6.3107215 
H    -1.5255127   -1.6837127    4.3464002 
H     2.3909733    0.0767423    4.9487640 
H     1.5258056    1.3200031    6.9026938 
O    -3.5972222    1.6125990   -1.7181650 
O    -1.2720761    1.6657805   -3.7361438 
O    -4.1613178   -3.2215701   -1.8811591 
O     1.4346249    4.8873760   -1.2870622 
C    -1.7476220    0.1862058   -1.5246819 
C    -0.9159656    1.4216158   -1.4316758 
C    -1.2131931   -1.1262652   -1.5161538 
C    -0.3595033    1.9099716   -0.2249130 
C    -3.1476519    0.3301220   -1.6980059 
C    -0.6996996    2.1750552   -2.6130773 
C    -2.0458177   -2.2470377   -1.6485575 
C     0.4091907    3.0828648   -0.2048125 
C    -3.9955764   -0.7854497   -1.8157248 
C     0.0829541    3.3428087   -2.6105071 
C    -3.4369328   -2.0755599   -1.7843068 
C     0.6461876    3.7860664   -1.4010168 
C     1.0022564   -3.0672883   -1.5885026 
C     1.4897137   -0.2642661   -2.3032906 
C    -2.3248307    0.5919127    1.5021782 
C     0.0422169    1.9472913    2.6606951 
C     1.8482343   -3.3880060   -2.6668888 
C     2.5257189    0.5542195   -1.8152496 
C    -2.7874418   -0.7187606    1.7319770 
C    -0.8177068    2.5203684    3.6147444 
C     0.5196632   -4.1066069   -0.7608310 
C     1.1784775   -0.2637786   -3.6794760 
C    -3.2468230    1.6549848    1.4104509 
C     1.4315915    2.1970591    2.7431594 
C     2.1842826   -4.7259754   -2.9254664 
C     3.2480773    1.3697771   -2.6961336 
C    -4.1578392   -0.9652957    1.8830079 
C    -0.2990187    3.3645782    4.6077208 
C     0.8492866   -5.4406362   -1.0281884 
C     1.9138700    0.5438053   -4.5559750 
C    -4.6152345    1.4049135    1.5779036 
C     1.9405677    3.0575644    3.7230179 
C    -4.9795384    1.8626176   -1.9532019 
C    -1.1744056    2.3920376   -4.9576490 
C     1.6842119   -5.7533064   -2.1140872 
C     2.9453798    1.3620637   -4.0658430 
C    -5.0715186    0.0978453    1.8136512 
C     1.0727234    3.6494568    4.6536308 
C    -5.5772477   -3.1347163   -2.0264558 
C     1.7337056    5.6466904   -2.4563870 
H    -1.6553914   -3.2663040   -1.6616279 
H     0.8401895    3.4827801    0.7145578 
H    -5.0714058   -0.6483188   -1.9214258 
H     0.2609459    3.8855149   -3.5383916 
H     2.2618994   -2.5962069   -3.2974939 
H     2.7554953    0.5512946   -0.7447250 
H    -2.0675300   -1.5444372    1.7619159 
H    -1.8899972    2.3059416    3.5902665 
H    -0.1131211   -3.8659383    0.1021946 
H     0.3551530   -0.8794875   -4.0558699 
H    -2.8948472    2.6683241    1.1912809 
H     2.1111668    1.7215014    2.0246169 
H     2.8476915   -4.9616451   -3.7640657 
H     4.0472582    2.0112777   -2.3110425 
H    -4.5129675   -1.9878242    2.0477347 
H    -0.9755211    3.8019678    5.3491075 
H     0.4610476   -6.2367724   -0.3845628 
H     1.6808558    0.5359799   -5.6261148 
H    -5.3295679    2.2328654    1.5171003 
H     3.0159203    3.2598018    3.7651038 
H    -5.6080806    1.4290545   -1.1522598 
H    -5.2979308    1.4614755   -2.9339319 
H    -5.0904276    2.9566643   -1.9503405 
H    -1.7315072    1.8038318   -5.7012031 
H    -0.1216339    2.4916928   -5.2834082 
H    -1.6298226    3.3959933   -4.8636753 
H     1.9489950   -6.7955376   -2.3196562 
H     3.5151194    1.9939299   -4.7556932 
H    -6.1429052   -0.0923244    1.9384926 
H     1.4685766    4.3191339    5.4241033 
H    -6.0407027   -2.6297048   -1.1569035 
H    -5.8560503   -2.5994325   -2.9542938 
H    -5.9384817   -4.1716183   -2.0818291 
H     2.2679841    5.0334680   -3.2076156 
H     0.8164826    6.0683158   -2.9103863 
H     2.3853217    6.4675594   -2.1241368 
