73
Energy =
C     0.4100416   -0.5002647   -2.6083236 
C     1.5923425    0.0165326   -2.0251243 
C     2.3078577   -0.7504904   -1.0528811 
H     1.8656863    1.0668445   -2.1883484 
Pd    0.2309687   -0.4000212   -0.3504573 
P     0.4063700   -0.7793660    1.9270928 
P    -1.9977188    0.1298975    0.0310327 
H     0.2853097   -1.5947454   -2.5737331 
H     2.2829624   -1.8438673   -1.1700388 
C    -2.2519058    1.3731555   -5.4240450 
C    -1.2064305    2.1225861   -4.8581278 
C    -0.3245280    1.5320797   -3.9469192 
C    -0.4716777    0.1751951   -3.5757169 
C    -1.5173699   -0.5712194   -4.1692886 
C    -2.4001226    0.0206982   -5.0809458 
H    -2.9383592    1.8392880   -6.1379502 
H    -1.0752500    3.1737798   -5.1344882 
H     0.4897582    2.1322827   -3.5282993 
H    -1.6273441   -1.6325110   -3.9174817 
H    -3.1999263   -0.5765019   -5.5307473 
C     5.6041975    0.7267060    1.3010874 
C     5.5185970   -0.6328588    0.9654019 
C     4.4491962   -1.1019531    0.1908420 
C     3.4407442   -0.2227708   -0.2632064 
C     3.5416706    1.1463723    0.0822186 
C     4.6126673    1.6149455    0.8520060 
H     6.4399949    1.0940873    1.9050157 
H     6.2919786   -1.3311154    1.3017966 
H     4.3994519   -2.1631739   -0.0776619 
H     2.7607952    1.8466453   -0.2365164 
H     4.6721025    2.6779005    1.1085549 
C     1.3625799    0.4897894    2.9205055 
C     1.2669747   -2.2730452    2.6888371 
C    -3.3216094   -0.8779978   -0.8435720 
C    -2.6887755    1.8002476   -0.4880786 
C    -1.3394483   -0.8839921    2.5959822 
C    -2.2829140    0.0947719    1.8834353 
C     1.9885226   -0.3289562    4.0717241 
C     2.4548115   -1.6646159    3.4724024 
C    -4.3853173    0.1647097   -1.2619362 
C    -3.6442891    1.4544646   -1.6513274 
C     0.5911299    1.7474774    3.3299533 
C     1.6316995   -3.3859675    1.7017844 
C    -3.8426987   -2.1022201   -0.0841612 
C    -1.6237677    2.8613878   -0.7781065 
H     2.1774011    0.7765940    2.2274617 
H     0.5302954   -2.6619923    3.4189363 
H    -2.8017352   -1.2153331   -1.7600128 
H    -3.3035074    2.1234769    0.3754611 
H    -1.6560273   -1.9287890    2.4186903 
H    -1.3367727   -0.7244838    3.6896475 
H    -3.3422684   -0.1272558    2.1024544 
H    -2.0919195    1.1286720    2.2225893 
H     1.2346995   -0.5049246    4.8643269 
H     2.8208930    0.2311006    4.5335972 
H     3.2993384   -1.4847386    2.7810388 
H     2.8055295   -2.3705817    4.2455307 
H    -5.0688295    0.3617079   -0.4129221 
H    -5.0012163   -0.2271319   -2.0908517 
H    -3.0641866    1.2933129   -2.5788293 
H    -4.3389894    2.2916514   -1.8410332 
H    -0.2552051    1.5115771    3.9992754 
H     1.2610827    2.4344246    3.8760103 
H     0.2029051    2.2906839    2.4502705 
H     2.3517022   -3.0229421    0.9503667 
H     2.0981279   -4.2305109    2.2386097 
H     0.7428672   -3.7705098    1.1720258 
H    -3.0289451   -2.8060569    0.1650015 
H    -4.3544235   -1.8158181    0.8514487 
H    -4.5750945   -2.6456002   -0.7064466 
H    -2.1013529    3.8094258   -1.0816602 
H    -1.0030076    3.0648634    0.1121767 
H    -0.9603196    2.5349873   -1.5953533 
