73
Energy =
C     0.4211829   -0.1355347   -2.6821994 
C     1.6124087    0.3128535   -2.0501042 
C     2.3389655   -0.5585635   -1.1888635 
H     1.8676617    1.3794774   -2.0742871 
Pd    0.2499689   -0.3281598   -0.4523553 
P     0.4618221   -0.7783350    1.8145665 
P    -2.0163838   -0.0677641   -0.0310011 
H     0.3286975   -1.2196781   -2.8535249 
H     2.2759486   -1.6357048   -1.4059238 
C    -2.3513823    2.1938685   -5.0165581 
C    -2.4286736    0.7934476   -4.9925645 
C    -1.5078168    0.0522275   -4.2405418 
C    -0.4958419    0.6933282   -3.4878632 
C    -0.4238629    2.1053178   -3.5336858 
C    -1.3394354    2.8445482   -4.2899958 
H    -3.0667111    2.7761035   -5.6060055 
H    -3.2016887    0.2752901   -5.5694234 
H    -1.5608993   -1.0428078   -4.2423809 
H     0.3556588    2.6351969   -2.9767506 
H    -1.2641082    3.9365692   -4.3146685 
C     5.6022732    0.4980779    1.4162641 
C     5.3732601   -0.8388868    1.0572009 
C     4.3217847   -1.1640304    0.1900303 
C     3.4739002   -0.1613187   -0.3334731 
C     3.7177427    1.1822766    0.0372705 
C     4.7720262    1.5067528    0.8981412 
H     6.4237902    0.7546436    2.0926673 
H     6.0193718   -1.6313905    1.4488114 
H     4.1521582   -2.2099770   -0.0903192 
H     3.0637880    1.9800112   -0.3308039 
H     4.9440015    2.5524690    1.1734360 
C     1.8190007   -0.0503379    2.8748247 
C     0.7810878   -2.5693649    2.3211271 
C    -3.3614549   -0.6763360   -1.1847817 
C    -2.6262762    1.7138914    0.0362470 
C    -1.1757517   -0.3373530    2.6059568 
C    -2.3286249   -0.7598954    1.6767750 
C     2.1051161   -1.1571871    3.9143818 
C     2.0818540   -2.4967098    3.1623452 
C    -4.3893276    0.4795467   -1.2151823 
C    -3.6031086    1.7982278   -1.1608963 
C     1.5527659    1.3514006    3.4304093 
C     0.8320262   -3.5618784    1.1533460 
C    -3.9277311   -2.0657799   -0.8739318 
C    -1.5180824    2.7726376    0.0488568 
H     2.6800166   -0.0001699    2.1824058 
H    -0.0622834   -2.8318336    2.9883510 
H    -2.8543535   -0.6995231   -2.1677842 
H    -3.2132660    1.7805190    0.9733711 
H    -1.2604799   -0.8100771    3.6007021 
H    -1.1834538    0.7575439    2.7571938 
H    -2.3742057   -1.8609169    1.5862992 
H    -3.3058678   -0.4158048    2.0602880 
H     1.3308325   -1.1435630    4.7063983 
H     3.0772834   -0.9800051    4.4076804 
H     2.9546005   -2.5467874    2.4843208 
H     2.1467616   -3.3623176    3.8445357 
H    -5.0652312    0.4019356   -0.3414401 
H    -5.0173133    0.4096633   -2.1209654 
H    -3.0295785    1.9318463   -2.0975000 
H    -4.2659377    2.6750732   -1.0544608 
H     0.7177544    1.3565633    4.1527774 
H     2.4512461    1.7175009    3.9568248 
H     1.3246370    2.0700568    2.6233462 
H     1.6382057   -3.2973522    0.4468093 
H     1.0296105   -4.5816901    1.5277535 
H    -0.1189542   -3.5829970    0.5927910 
H    -3.1378223   -2.8375740   -0.8587491 
H    -4.4515200   -2.0839807    0.0978645 
H    -4.6585693   -2.3523852   -1.6502665 
H    -1.9594115    3.7847187    0.0624266 
H    -0.8676985    2.6739373    0.9354811 
H    -0.8861022    2.6864496   -0.8510270 
