73
Energy =
C     0.4166895   -0.5386802   -2.6426729 
C     1.5876014    0.0462321   -2.0911263 
C     2.3506374   -0.6446955   -1.1062423 
H     1.8030607    1.1042822   -2.2856986 
Pd    0.2417732   -0.3930194   -0.4118850 
P     0.4354953   -0.5226135    1.8977500 
P    -2.0305865   -0.1055002   -0.0490884 
H     0.3617255   -1.6387783   -2.6394788 
H     2.3435062   -1.7443715   -1.1472483 
C    -2.4077735    1.2958075   -5.3298138 
C    -1.4261758    2.0875864   -4.7093777 
C    -0.4950968    1.5089814   -3.8405644 
C    -0.5205430    0.1202705   -3.5725044 
C    -1.5023148   -0.6660577   -4.2199919 
C    -2.4385462   -0.0850437   -5.0854636 
H    -3.1352680    1.7526222   -6.0082240 
H    -1.3868729    3.1639920   -4.9057485 
H     0.2602922    2.1468731   -3.3703345 
H    -1.5195599   -1.7488057   -4.0487135 
H    -3.1870278   -0.7142149   -5.5781630 
C     5.6267779    1.0115862    1.1509598 
C     5.5040276   -0.3751286    0.9783461 
C     4.4407628   -0.9004002    0.2321275 
C     3.4748722   -0.0517113   -0.3549322 
C     3.6120714    1.3452662   -0.1710654 
C     4.6778706    1.8692006    0.5686931 
H     6.4577961    1.4236517    1.7321757 
H     6.2434016   -1.0511686    1.4201170 
H     4.3625255   -1.9838507    0.0872350 
H     2.8653501    2.0281310   -0.5909341 
H     4.7664697    2.9528388    0.6985402 
C     1.8070767    0.3513401    2.8503035 
C     0.7158160   -2.2203807    2.6559501 
C    -3.3652175   -0.8797931   -1.1117231 
C    -2.6535385    1.6639598   -0.2367332 
C    -1.2151444    0.0009220    2.6134058 
C    -2.3536702   -0.5510447    1.7359074 
C     2.4980245   -0.7884679    3.6536683 
C     1.4584399   -1.8785577    3.9711111 
C    -4.4048861    0.2496718   -1.3010195 
C    -3.6320582    1.5708453   -1.4318206 
C     1.3207534    1.5235577    3.7183087 
C     1.5011545   -3.1542745    1.7214139 
C    -3.9179716   -2.2206242   -0.6176086 
C    -1.5545358    2.7233410   -0.3752651 
H     2.4983090    0.7418540    2.0847744 
H    -0.2763238   -2.6622463    2.8608274 
H    -2.8542787   -1.0299784   -2.0814709 
H    -3.2405329    1.8575861    0.6825041 
H    -1.3042680   -0.3512900    3.6564795 
H    -1.2413588    1.1047373    2.6341435 
H    -2.3941067   -1.6540356    1.7976091 
H    -3.3362543   -0.1632233    2.0590391 
H     2.9571770   -0.3846971    4.5728365 
H     3.3170093   -1.2128207    3.0474833 
H     1.9256915   -2.7816142    4.4034395 
H     0.7366468   -1.5023152    4.7204186 
H    -5.0806372    0.2872377   -0.4244464 
H    -5.0317379    0.0482521   -2.1877196 
H    -3.0606686    1.5784113   -2.3792281 
H    -4.3034522    2.4474286   -1.4470055 
H     0.6397999    1.1934955    4.5220099 
H     2.1918243    2.0064671    4.1944650 
H     0.8036427    2.2936502    3.1194991 
H     2.4835668   -2.7290463    1.4542138 
H     1.6752480   -4.1257411    2.2160694 
H     0.9454380   -3.3372969    0.7852959 
H    -3.1199397   -2.9742930   -0.4952753 
H    -4.4466931   -2.1132839    0.3456903 
H    -4.6417154   -2.6177188   -1.3507540 
H    -2.0047681    3.7234551   -0.5033810 
H    -0.9026243    2.7559053    0.5151268 
H    -0.9221780    2.5173439   -1.2552159 
