73
Energy =
C     0.4292263   -0.1989385   -2.6794112 
C     1.5981252    0.3067002   -2.0541502 
C     2.3508738   -0.5237225   -1.1714124 
H     1.8201647    1.3797815   -2.1072407 
Pd    0.2649813   -0.3396292   -0.4330872 
P     0.5072006   -0.8655269    1.8143906 
P    -1.9980384   -0.0929759    0.0278873 
H     0.3676880   -1.2927964   -2.7952782 
H     2.3397203   -1.6038199   -1.3806534 
C    -2.3425133    1.9054907   -5.2150924 
C    -2.3705673    0.5060552   -5.1217465 
C    -1.4567312   -0.1603156   -4.2956789 
C    -0.4970056    0.5559465   -3.5428031 
C    -0.4732171    1.9657346   -3.6581708 
C    -1.3862248    2.6307030   -4.4836643 
H    -3.0542601    2.4296863   -5.8606986 
H    -3.1024457   -0.0689593   -5.6982059 
H    -1.4750254   -1.2548578   -4.2369792 
H     0.2653211    2.5506607   -3.1004889 
H    -1.3503310    3.7222672   -4.5613536 
C     5.5637560    0.7176655    1.4157236 
C     5.4155710   -0.6290260    1.0506592 
C     4.3794869   -1.0147176    0.1896157 
C     3.4666649   -0.0641638   -0.3214158 
C     3.6288909    1.2900481    0.0557620 
C     4.6679674    1.6753205    0.9101142 
H     6.3732761    1.0213706    2.0870368 
H     6.1130711   -1.3817146    1.4325692 
H     4.2739391   -2.0675141   -0.0963585 
H     2.9216017    2.0463469   -0.3014592 
H     4.7765542    2.7282112    1.1904064 
C     1.8248986   -0.0956863    2.8950474 
C     0.9369949   -2.6513037    2.2566713 
C    -3.3523795   -0.5658187   -1.1874809 
C    -2.5838445    1.6801172    0.3160401 
C    -1.1480285   -0.5506239    2.6292735 
C    -2.2922865   -0.9344035    1.6722078 
C     2.1784372   -1.2168396    3.8976547 
C     2.2315959   -2.5300576    3.1020490 
C    -3.8831487    0.8201919   -1.6385475 
C    -3.9600262    1.7273857   -0.3976022 
C     1.4839937    1.2708610    3.4955547 
C     1.0461968   -3.6024985    1.0592070 
C    -4.4377351   -1.4893606   -0.6094367 
C    -1.5808018    2.7191967   -0.2103034 
H     2.6779939    0.0245948    2.2011430 
H     0.1109340   -2.9848959    2.9133848 
H    -2.8554968   -1.0723321   -2.0324296 
H    -2.7022887    1.8116223    1.4070390 
H    -1.2172799   -1.0999670    3.5849619 
H    -1.1918338    0.5283991    2.8650159 
H    -2.3133852   -2.0258613    1.4995141 
H    -3.2741547   -0.6419346    2.0841133 
H     1.4071017   -1.2743239    4.6905636 
H     3.1401908   -0.9993240    4.3952153 
H     3.1052613   -2.5072675    2.4240105 
H     2.3467963   -3.4123103    3.7556930 
H    -4.8625919    0.7141252   -2.1374357 
H    -3.1895068    1.2549823   -2.3812122 
H    -4.2207584    2.7662089   -0.6667171 
H    -4.7497592    1.3653727    0.2854025 
H     0.6590384    1.2055652    4.2264627 
H     2.3658020    1.6727999    4.0239410 
H     1.2044509    1.9987078    2.7133810 
H     1.8427151   -3.2763436    0.3683679 
H     1.2937269   -4.6216664    1.4045607 
H     0.1014379   -3.6553176    0.4905939 
H    -4.0211393   -2.4511174   -0.2651268 
H    -4.9739249   -1.0255870    0.2363285 
H    -5.1818448   -1.7115641   -1.3944529 
H    -1.9502463    3.7389306   -0.0035718 
H    -0.5937623    2.6031603    0.2716855 
H    -1.4390633    2.6208729   -1.2995832 
