73
Energy =
C     2.6407317    0.4440186    0.5189414 
C     1.8624155    0.8951104    1.6181364 
C     1.1363589   -0.0304215    2.4217540 
H     1.6715412    1.9688617    1.7379153 
Pd    0.5073728   -0.2046223    0.2846424 
P    -1.6260037   -1.1062986    0.4418475 
P     0.1856048   -0.2444800   -2.0116174 
H     3.0166931   -0.5902138    0.5677389 
H     1.5526423   -1.0446374    2.5165723 
C     4.6823924    2.8556322   -2.4099794 
C     4.9227859    1.4767566   -2.3182266 
C     4.2606815    0.7115808   -1.3491406 
C     3.3369697    1.3045736   -0.4566605 
C     3.1160339    2.6983728   -0.5542314 
C     3.7820895    3.4629450   -1.5177709 
H     5.2008540    3.4573661   -3.1631487 
H     5.6358543    0.9964615   -2.9962427 
H     4.4676928   -0.3620785   -1.2698121 
H     2.4204619    3.1949153    0.1300213 
H     3.5995706    4.5410319   -1.5739886 
C    -1.7129672    0.9947557    5.4875640 
C    -1.0666719   -0.2502054    5.4970244 
C    -0.1333700   -0.5665660    4.5010358 
C     0.1716531    0.3526803    3.4716403 
C    -0.4891759    1.6045864    3.4755592 
C    -1.4158652    1.9222883    4.4745337 
H    -2.4411035    1.2441038    6.2659561 
H    -1.2840239   -0.9758304    6.2876787 
H     0.3802006   -1.5343487    4.5261952 
H    -0.2941634    2.3284442    2.6765415 
H    -1.9157273    2.8963895    4.4601978 
C     1.5147325   -0.7086444   -3.2478833 
C    -0.2107793    1.4259091   -2.7905801 
C    -2.8891100   -0.5065959    1.7058001 
C    -1.7692296   -2.9327586    0.8659196 
C    -1.3206834   -1.3028014   -2.3285754 
C    -2.3915645   -0.9982654   -1.2649264 
C     1.3590415    0.3306311   -4.3828478 
C     0.9921982    1.6728216   -3.7320183 
C    -3.2768851   -1.7918323    2.4926166 
C    -3.1534862   -3.0072369    1.5560921 
C     1.5363513   -2.1769326   -3.6852772 
C    -0.4973560    2.5512465   -1.7902049 
C    -4.0873568    0.2371786    1.0932917 
C    -0.6070647   -3.4197918    1.7461701 
H     2.4505727   -0.4747304   -2.7061801 
H    -1.1101984    1.2444960   -3.4111670 
H    -2.3430099    0.1868236    2.3670657 
H    -1.7659991   -3.4969645   -0.0844923 
H    -1.7060531   -1.1310006   -3.3495789 
H    -0.9992264   -2.3586753   -2.2673959 
H    -2.7880984    0.0242582   -1.3950333 
H    -3.2446873   -1.6954889   -1.3416413 
H     0.5572408    0.0102878   -5.0763117 
H     2.2913886    0.3977757   -4.9709949 
H     1.8501877    2.0512387   -3.1447117 
H     0.7414042    2.4451536   -4.4804439 
H    -4.2974394   -1.6960297    2.9025358 
H    -2.5962829   -1.9079661    3.3537493 
H    -3.2690204   -3.9617301    2.1004593 
H    -3.9535241   -2.9756454    0.7925910 
H     0.6219427   -2.4502946   -4.2404190 
H     2.3960443   -2.3530131   -4.3552994 
H     1.6393241   -2.8609300   -2.8242816 
H     0.3674424    2.7118858   -1.1246029 
H    -0.6965194    3.4953549   -2.3270948 
H    -1.3765570    2.3260286   -1.1614947 
H    -3.7712390    1.1212382    0.5123295 
H    -4.6904876   -0.4127802    0.4357941 
H    -4.7443698    0.5944637    1.9053339 
H    -0.7456384   -4.4850827    2.0005875 
H     0.3589015   -3.3118122    1.2228752 
H    -0.5464348   -2.8509608    2.6895677 
