73
Energy =
C     2.6289398    0.4829869    0.5498051 
C     1.8308079    0.9205238    1.6370240 
C     1.1099983   -0.0241217    2.4279407 
H     1.6262470    1.9913324    1.7612592 
Pd    0.4915617   -0.1925175    0.2974899 
P    -1.5603001   -1.2633096    0.4637074 
P     0.1218457   -0.1781990   -1.9942084 
H     2.9879138   -0.5579134    0.5899467 
H     1.5569236   -1.0227577    2.5413122 
C     4.8204957    2.8909381   -2.2679640 
C     5.0255196    1.5053100   -2.1908081 
C     4.3063450    0.7405454   -1.2638232 
C     3.3646080    1.3415602   -0.3961443 
C     3.1794459    2.7417721   -0.4772218 
C     3.8984754    3.5051868   -1.4031647 
H     5.3823388    3.4923556   -2.9896323 
H     5.7523524    1.0194000   -2.8497810 
H     4.4806222   -0.3397972   -1.1988392 
H     2.4713164    3.2426557    0.1907156 
H     3.7432102    4.5880594   -1.4485993 
C    -1.8242743    0.9497414    5.4301873 
C    -1.1270490   -0.2664950    5.4783882 
C    -0.1655095   -0.5662377    4.5041936 
C     0.1177271    0.3415930    3.4587915 
C    -0.5947243    1.5644056    3.4232778 
C    -1.5500906    1.8655524    4.4001020 
H    -2.5749036    1.1856797    6.1911965 
H    -1.3268928   -0.9824920    6.2823385 
H     0.3868056   -1.5112137    4.5593211 
H    -0.4178638    2.2759361    2.6089440 
H    -2.0906228    2.8167313    4.3548807 
C     1.4859367   -0.4186307   -3.2664386 
C    -0.5290015    1.4533894   -2.6901644 
C    -2.8624781   -0.7884480    1.7419198 
C    -1.5379195   -3.0991669    0.8735326 
C    -1.2645987   -1.3900456   -2.3181818 
C    -2.3466180   -1.2156219   -1.2359385 
C     1.6323225    1.0060074   -3.8624235 
C     0.2213850    1.5947956   -4.0400159 
C    -3.1366282   -2.1117698    2.5132718 
C    -2.9099720   -3.3010836    1.5628290 
C     1.1991050   -1.5048750   -4.3165696 
C    -0.2979819    2.6327617   -1.7319082 
C    -4.1229667   -0.1402269    1.1460349 
C    -0.3382238   -3.4932466    1.7495336 
H     2.3967923   -0.6874794   -2.7049160 
H    -1.6146925    1.3273660   -2.8544544 
H    -2.3721666   -0.0597055    2.4090283 
H    -1.4859077   -3.6514059   -0.0824316 
H    -1.6827649   -1.2359758   -3.3284755 
H    -0.8370824   -2.4085024   -2.2863691 
H    -2.8490700   -0.2383306   -1.3462007 
H    -3.1238542   -1.9962150   -1.3166152 
H     2.1904350    0.9700885   -4.8146088 
H     2.2197241    1.6354733   -3.1691777 
H     0.2565046    2.6530284   -4.3539571 
H    -0.3198614    1.0438345   -4.8306171 
H    -4.1610568   -2.1096451    2.9247672 
H    -2.4475577   -2.1789883    3.3729956 
H    -2.9417508   -4.2682882    2.0959857 
H    -3.7110296   -3.3302911    0.8001345 
H     0.2995095   -1.2804001   -4.9151043 
H     2.0541017   -1.5722096   -5.0121050 
H     1.0661634   -2.4991184   -3.8573500 
H     0.7774664    2.7907850   -1.5459896 
H    -0.7098157    3.5595686   -2.1683477 
H    -0.7886901    2.4599137   -0.7577092 
H    -3.8862240    0.7748986    0.5757650 
H    -4.6737352   -0.8300679    0.4830902 
H    -4.8021174    0.1495741    1.9666342 
H    -0.3847562   -4.5693853    1.9914466 
H     0.6149983   -3.2968736    1.2287659 
H    -0.3271926   -2.9326984    2.6996987 
