73
Energy =
C     2.6293534    0.0840031    0.5286428 
C     1.8988744    0.5670998    1.6415349 
C     1.0699119   -0.3207778    2.3960343 
H     1.8338156    1.6475300    1.8229305 
Pd    0.4095030   -0.2972365    0.2758259 
P    -1.7532588   -1.1111433    0.4198804 
P     0.0405552   -0.0615036   -2.0048517 
H     2.8245439   -1.0005403    0.5050346 
H     1.4065495   -1.3652342    2.4723400 
C     5.1346230    2.2685570   -2.2055063 
C     4.3706702    2.9704286   -1.2574106 
C     3.5551299    2.2804535   -0.3542939 
C     3.4810498    0.8682749   -0.3819512 
C     4.2706254    0.1751831   -1.3301097 
C     5.0864113    0.8665180   -2.2342534 
H     5.7728324    2.8128548   -2.9087649 
H     4.4162347    4.0636508   -1.2192440 
H     2.9778288    2.8476661    0.3829304 
H     4.2494806   -0.9207879   -1.3455501 
H     5.6919310    0.3099458   -2.9568793 
C    -1.6723999    0.9080216    5.4874200 
C    -1.0587193   -0.3527182    5.5363646 
C    -0.1610011   -0.7392861    4.5322947 
C     0.1414189    0.1251036    3.4564910 
C    -0.4837175    1.3946666    3.4220235 
C    -1.3770791    1.7817758    4.4276343 
H    -2.3731725    1.2110454    6.2718911 
H    -1.2746099   -1.0366008    6.3637296 
H     0.3235758   -1.7205456    4.5873472 
H    -0.2846887    2.0762596    2.5867393 
H    -1.8507067    2.7680952    4.3824212 
C     1.1695013   -0.9859985   -3.1901623 
C     0.2455884    1.6077405   -2.8463307 
C    -3.0234291    0.0191831    1.2086625 
C    -2.2492165   -2.6373802    1.4075684 
C    -1.7490747   -0.5052085   -2.3430396 
C    -2.2985972   -1.5144799   -1.3254473 
C     1.4251072    0.0172348   -4.3398480 
C     1.5044125    1.4229901   -3.7219530 
C    -4.0175048   -0.9487992    1.8882089 
C    -3.1885500   -2.0850743    2.5065085 
C     0.7017225   -2.3833186   -3.6091926 
C     0.2561354    2.8016521   -1.8874945 
C    -3.6376094    1.0849094    0.2966647 
C    -1.0833180   -3.4947323    1.9086912 
H     2.1058981   -1.0774708   -2.6083381 
H    -0.6313199    1.6850477   -3.5194284 
H    -2.4408571    0.5195015    2.0065325 
H    -2.8566773   -3.2302090    0.6957819 
H    -2.2995218    0.4500395   -2.2726828 
H    -1.8628047   -0.8685767   -3.3796799 
H    -3.4007612   -1.5815750   -1.3725208 
H    -1.9003306   -2.5264049   -1.5268499 
H     0.5921362   -0.0301658   -5.0681940 
H     2.3483237   -0.2502664   -4.8839923 
H     2.4127992    1.5124843   -3.0978691 
H     1.5570221    2.2127945   -4.4918784 
H    -4.7248998   -1.3531075    1.1376251 
H    -4.6179298   -0.4142463    2.6456702 
H    -2.5840356   -1.6890930    3.3441559 
H    -3.8226135   -2.8937465    2.9104290 
H    -0.2437361   -2.3447100   -4.1784448 
H     1.4590978   -2.8523910   -4.2613527 
H     0.5563825   -3.0446344   -2.7368551 
H     1.0851801    2.7159213   -1.1663415 
H     0.3866333    3.7426402   -2.4501273 
H    -0.6894532    2.8739835   -1.3218142 
H    -2.8661929    1.7542886   -0.1234160 
H    -4.2053302    0.6355320   -0.5375221 
H    -4.3409905    1.7095430    0.8745271 
H    -1.4675555   -4.3805400    2.4440961 
H    -0.4494533   -3.8494792    1.0775671 
H    -0.4497428   -2.9246372    2.6073909 
