73
Energy =
C     2.6417693    0.4011791    0.5550827 
C     1.8558244    0.8729497    1.6368474 
C     1.1018065   -0.0415266    2.4321579 
H     1.6870264    1.9508674    1.7528520 
Pd    0.4834984   -0.2038697    0.3010310 
P    -1.6032371   -1.2046211    0.4696708 
P     0.1207557   -0.1954378   -1.9918208 
H     2.9654388   -0.6508949    0.6037543 
H     1.5144885   -1.0539654    2.5527885 
C     4.9204322    2.7139694   -2.2732833 
C     5.0791433    1.3229026   -2.1852938 
C     4.3319623    0.5892698   -1.2552740 
C     3.4080143    1.2276735   -0.3951595 
C     3.2695109    2.6326079   -0.4872392 
C     4.0163593    3.3648736   -1.4163376 
H     5.5041723    3.2910629   -2.9974305 
H     5.7914690    0.8082542   -2.8382543 
H     4.4701445   -0.4957313   -1.1816872 
H     2.5759557    3.1615262    0.1743265 
H     3.8972070    4.4519392   -1.4703084 
C    -1.8084545    1.0474533    5.4183293 
C    -1.1563476   -0.1933285    5.4728769 
C    -0.2017841   -0.5304353    4.5040304 
C     0.1193057    0.3635780    3.4575840 
C    -0.5478299    1.6115177    3.4156800 
C    -1.4961101    1.9498901    4.3872510 
H    -2.5530839    1.3129542    6.1754854 
H    -1.3858383   -0.8993989    6.2776843 
H     0.3151709   -1.4949072    4.5640362 
H    -0.3410451    2.3142920    2.6008552 
H    -2.0009803    2.9202441    4.3373700 
C     1.4798800   -0.4959899   -3.2566909 
C    -0.4703813    1.4509199   -2.7060552 
C    -2.8914530   -0.6801223    1.7425319 
C    -1.6426207   -3.0378177    0.8891614 
C    -1.3064326   -1.3607034   -2.3102200 
C    -2.3841236   -1.1409489   -1.2319151 
C     1.6758983    0.9157262   -3.8689480 
C     0.2862428    1.5504299   -4.0561555 
C    -3.2152910   -1.9903950    2.5170515 
C    -3.0238310   -3.1907450    1.5726851 
C     1.1603072   -1.5846487   -4.2947528 
C    -0.1984648    2.6315983   -1.7603155 
C    -4.1257158    0.0115131    1.1406174 
C    -0.4605501   -3.4661607    1.7729879 
H     2.3794148   -0.7883910   -2.6887160 
H    -1.5596822    1.3620134   -2.8707362 
H    -2.3771441    0.0325603    2.4089445 
H    -1.6043008   -3.5968510   -0.0635123 
H    -1.7166348   -1.1994450   -3.3226516 
H    -0.9149089   -2.3932232   -2.2701233 
H    -2.8518032   -0.1474143   -1.3498406 
H    -3.1880373   -1.8943638   -1.3093081 
H     2.2339516    0.8495506   -4.8195447 
H     2.2835258    1.5327887   -3.1819505 
H     0.3579411    2.6029970   -4.3827152 
H    -0.2724739    1.0088124   -4.8411023 
H    -4.2415283   -1.9517042    2.9221424 
H    -2.5340800   -2.0776327    3.3811601 
H    -3.0904734   -4.1540048    2.1097589 
H    -3.8217012   -3.1964541    0.8061702 
H     0.2708608   -1.3373623   -4.8994481 
H     2.0149677   -1.6892924   -4.9860998 
H     0.9923311   -2.5680854   -3.8239546 
H     0.8817746    2.7537934   -1.5751440 
H    -0.5772696    3.5675808   -2.2069823 
H    -0.6954605    2.4865293   -0.7847614 
H    -3.8540018    0.9154366    0.5680261 
H    -4.6992123   -0.6601855    0.4783484 
H    -4.7963397    0.3286823    1.9581050 
H    -0.5434951   -4.5387842    2.0207507 
H     0.5009169   -3.3042431    1.2555582 
H    -0.4353456   -2.9008515    2.7200390 
