73
Energy =
C     2.5512676    0.7737362    0.5571072 
C     1.6984532    1.1630677    1.6241830 
C     1.0661663    0.1840537    2.4435376 
H     1.3796973    2.2099046    1.7035856 
Pd    0.5159340   -0.1314323    0.3011824 
P    -1.4982492   -1.2762405    0.4443825 
P     0.2625543   -0.2875914   -1.9986856 
H     3.0459915   -0.2062123    0.6479660 
H     1.5959014   -0.7703399    2.5824808 
C     4.3680052    3.3235293   -2.4027838 
C     3.3779141    3.8447734   -1.5523370 
C     2.7820637    3.0348940   -0.5799384 
C     3.1650639    1.6813629   -0.4311221 
C     4.1767001    1.1770834   -1.2818154 
C     4.7685790    1.9868726   -2.2600654 
H     4.8313977    3.9603742   -3.1629543 
H     3.0697840    4.8909977   -1.6481071 
H     2.0140155    3.4646609    0.0712625 
H     4.5086263    0.1391012   -1.1619920 
H     5.5520904    1.5757378   -2.9049938 
C    -1.9538291    0.9700820    5.4152873 
C    -1.7469267    1.8887707    4.3722564 
C    -0.7665803    1.6484318    3.4034372 
C     0.0380654    0.4850922    3.4595447 
C    -0.1792885   -0.4266727    4.5173744 
C    -1.1648665   -0.1876526    5.4841503 
H    -2.7230357    1.1590901    6.1708337 
H    -2.3588557    2.7947344    4.3110375 
H    -0.6407825    2.3612724    2.5809639 
H     0.4441444   -1.3252052    4.5884316 
H    -1.3117985   -0.9047172    6.2984890 
C     1.6718759   -0.6380662   -3.1828190 
C    -0.2996471    1.2973133   -2.8503195 
C    -2.8551282   -0.7928462    1.6601297 
C    -1.4326375   -3.0927126    0.9278157 
C    -1.1024096   -1.5243770   -2.3104390 
C    -2.2279377   -1.3135551   -1.2810763 
C     1.4356768    0.3405359   -4.3573340 
C     0.8970081    1.6515796   -3.7651441 
C    -3.0980874   -2.0873195    2.4884436 
C    -2.8114492   -3.3101405    1.5984835 
C     1.8700524   -2.1076100   -3.5686701 
C    -0.7479305    2.4143241   -1.9013076 
C    -4.1223244   -0.2284183    0.9968738 
C    -0.2385287   -3.4096322    1.8425331 
H     2.5590009   -0.2834568   -2.6249933 
H    -1.1507776    0.9906801   -3.4896200 
H    -2.4153744   -0.0130021    2.3041810 
H    -1.3436558   -3.6823395   -0.0027283 
H    -1.4791599   -1.4316559   -3.3448156 
H    -0.6621301   -2.5328963   -2.2056427 
H    -2.7375491   -0.3493859   -1.4549032 
H    -2.9917455   -2.1082897   -1.3516664 
H     0.6986521   -0.0916981   -5.0618819 
H     2.3729883    0.4958584   -4.9202965 
H     1.6864443    2.1452908   -3.1675256 
H     0.5836742    2.3653496   -4.5473145 
H    -4.1298637   -2.1024820    2.8808651 
H    -2.4239007   -2.0896968    3.3625802 
H    -2.8223768   -4.2525294    2.1751294 
H    -3.5944586   -3.4015373    0.8220235 
H     1.0087427   -2.4991817   -4.1378141 
H     2.7636051   -2.2067494   -4.2095631 
H     2.0227401   -2.7484971   -2.6823501 
H     0.0695934    2.6965462   -1.2167292 
H    -1.0364733    3.3103479   -2.4785837 
H    -1.6160003    2.1092905   -1.2911908 
H    -3.9058809    0.6668666    0.3882874 
H    -4.6238930   -0.9722145    0.3535128 
H    -4.8377026    0.0720341    1.7821169 
H    -0.2557537   -4.4749587    2.1315432 
H     0.7180680   -3.2052135    1.3309665 
H    -0.2635488   -2.8071135    2.7665443 
