73
Energy =
C     2.5043360    0.7868635    0.5601439 
C     1.6511599    1.0859032    1.6501645 
C     1.0700387    0.0288286    2.4181504 
H     1.3004185    2.1148968    1.8007119 
Pd    0.4681796   -0.1714787    0.2897721 
P    -1.4040811   -1.5263486    0.4283758 
P     0.0932124   -0.0914656   -2.0005389 
H     2.9779647   -0.2082707    0.5678467 
H     1.6679001   -0.8879487    2.5284576 
C     4.3997311    3.4910785   -2.1998363 
C     4.7184381    2.1246332   -2.1948288 
C     4.0958483    1.2637121   -1.2827058 
C     3.1374718    1.7467742   -0.3603002 
C     2.8411749    3.1297073   -0.3663516 
C     3.4640474    3.9893400   -1.2772468 
H     4.8859010    4.1680155   -2.9094568 
H     5.4597697    1.7301555   -2.8973121 
H     4.3608539    0.1999949   -1.2716801 
H     2.1244197    3.5422870    0.3510197 
H     3.2234461    5.0573171   -1.2649941 
C    -1.9648093    0.5617305    5.4336376 
C    -1.8861422    1.4587098    4.3552545 
C    -0.9008326    1.2980998    3.3741778 
C     0.0346013    0.2385107    3.4522434 
C    -0.0538694   -0.6510715    4.5461723 
C    -1.0431393   -0.4920023    5.5256943 
H    -2.7373697    0.6870807    6.1989714 
H    -2.6008909    2.2846277    4.2762470 
H    -0.8696085    1.9896296    2.5240862 
H     0.6700172   -1.4688420    4.6351541 
H    -1.0897853   -1.1901612    6.3678797 
C     1.4456423   -0.7124320   -3.1490608 
C    -0.1322903    1.5544672   -2.8820294 
C    -2.9428306   -0.7570194    1.1722902 
C    -1.4971008   -3.1086357    1.4478538 
C    -1.5099214   -0.9982526   -2.3485212 
C    -1.7914699   -2.0956897   -1.3129678 
C     1.4460046    0.2952444   -4.3228645 
C     1.1442018    1.6863435   -3.7415794 
C    -3.6591553   -1.9402826    1.8607030 
C    -2.5717101   -2.8033121    2.5188519 
C     1.3703464   -2.1931649   -3.5345266 
C    -0.4478746    2.7303826   -1.9534215 
C    -3.7980431    0.0904524    0.2261138 
C    -0.1557063   -3.6138273    1.9873016 
H     2.3634761   -0.5393854   -2.5562845 
H    -0.9889270    1.3851907   -3.5643956 
H    -2.5290552   -0.1048168    1.9658883 
H    -1.9103536   -3.8565260    0.7428995 
H    -2.2936134   -0.2209973   -2.3075428 
H    -1.5054700   -1.3998429   -3.3772718 
H    -2.8354418   -2.4535580   -1.3718956 
H    -1.1359672   -2.9699399   -1.4841064 
H     0.6657769    0.0135525   -5.0567587 
H     2.4151779    0.2672706   -4.8519938 
H     1.9876012    2.0254313   -3.1118369 
H     1.0000762    2.4443853   -4.5315095 
H    -4.2184788   -2.5327938    1.1100187 
H    -4.3953236   -1.5692439    2.5956963 
H    -2.1111154   -2.2441736    3.3548480 
H    -2.9769963   -3.7428588    2.9336962 
H     0.4579633   -2.4190976   -4.1139421 
H     2.2354275   -2.4605886   -4.1662266 
H     1.3903154   -2.8488297   -2.6460803 
H     0.3646363    2.8807307   -1.2239441 
H    -0.5598348    3.6599686   -2.5384789 
H    -1.3872768    2.5653152   -1.3970344 
H    -3.2222332    0.9314285   -0.1990310 
H    -4.2100343   -0.5094359   -0.6048408 
H    -4.6528775    0.5181888    0.7784835 
H    -0.3016348   -4.5577426    2.5410452 
H     0.5660335   -3.8057192    1.1744502 
H     0.2896547   -2.8804927    2.6790953 
