73
Energy =
C     2.5548907    0.7222822    0.5690521 
C     1.7245041    1.0578082    1.6724895 
C     1.1058213    0.0312801    2.4420809 
H     1.4106589    2.0992582    1.8150528 
Pd    0.5039925   -0.1508925    0.3050464 
P    -1.5382016   -1.2445533    0.4467333 
P     0.2095698   -0.2265164   -1.9948934 
H     3.0468448   -0.2626822    0.6006235 
H     1.6374633   -0.9305808    2.5029341 
C     4.3148190    3.4061236   -2.3051565 
C     4.7104144    2.0619662   -2.2382174 
C     4.1381488    1.2082647   -1.2860723 
C     3.1509357    1.6752084   -0.3866534 
C     2.7729984    3.0363711   -0.4591395 
C     3.3496109    3.8899943   -1.4055026 
H     4.7628091    4.0770852   -3.0449283 
H     5.4748789    1.6789719   -2.9221355 
H     4.4670298    0.1641763   -1.2250605 
H     2.0238422    3.4372538    0.2313613 
H     3.0457489    4.9412042   -1.4423116 
C    -1.9446278    0.5160098    5.4439857 
C    -1.1897608   -0.6644826    5.3701798 
C    -0.1849934   -0.7973390    4.4027366 
C     0.0841285    0.2438901    3.4852439 
C    -0.6850161    1.4283388    3.5724117 
C    -1.6837163    1.5628020    4.5432414 
H    -2.7288678    0.6229565    6.2001435 
H    -1.3794267   -1.4828254    6.0724783 
H     0.4046241   -1.7200620    4.3544984 
H    -0.5184378    2.2442080    2.8609399 
H    -2.2682270    2.4872700    4.5944301 
C     1.5986474   -0.5813556   -3.2016314 
C    -0.3212270    1.3928631   -2.7989267 
C    -2.8695690   -0.7603310    1.6669827 
C    -1.5151155   -3.0715564    0.9229119 
C    -1.1909944   -1.4210093   -2.3194760 
C    -2.2918186   -1.2004343   -1.2655456 
C     1.3811273    0.4384527   -4.3444141 
C     0.8796277    1.7442951   -3.7093435 
C    -3.5497998   -2.1022831    2.0196777 
C    -2.4330640   -3.1465855    2.1703577 
C     1.7499450   -2.0442780   -3.6316200 
C    -0.7377083    2.4926975   -1.8159402 
C    -3.7969062    0.3761284    1.2274782 
C    -0.1135581   -3.6594524    1.1262173 
H     2.5001254   -0.2695413   -2.6414473 
H    -1.1823513    1.1244277   -3.4420492 
H    -2.2928373   -0.4264231    2.5497071 
H    -2.0120071   -3.5921636    0.0817883 
H    -1.5793005   -1.2909465   -3.3454920 
H    -0.7790852   -2.4443587   -2.2455109 
H    -2.7566064   -0.2060456   -1.3945835 
H    -3.0939143   -1.9550416   -1.3508375 
H     0.6290207    0.0468998   -5.0566993 
H     2.3187904    0.5868012   -4.9086908 
H     1.6844805    2.1992931   -3.1015252 
H     0.5808846    2.4894127   -4.4675910 
H    -4.2494190   -2.3967507    1.2130043 
H    -4.1447963   -2.0006421    2.9446163 
H    -1.8373912   -2.9127094    3.0727588 
H    -2.8289143   -4.1696484    2.2949510 
H     0.8725244   -2.3932856   -4.2038156 
H     2.6349267   -2.1516736   -4.2829680 
H     1.8903660   -2.7148097   -2.7652798 
H     0.0898736    2.7349894   -1.1282448 
H    -1.0069388    3.4116448   -2.3658038 
H    -1.6102814    2.1914162   -1.2105212 
H    -3.2268884    1.2842100    0.9627224 
H    -4.4209883    0.0877604    0.3634862 
H    -4.4763812    0.6404846    2.0562033 
H    -0.1839646   -4.7243438    1.4095755 
H     0.4957792   -3.5905534    0.2081510 
H     0.4232488   -3.1283428    1.9317753 
