96
Energy =
C     2.3642449   -1.5765005    1.0139024 
C     1.3501720   -2.5667788    1.1294127 
C     0.6580344   -3.0446727   -0.0031252 
H     1.0504414   -2.9116674    2.1260277 
Pd    0.3927968   -0.7342716    0.3045286 
P    -1.7074537   -0.4012576   -0.7747857 
P     1.2276620    1.4771367    0.3496028 
H     2.8660234   -1.4883037    0.0393882 
H     1.1075842   -2.8324391   -0.9849380 
C     4.7567157   -0.1137779    4.2776085 
C     3.5024202   -0.6896445    4.5428011 
C     2.7098080   -1.1639147    3.4945874 
C     3.1519068   -1.0726052    2.1534927 
C     4.4219204   -0.5051105    1.9045549 
C     5.2148587   -0.0286650    2.9553376 
H     5.3742639    0.2602224    5.1006069 
H     3.1411446   -0.7643624    5.5736731 
H     1.7304092   -1.5988004    3.7219311 
H     4.7889923   -0.4467047    0.8747211 
H     6.1948694    0.4087740    2.7384374 
C    -1.9432945   -6.4542111   -0.1102165 
C    -1.6061334   -5.8834689    1.1288467 
C    -0.7984650   -4.7447626    1.1833301 
C    -0.2971174   -4.1574545   -0.0037299 
C    -0.6648957   -4.7312508   -1.2434493 
C    -1.4765867   -5.8683647   -1.2964304 
H    -2.5722332   -7.3494863   -0.1491582 
H    -1.9731511   -6.3334242    2.0570916 
H    -0.5452454   -4.3172869    2.1588286 
H    -0.2967210   -4.2809170   -2.1716615 
H    -1.7460041   -6.2993318   -2.2656457 
O    -1.4276846    2.2725218    0.7146071 
C    -3.0467944    0.6334011   -0.0036628 
C     0.3849130    2.7061735   -0.7202754 
C    -2.7374323    1.8221944    0.6936163 
C    -0.9598476    2.9613216   -0.3940396 
C    -2.6601228   -1.9288720   -1.1498449 
C    -1.3942796    0.3258878   -2.4340552 
C     1.2058596    2.2872722    1.9942218 
C     2.9605239    1.5539691   -0.2650936 
C    -4.4034539    0.2391756   -0.0364926 
C     0.9515730    3.3696439   -1.8230993 
C    -3.7076895    2.5509866    1.3903050 
C    -1.7386853    3.8625774   -1.1274030 
C    -5.3891257    0.9791079    0.6309464 
C     0.1794740    4.2664600   -2.5758884 
C    -3.1187379   -2.7041639   -0.0623845 
C    -0.2278885   -0.0761350   -3.1173912 
C     1.4846045    3.6635897    2.1286287 
C     3.2639520    0.8483414   -1.4500612 
C    -3.0175021   -2.2934905   -2.4616705 
C    -2.2919330    1.2116686   -3.0575975 
C     0.8472558    1.5350297    3.1257111 
C     3.9801854    2.2704025    0.3892487 
C    -5.0415492    2.1238389    1.3623713 
C    -1.1566594    4.5123680   -2.2252962 
C    -3.9678093   -3.7930282   -0.2842161 
C     0.0398516    0.4041612   -4.4050830 
C     1.4401314    4.2642863    3.3934666 
C     4.5623903    0.8665209   -1.9752247 
C    -3.8518177   -3.4013417   -2.6784939 
C    -2.0158552    1.6983841   -4.3433166 
C     0.8040087    2.1392457    4.3889832 
C     5.2792729    2.2881778   -0.1415403 
C    -4.3388880   -4.1415970   -1.5929685 
C    -0.8532969    1.2973027   -5.0174719 
C     1.1065277    3.5018956    4.5247236 
C     5.5740664    1.5881338   -1.3197916 
H    -4.6931020   -0.6616891   -0.5833827 
H     1.9948906    3.1819801   -2.0940403 
H    -3.3980779    3.4474002    1.9351783 
H    -2.7813897    4.0409006   -0.8500288 
H    -6.4317525    0.6497597    0.5849202 
H     0.6245089    4.7755655   -3.4360701 
H    -2.8333783   -2.4343688    0.9607472 
H     0.4664226   -0.7742173   -2.6333298 
H     1.7214628    4.2662512    1.2447570 
H     2.4752614    0.2855586   -1.9625553 
H    -2.6655895   -1.7026230   -3.3129842 
H    -3.2016888    1.5255929   -2.5356000 
H     0.5870764    0.4785837    3.0064726 
H     3.7717988    2.7967410    1.3246142 
H    -5.8071800    2.6905626    1.9016943 
H    -1.7560638    5.2164369   -2.8114321 
H    -4.3301443   -4.3799742    0.5650836 
H     0.9471358    0.0860664   -4.9291325 
H     1.6588586    5.3323582    3.4955000 
H     4.7863024    0.3166675   -2.8952963 
H    -4.1309742   -3.6752288   -3.7012633 
H    -2.7129402    2.3960143   -4.8187297 
H     0.5286676    1.5457349    5.2668705 
H     6.0661054    2.8440955    0.3787544 
H    -5.0000794   -4.9971859   -1.7643419 
H    -0.6420649    1.6811166   -6.0208596 
H     1.0711340    3.9754725    5.5113899 
H     6.5902957    1.6003193   -1.7269735 
