96
Energy =
C     2.6421658   -0.7852398    1.4806295 
C     1.6075888   -1.2718356    2.3410233 
C     0.8402538   -2.3969096    1.9644968 
H     1.3128874   -0.6882668    3.2216403 
Pd    0.6730541   -0.6912542    0.4485339 
P    -1.6583892   -0.6910694    0.1264980 
P     1.3073197    0.7857976   -1.2606682 
H     3.1797250   -1.5379240    0.8888864 
H     1.2579979   -3.0382849    1.1723970 
C     4.8757543    2.8242512    2.2029897 
C     3.5973662    2.6701865    2.7646057 
C     2.8527535    1.5135357    2.5177265 
C     3.3813093    0.4693210    1.7213664 
C     4.6595456    0.6477718    1.1455042 
C     5.3987221    1.8132998    1.3835073 
H     5.4564589    3.7317587    2.3977117 
H     3.1740689    3.4631832    3.3892128 
H     1.8454449    1.4243774    2.9385976 
H     5.0802960   -0.1424130    0.5149834 
H     6.3915514    1.9263991    0.9357409 
C    -2.1949679   -4.4027121    4.2424623 
C    -1.8375149   -4.8598829    2.9651060 
C    -0.8645410   -4.1780333    2.2263778 
C    -0.2333229   -3.0233057    2.7466819 
C    -0.6240179   -2.5595177    4.0243240 
C    -1.5885099   -3.2480932    4.7646302 
H    -2.9453933   -4.9416842    4.8299236 
H    -2.3091146   -5.7557695    2.5484104 
H    -0.5784581   -4.5443842    1.2341607 
H    -0.1611142   -1.6656845    4.4522687 
H    -1.8712676   -2.8819464    5.7564101 
O    -0.6674728    2.0778929    0.5739844 
C    -2.3088486    0.8507751   -0.6735581 
C     1.4692045    2.4588545   -0.5089847 
C    -1.7300473    2.0925935   -0.3295284 
C     0.4316553    2.9050784    0.3454258 
C    -2.3236314   -2.1119875   -0.8226563 
C    -2.5458901   -0.7095448    1.7474192 
C     2.8811569    0.4337316   -2.1493157 
C     0.1722170    0.9586024   -2.6983796 
C    -3.3328471    0.8580516   -1.6407771 
C     2.6189432    3.2643859   -0.6233500 
C    -2.2000517    3.2983330   -0.8636926 
C     0.5242448    4.1129428    1.0434695 
C    -3.7989060    2.0562283   -2.1973059 
C     2.7103801    4.4856718    0.0584057 
C    -3.7035143   -2.3441768   -1.0221999 
C    -2.3122514    0.3568790    2.6454461 
C     3.5709308   -0.7681496   -1.9067408 
C    -0.2761439   -0.2334943   -3.3018416 
C    -1.3939689   -3.0356919   -1.3435496 
C    -3.4148291   -1.7499819    2.1290071 
C     3.3413310    1.2987385   -3.1667963 
C    -0.1928531    2.1996848   -3.2494425 
C    -3.2456361    3.2783733   -1.7937612 
C     1.6648604    4.9134777    0.8871486 
C    -4.1331395   -3.4639878   -1.7469751 
C    -2.9778562    0.4002845    3.8768609 
C     4.7285541   -1.0833525   -2.6333399 
C    -1.0889130   -0.1852464   -4.4398840 
C    -1.8262522   -4.1559976   -2.0665237 
C    -4.0805881   -1.6950038    3.3620099 
C     4.5046534    0.9883840   -3.8815719 
C    -1.0098401    2.2426907   -4.3889602 
C    -3.1971671   -4.3682549   -2.2731757 
C    -3.8747637   -0.6181765    4.2338078 
C     5.2039796   -0.1993271   -3.6117260 
C    -1.4584472    1.0548556   -4.9842612 
H    -3.7572627   -0.0865069   -1.9877190 
H     3.4642183    2.9224157   -1.2257949 
H    -1.7305096    4.2397033   -0.5655185 
H    -0.2958706    4.4059280    1.7054251 
H    -4.5919099    2.0290653   -2.9505287 
H     3.6151865    5.0920405   -0.0442091 
H    -4.4462047   -1.6606392   -0.5987212 
H    -1.6175832    1.1569891    2.3739109 
H     3.1870537   -1.4666631   -1.1576603 
H     0.0132052   -1.2009910   -2.8790453 
H    -0.3231983   -2.8699370   -1.1707075 
H    -3.5696464   -2.6144056    1.4790201 
H     2.7806678    2.2065641   -3.4144459 
H     0.1491664    3.1300694   -2.7841406 
H    -3.6131587    4.2193273   -2.2152940 
H     1.7409420    5.8619442    1.4282129 
H    -5.2044591   -3.6333530   -1.8967323 
H    -2.7981462    1.2385417    4.5584526 
H     5.2551761   -2.0230537   -2.4371046 
H    -1.4366967   -1.1166794   -4.8983967 
H    -1.0924528   -4.8636182   -2.4660489 
H    -4.7555610   -2.5101206    3.6419320 
H     4.8589139    1.6692837   -4.6623758 
H    -1.3001741    3.2111919   -4.8089691 
H    -3.5381225   -5.2419727   -2.8381529 
H    -4.4003974   -0.5781731    5.1934509 
H     6.1091109   -0.4422471   -4.1777963 
H    -2.0981907    1.0954892   -5.8718687 
