96
Energy =
C     2.6957116   -1.0069850    1.2234401 
C     1.6729539   -1.5322606    2.0674439 
C     0.8080222   -2.5568144    1.6179323 
H     1.4771608   -1.0369357    3.0270506 
Pd    0.6741811   -0.6637777    0.3260970 
P    -1.6700286   -0.6466133    0.1321442 
P     1.2348974    0.9687979   -1.2958149 
H     3.1468661   -1.6835108    0.4824209 
H     1.1418093   -3.1384068    0.7447608 
C     5.1726155    2.2961275    2.4465879 
C     3.7784119    2.3697429    2.6043302 
C     2.9714833    1.2912903    2.2254706 
C     3.5409663    0.1250568    1.6655223 
C     4.9439438    0.0602073    1.5192371 
C     5.7524981    1.1345477    1.9128396 
H     5.8044059    3.1409599    2.7395291 
H     3.3172672    3.2752256    3.0117208 
H     1.8815471    1.3646969    2.3205450 
H     5.3987208   -0.8355819    1.0831963 
H     6.8393491    1.0680561    1.7960030 
C    -2.1849972   -4.6010595    3.9212541 
C    -1.9177750   -4.9799015    2.5972176 
C    -0.9566270   -4.2875269    1.8526254 
C    -0.2491080   -3.1973664    2.4120124 
C    -0.5475989   -2.8127460    3.7405090 
C    -1.4981355   -3.5137111    4.4866423 
H    -2.9261709   -5.1492038    4.5119789 
H    -2.4495876   -5.8245745    2.1473315 
H    -0.7394655   -4.5979257    0.8254311 
H    -0.0265065   -1.9689398    4.2013702 
H    -1.7084385   -3.2084308    5.5162681 
O    -0.7260471    2.1228339    0.6822868 
C    -2.3557923    0.9067019   -0.6051641 
C     1.2760551    2.6650298   -0.5703207 
C    -1.7863372    2.1424517   -0.2287748 
C     0.3266164    2.9974447    0.4237356 
C    -2.4047819   -2.0368590   -0.8154814 
C    -2.4549911   -0.7129030    1.8068816 
C     2.8784313    0.7436907   -2.1009361 
C     0.0762631    1.0345100   -2.7214691 
C    -3.3702429    0.9299383   -1.5829734 
C     2.2769126    3.6145003   -0.8624111 
C    -2.2523481    3.3562364   -0.7506484 
C     0.4263566    4.1729874    1.1742616 
C    -3.8345244    2.1359657   -2.1223482 
C     2.3652574    4.8123795   -0.1396250 
C    -3.7977418   -2.2276152   -0.9628869 
C    -2.0715196    0.2588522    2.7591724 
C     2.9762723    0.1471572   -3.3763891 
C    -0.4217334   -0.1830278   -3.2269649 
C    -1.5257067   -2.9717033   -1.3993151 
C    -3.3890529   -1.7002487    2.1757211 
C     4.0625808    1.0853035   -1.4117847 
C    -0.2893355    2.2445878   -3.3392085 
C    -3.2873661    3.3515595   -1.6922059 
C     1.4595895    5.0799232    0.8968850 
C    -4.2890774   -3.3197695   -1.6909391 
C    -2.6534016    0.2678808    4.0331508 
C     4.2332725   -0.1047473   -3.9436091 
C    -1.2726020   -0.1943524   -4.3389871 
C    -2.0185549   -4.0630203   -2.1276823 
C    -3.9696930   -1.6807808    3.4519530 
C     5.3146666    0.8360257   -1.9880821 
C    -1.1493358    2.2298715   -4.4465058 
C    -3.4022917   -4.2365872   -2.2767132 
C    -3.6147400   -0.6933956    4.3799377 
C     5.4052512    0.2367197   -3.2529447 
C    -1.6393255    1.0148572   -4.9488806 
H    -3.7845485   -0.0090937   -1.9555579 
H     3.0052915    3.4076013   -1.6515501 
H    -1.7910333    4.2941810   -0.4303515 
H    -0.3192759    4.3694434    1.9501986 
H    -4.6184610    2.1198425   -2.8853042 
H     3.1534881    5.5317759   -0.3816742 
H    -4.5035707   -1.5300455   -0.5011513 
H    -1.3281595    1.0153913    2.4949295 
H     2.0739398   -0.1127792   -3.9374962 
H    -0.1423929   -1.1246258   -2.7448449 
H    -0.4443664   -2.8402090   -1.2718884 
H    -3.6557714   -2.5031044    1.4850888 
H     4.0131180    1.5600730   -0.4296781 
H     0.0867017    3.1961213   -2.9494810 
H    -3.6512651    4.2996214   -2.1006924 
H     1.5417933    6.0041259    1.4777984 
H    -5.3701787   -3.4559987   -1.7980628 
H    -2.3552138    1.0337481    4.7570397 
H     4.2932175   -0.5631903   -4.9361396 
H    -1.6551573   -1.1470372   -4.7195508 
H    -1.3214031   -4.7786202   -2.5757304 
H    -4.6945598   -2.4557732    3.7210687 
H     6.2202792    1.1135015   -1.4386844 
H    -1.4405284    3.1748784   -4.9163756 
H    -3.7909208   -5.0879588   -2.8449662 
H    -4.0733720   -0.6809880    5.3740817 
H     6.3847522    0.0424949   -3.7018960 
H    -2.3117574    1.0117894   -5.8129610 
