96
Energy =
C     2.0344015   -1.9671765    1.3139011 
C     0.8760247   -2.7615262    1.1585190 
C     0.4066331   -3.1298291   -0.1391951 
H     0.2611762   -3.0073986    2.0344264 
Pd    0.4096968   -0.9084232    0.0821806 
P    -0.7640486   -0.3061587   -1.8976404 
P     0.6424667    1.1945500    1.1459716 
H     2.7231131   -1.9265536    0.4557530 
H     1.1544133   -3.2649483   -0.9346853 
C     3.9155802   -0.8101138    4.9956128 
C     4.6334123   -0.8185449    3.7905401 
C     3.9941904   -1.1706175    2.5974707 
C     2.6296039   -1.5417490    2.5876708 
C     1.9174287   -1.5245717    3.8099005 
C     2.5539489   -1.1573283    4.9987587 
H     4.4127545   -0.5306907    5.9302377 
H     5.6920837   -0.5416729    3.7780344 
H     4.5556895   -1.1659751    1.6572714 
H     0.8587182   -1.7953210    3.8348228 
H     1.9865916   -1.1464835    5.9350282 
C    -3.2392754   -5.3724874   -0.6000342 
C    -3.2141448   -4.2396158    0.2320375 
C    -2.0308491   -3.5100727    0.3880179 
C    -0.8526848   -3.8894631   -0.2963747 
C    -0.8937279   -5.0236185   -1.1346699 
C    -2.0744711   -5.7646301   -1.2761849 
H    -4.1647773   -5.9449284   -0.7204041 
H    -4.1227173   -3.9220523    0.7541496 
H    -2.0248401   -2.6072106    1.0107188 
H     0.0074457   -5.3227737   -1.6801041 
H    -2.0869973   -6.6467547   -1.9248745 
O    -1.9967845    1.4848978    0.1960565 
C    -2.5328668    0.2198416   -1.7858508 
C     0.0277354    2.6980339    0.2897277 
C    -2.9503524    1.0163129   -0.6956682 
C    -1.3184386    2.6547774   -0.1242584 
C     0.1352430    1.0987333   -2.6722907 
C    -0.7727178   -1.5826210   -3.2297711 
C    -0.3856786    1.2060257    2.6747172 
C     2.3444018    1.6658685    1.6546416 
C    -3.5177703   -0.1836962   -2.7130161 
C     0.7817525    3.8527853    0.0155430 
C    -4.2972225    1.3250378   -0.4772238 
C    -1.9180237    3.7319077   -0.7857317 
C    -4.8659683    0.1491512   -2.5219686 
C     0.1961020    4.9357163   -0.6564622 
C     1.5436823    1.0985670   -2.5972632 
C    -1.6545216   -2.6829305   -3.1451331 
C    -1.0623726    0.0387944    3.0721583 
C     3.3390390    1.6917018    0.6527952 
C    -0.5221593    2.1344948   -3.3596165 
C     0.1137350   -1.4964508   -4.3246936 
C    -0.5654802    2.3950651    3.4112514 
C     2.6914473    1.9984653    2.9773137 
C    -5.2609206    0.8825746   -1.3937073 
C    -1.1484392    4.8739211   -1.0504408 
C     2.2851943    2.1234757   -3.1978593 
C    -1.6622326   -3.6598459   -4.1499688 
C    -1.8784702    0.0435008    4.2111260 
C     4.6484196    2.0802522    0.9625952 
C     0.2228759    3.1677276   -3.9456857 
C     0.1131808   -2.4888295   -5.3146808 
C    -1.3780530    2.3970959    4.5531564 
C     4.0057395    2.3810795    3.2830165 
C     1.6230414    3.1647043   -3.8666597 
C    -0.7776150   -3.5692650   -5.2340004 
C    -2.0303965    1.2215649    4.9576253 
C     4.9829768    2.4324167    2.2796510 
H    -3.2294885   -0.7689373   -3.5903975 
H     1.8295031    3.9027033    0.3270917 
H    -4.5652434    1.9192954    0.4010531 
H    -2.9644606    3.6727570   -1.0972113 
H    -5.6098221   -0.1749021   -3.2563503 
H     0.7916245    5.8287366   -0.8687410 
H     2.0548547    0.2827113   -2.0700652 
H    -2.3496262   -2.7741797   -2.3052564 
H    -0.9605159   -0.8693886    2.4666650 
H     3.0802258    1.4215319   -0.3755061 
H    -1.6148131    2.1408667   -3.4265532 
H     0.7975278   -0.6479056   -4.4170939 
H    -0.0793118    3.3214350    3.0859850 
H     1.9465327    1.9438074    3.7755516 
H    -6.3164443    1.1240748   -1.2329926 
H    -1.6076665    5.7209665   -1.5702538 
H     3.3787022    2.1134562   -3.1396763 
H    -2.3606600   -4.4990161   -4.0735546 
H    -2.4025867   -0.8700988    4.5109052 
H     5.4086761    2.1075640    0.1748163 
H    -0.2956569    3.9799961   -4.4650506 
H     0.8043231   -2.4064630   -6.1599172 
H    -1.5091998    3.3222147    5.1240427 
H     4.2654892    2.6307150    4.3167696 
H     2.1992760    3.9740019   -4.3266935 
H    -0.7843588   -4.3362120   -6.0153737 
H    -2.6681948    1.2281375    5.8476617 
H     6.0063924    2.7354194    2.5238644 
