96
Energy =
C     2.8541651   -0.9832321   -0.9503858 
C     2.2189705   -2.1799263   -0.5556291 
C     1.0380555   -2.6288616   -1.2299194 
H     2.5547289   -2.7011211    0.3505018 
Pd    0.6688338   -0.6348959   -0.3066699 
P    -1.6447821   -0.6840759   -0.7681650 
P     0.8540095    1.4742175    0.7380792 
H     2.5691935   -0.5626037   -1.9279406 
H     0.9628921   -2.3939612   -2.2994973 
C     6.3797467    0.7810551    0.7481072 
C     6.0743748   -0.5604530    1.0297436 
C     4.9353683   -1.1558024    0.4777275 
C     4.0827241   -0.4181671   -0.3752784 
C     4.4246895    0.9188596   -0.6830656 
C     5.5539236    1.5170738   -0.1161082 
H     7.2670889    1.2459891    1.1894211 
H     6.7308134   -1.1459455    1.6817198 
H     4.7144736   -2.2045839    0.7015565 
H     3.7808254    1.4943179   -1.3569810 
H     5.7948500    2.5588411   -0.3519678 
C    -1.0760917   -6.1858034   -0.0629612 
C    -0.5219538   -5.3517313    0.9227756 
C     0.1453067   -4.1791570    0.5578312 
C     0.2766264   -3.8183090   -0.8037075 
C    -0.3184615   -4.6458256   -1.7822381 
C    -0.9792733   -5.8251403   -1.4149467 
H    -1.5930749   -7.1069371    0.2249839 
H    -0.6199980   -5.6142306    1.9809297 
H     0.5520987   -3.5214991    1.3346157 
H    -0.2426707   -4.3668491   -2.8392384 
H    -1.4179968   -6.4654004   -2.1873786 
O    -0.7680762    1.8368646   -1.7557303 
C    -2.5813314    0.8885674   -0.5618054 
C     1.1021362    2.7800040   -0.5404860 
C    -2.0017953    2.0334710   -1.1475649 
C     0.2358339    2.7930366   -1.6615168 
C    -2.5913428   -1.9471051    0.1603499 
C    -1.9684228   -0.9821319   -2.5604691 
C    -0.5624233    2.0145487    1.7830721 
C     2.1908542    1.6671339    1.9883818 
C    -3.8412841    1.0142973    0.0502683 
C     2.1931583    3.6746233   -0.5461526 
C    -2.6546312    3.2700515   -1.1501108 
C     0.4366198    3.6657433   -2.7366950 
C    -4.4966143    2.2540953    0.0748280 
C     2.3937507    4.5604914   -1.6145324 
C    -2.7663951   -1.7575366    1.5492417 
C    -0.9303583   -0.8535602   -3.5019524 
C    -1.1508889    3.2879364    1.7051469 
C     2.8822742    0.5241376    2.4257278 
C    -3.0509370   -3.1387622   -0.4343864 
C    -3.2853565   -1.2138878   -3.0124847 
C    -0.9806648    1.1114246    2.7816150 
C     2.4240544    2.9055325    2.6266033 
C    -3.9075637    3.3740865   -0.5299824 
C     1.5159757    4.5599871   -2.7080738 
C    -3.4136775   -2.7295126    2.3208074 
C    -1.1918335   -1.0025709   -4.8714470 
C    -2.1756107    3.6395821    2.5965603 
C     3.8323815    0.6211592    3.4522611 
C    -3.6940511   -4.1100493    0.3457213 
C    -3.5422548   -1.3701373   -4.3803726 
C    -1.9971117    1.4702599    3.6749286 
C     3.3802536    3.0004188    3.6443818 
C    -3.8805992   -3.9091478    1.7198612 
C    -2.4955254   -1.2727832   -5.3112184 
C    -2.6030701    2.7332697    3.5768739 
C     4.0911848    1.8599868    4.0532854 
H    -4.3122252    0.1386667    0.5072379 
H     2.9078930    3.6616325    0.2811411 
H    -2.1803708    4.1371736   -1.6187361 
H    -0.2496308    3.6195943   -3.5872081 
H    -5.4730228    2.3410296    0.5608392 
H     3.2457797    5.2471098   -1.5933133 
H    -2.4079884   -0.8388042    2.0223138 
H     0.0800874   -0.6063404   -3.1604307 
H    -0.8162640    4.0027710    0.9468590 
H     2.6676042   -0.4440587    1.9629519 
H    -2.9006468   -3.3204795   -1.5011886 
H    -4.1120789   -1.2665282   -2.2959621 
H    -0.4932175    0.1324701    2.8657142 
H     1.8413558    3.7901264    2.3475102 
H    -4.4251756    4.3386775   -0.5216578 
H     1.6761357    5.2459450   -3.5458997 
H    -3.5541006   -2.5645532    3.3943093 
H    -0.3764919   -0.9003947   -5.5951857 
H    -2.6404908    4.6279558    2.5218191 
H     4.3711946   -0.2738530    3.7782901 
H    -4.0422403   -5.0328838   -0.1282781 
H    -4.5652867   -1.5601899   -4.7211410 
H    -2.3154779    0.7655076    4.4503921 
H     3.5600215    3.9642950    4.1317068 
H    -4.3845449   -4.6710160    2.3234904 
H    -2.7000737   -1.3933779   -6.3800896 
H    -3.4021760    3.0131181    4.2708825 
H     4.8353180    1.9370406    4.8527842 
