96
Energy =
C     2.2342862   -1.9636539   -1.1163484 
C     1.7566859   -2.4862046    0.1077572 
C     0.4414192   -3.0275908    0.2179463 
H     2.3550075   -2.3623911    1.0194244 
Pd    0.3558068   -0.8648268   -0.3602360 
P    -1.9430760   -0.5372283    0.1723816 
P     1.1952674    1.3011838   -0.7964363 
H     1.6882237   -2.2553392   -2.0271501 
H     0.0096397   -3.5046456   -0.6739385 
C     6.1645198   -0.4277253   -1.9207010 
C     5.1973615   -0.4858243   -2.9350694 
C     3.9195354   -0.9808817   -2.6547090 
C     3.5762303   -1.4153728   -1.3527287 
C     4.5614962   -1.3437496   -0.3393235 
C     5.8411219   -0.8610253   -0.6240250 
H     7.1689517   -0.0504134   -2.1385914 
H     5.4413132   -0.1548085   -3.9496528 
H     3.1753119   -1.0384217   -3.4546619 
H     4.3335352   -1.6784294    0.6763799 
H     6.5921625   -0.8202464    0.1708361 
C    -1.0682068   -4.4268227    3.9995455 
C    -0.3757530   -3.2064527    3.9311348 
C     0.1121593   -2.7461053    2.7042640 
C    -0.0891773   -3.4901332    1.5188612 
C    -0.7944258   -4.7085872    1.6007561 
C    -1.2729076   -5.1753718    2.8314369 
H    -1.4501402   -4.7889864    4.9596058 
H    -0.2215969   -2.6102338    4.8366138 
H     0.6349333   -1.7841001    2.6524846 
H    -0.9646803   -5.2940921    0.6916356 
H    -1.8157171   -6.1250890    2.8759265 
O    -1.4018133    1.8891860   -1.5636980 
C    -3.0843140    0.2377808   -1.0725106 
C     0.2087531    2.6542151   -0.0506535 
C    -2.6778311    1.3945729   -1.7710063 
C    -1.1253475    2.7250050   -0.4984933 
C    -2.2192735    0.4953613    1.6681132 
C    -2.8285024   -2.1155326    0.5086390 
C     2.8293063    1.5095234    0.0199124 
C     1.3805074    1.7940313   -2.5521996 
C    -4.3769383   -0.2634012   -1.3394091 
C     0.6222275    3.5109023    0.9849072 
C    -3.4953032    2.0155980   -2.7215307 
C    -2.0591420    3.5799434    0.0945582 
C    -5.2121435    0.3608480   -2.2767044 
C    -0.2977402    4.3881908    1.5771971 
C    -1.1303074    0.8304298    2.4923679 
C    -3.4063239   -2.4136749    1.7552387 
C     2.9381707    1.0615291    1.3554573 
C     1.1178193    0.8505612   -3.5623805 
C    -3.5107514    0.9565630    2.0000366 
C    -2.9317158   -3.0479361   -0.5472025 
C     3.9413179    2.1109217   -0.5963485 
C     1.7087396    3.1191565   -2.9045310 
C    -4.7710354    1.4943470   -2.9746735 
C    -1.6327128    4.4072189    1.1441621 
C    -1.3248992    1.6130441    3.6383033 
C    -4.1060499   -3.6175744    1.9323154 
C     4.1241367    1.2520649    2.0751681 
C     1.2192863    1.2140994   -4.9119386 
C    -3.7029882    1.7325806    3.1494551 
C    -3.6423895   -4.2404610   -0.3681312 
C     5.1306862    2.2908677    0.1253508 
C     1.8140519    3.4785302   -4.2550704 
C    -2.6111968    2.0621966    3.9690048 
C    -4.2373010   -4.5242018    0.8722871 
C     5.2218551    1.8753775    1.4612323 
C     1.5758945    2.5261454   -5.2587388 
H    -4.7343502   -1.1519426   -0.8115591 
H     1.6570411    3.4769447    1.3392672 
H    -3.1152777    2.8958820   -3.2476973 
H    -3.0961204    3.5899492   -0.2526388 
H    -6.2104140   -0.0468820   -2.4636034 
H     0.0255546    5.0494510    2.3868128 
H    -0.1269233    0.4894500    2.2176642 
H    -3.3111117   -1.7126834    2.5893413 
H     2.0843122    0.5644549    1.8319174 
H     0.8125330   -0.1645249   -3.2840329 
H    -4.3630963    0.7134210    1.3566627 
H    -2.4756946   -2.8264708   -1.5197940 
H     3.8890255    2.4278041   -1.6416209 
H     1.8675604    3.8717091   -2.1240417 
H    -5.4185575    1.9747503   -3.7150182 
H    -2.3537330    5.0772779    1.6230218 
H    -0.4689449    1.8803388    4.2661407 
H    -4.5473266   -3.8443612    2.9080336 
H     4.1932075    0.9105537    3.1132841 
H     1.0109529    0.4758655   -5.6934175 
H    -4.7074840    2.0864500    3.4037257 
H    -3.7327016   -4.9496777   -1.1975552 
H     5.9922814    2.7550385   -0.3652945 
H     2.0736463    4.5075380   -4.5247566 
H    -2.7638720    2.6763835    4.8625395 
H    -4.7922615   -5.4573720    1.0131692 
H     6.1512172    2.0246559    2.0204867 
H     1.6545175    2.8115560   -6.3129409 
