96
Energy =
C     2.8990774   -0.9221991   -0.8634681 
C     2.2953870   -2.1239832   -0.4369454 
C     1.1397874   -2.6343653   -1.1120669 
H     2.6330820   -2.6026698    0.4917155 
Pd    0.6900587   -0.6248713   -0.2656859 
P    -1.6098870   -0.7653100   -0.7725837 
P     0.7878294    1.5254088    0.7059214 
H     2.6167240   -0.5438162   -1.8587835 
H     1.0738590   -2.4409095   -2.1905728 
C     6.3366707    1.0130467    0.8291696 
C     5.5042549    1.6908244   -0.0753826 
C     4.4048108    1.0369937   -0.6394739 
C     4.0987660   -0.2981434   -0.2886207 
C     4.9584066   -0.9771692    0.6051615 
C     6.0677716   -0.3263332    1.1548198 
H     7.2009097    1.5215242    1.2683169 
H     5.7167020    2.7306558   -0.3447474 
H     3.7566016    1.5667393   -1.3458584 
H     4.7669465   -2.0240505    0.8624954 
H     6.7296181   -0.8665757    1.8395580 
C    -0.8667862   -6.2198006    0.1541195 
C    -0.3606115   -5.3297580    1.1163931 
C     0.2702898   -4.1479200    0.7181061 
C     0.4128067   -3.8336787   -0.6538289 
C    -0.1346223   -4.7183972   -1.6098335 
C    -0.7594334   -5.9063523   -1.2088219 
H    -1.3547416   -7.1481656    0.4683138 
H    -0.4679887   -5.5559047    2.1820257 
H     0.6397311   -3.4474322    1.4758789 
H    -0.0496324   -4.4768427   -2.6753096 
H    -1.1617833   -6.5902630   -1.9634478 
O    -0.7853929    1.7453701   -1.8343646 
C    -2.5985624    0.7842536   -0.6502337 
C     1.0261881    2.7908019   -0.6146864 
C    -2.0396888    1.9246847   -1.2642518 
C     0.1856243    2.7362069   -1.7537822 
C    -2.5365184   -2.0199464    0.1865695 
C    -1.8822183   -1.1432951   -2.5583985 
C    -0.6676779    2.0611942    1.6980670 
C     2.0914901    1.8053727    1.9744928 
C    -3.8775778    0.8922632   -0.0753256 
C     2.0882983    3.7193504   -0.6286240 
C    -2.7301956    3.1389523   -1.3293119 
C     0.3841742    3.5752199   -2.8558465 
C    -4.5715761    2.1104282   -0.1140670 
C     2.2862545    4.5717084   -1.7244444 
C    -2.9348918   -3.2534970   -0.3654276 
C    -3.1768998   -1.4504944   -3.0292364 
C    -1.2939414    3.3108404    1.5558541 
C     2.8175811    0.7039782    2.4597234 
C    -2.7547441   -1.7769180    1.5609579 
C    -0.8300802   -0.9995765   -3.4821194 
C    -1.0815230    1.1847967    2.7220366 
C     2.2674275    3.0716809    2.5752481 
C    -4.0015504    3.2257821   -0.7451278 
C     1.4345190    4.5036699   -2.8363737 
C    -3.5597210   -4.2147057    0.4415572 
C    -3.3957923   -1.6646061   -4.3959638 
C    -2.3512994    3.6634260    2.4078959 
C     3.7460041    0.8700188    3.4972435 
C    -3.3834490   -2.7393922    2.3593358 
C    -1.0539671   -1.2067179   -4.8506715 
C    -2.1310814    1.5448500    3.5757475 
C     3.2024936    3.2355866    3.6037965 
C    -3.7887494   -3.9618183    1.8005934 
C    -2.3340869   -1.5509497   -5.3077258 
C    -2.7744284    2.7824291    3.4128351 
C     3.9485176    2.1365807    4.0608698 
H    -4.3326815    0.0198038    0.4032694 
H     2.7827953    3.7596341    0.2149279 
H    -2.2711017    4.0028581   -1.8185042 
H    -0.2803757    3.4767505   -3.7190531 
H    -5.5628463    2.1837778    0.3432479 
H     3.1163642    5.2848348   -1.7102055 
H    -2.7502404   -3.4755923   -1.4190558 
H    -4.0164371   -1.5162777   -2.3289111 
H    -0.9630320    4.0064072    0.7782369 
H     2.6467933   -0.2861697    2.0260280 
H    -2.4434569   -0.8253282    2.0013777 
H     0.1603204   -0.6954042   -3.1281278 
H    -0.5661140    0.2259798    2.8563529 
H     1.6569952    3.9239631    2.2575772 
H    -4.5486278    4.1731257   -0.7858446 
H     1.5926423    5.1637718   -3.6950908 
H    -3.8598994   -5.1702846    0.0008030 
H    -4.4014041   -1.9124973   -4.7510954 
H    -2.8449091    4.6326046    2.2831006 
H     4.3119209    0.0069527    3.8612325 
H    -3.5575476   -2.5335515    3.4207722 
H    -0.2280469   -1.0921466   -5.5604235 
H    -2.4465314    0.8607742    4.3706774 
H     3.3387307    4.2209868    4.0612564 
H    -4.2783269   -4.7159877    2.4253408 
H    -2.5090827   -1.7170501   -6.3757381 
H    -3.5993818    3.0627058    4.0757206 
H     4.6759180    2.2675492    4.8687229 
