96
Energy =
C    -0.9518443   -2.4516645    1.6944838 
C     0.4525824   -2.5549495    1.7926759 
C     1.2245720   -1.5056061    2.3811257 
H     0.9744117   -3.3879951    1.3041517 
Pd    0.1324971   -0.7158251    0.6190322 
P     1.2505997    1.3452090    0.5888063 
P    -1.4161192   -0.2871058   -1.1134825 
H    -1.4423143   -1.6916033    2.3228319 
H     0.7462533   -0.9075222    3.1709701 
C    -3.6914019   -5.3018551    0.0152453 
C    -4.1423270   -4.0580725    0.4823866 
C    -3.2382539   -3.1523942    1.0468095 
C    -1.8609317   -3.4595227    1.1324884 
C    -1.4245394   -4.7272404    0.6807893 
C    -2.3318365   -5.6371555    0.1306221 
H    -4.3972173   -6.0147796   -0.4229359 
H    -5.2032092   -3.7955273    0.4138785 
H    -3.5943786   -2.1877254    1.4219165 
H    -0.3698103   -5.0088501    0.7643987 
H    -1.9792715   -6.6163824   -0.2093572 
C     5.5225068   -1.6429906    2.5868599 
C     4.7712560   -1.1702346    3.6722184 
C     3.3736591   -1.1139039    3.5906883 
C     2.7011360   -1.5496197    2.4288155 
C     3.4707500   -2.0319303    1.3450682 
C     4.8661430   -2.0722613    1.4202831 
H     6.6152589   -1.6772115    2.6462515 
H     5.2747527   -0.8342214    4.5846873 
H     2.7923260   -0.7285888    4.4347689 
H     2.9667615   -2.3543134    0.4267531 
H     5.4470782   -2.4339133    0.5654912 
O    -1.6693388    1.6252667    1.2049649 
C     0.1408732    2.7297941    0.0620062 
C    -2.9818989    0.1945499   -0.2628902 
C    -1.2151839    2.7138234    0.4545811 
C    -2.8986585    1.0649806    0.8520411 
C     2.7476699    1.4171226   -0.4644783 
C     1.8120148    1.8980034    2.2556840 
C    -1.0863245    1.0329281   -2.3532370 
C    -1.8173670   -1.6930374   -2.2251696 
C     0.5777024    3.8067793   -0.7346100 
C    -4.2346806   -0.3807148   -0.5559045 
C    -2.0866418    3.7613149    0.1295043 
C    -4.0077790    1.3243698    1.6635807 
C    -0.2899100    4.8491047   -1.0829149 
C    -5.3585535   -0.1025023    0.2361375 
C     3.6279304    2.5225918   -0.4684929 
C     3.1679726    1.8303266    2.6332123 
C     0.1403856    0.9810910   -3.0449254 
C    -2.7114732   -1.5391673   -3.3080360 
C     3.0463973    0.2980941   -1.2665857 
C     0.8544861    2.3418168    3.1952724 
C    -2.0264616    2.0274257   -2.6785293 
C    -1.1526285   -2.9184773   -2.0440770 
C    -1.6179532    4.8354936   -0.6347394 
C    -5.2441935    0.7389265    1.3516573 
C     4.7642696    2.5129646   -1.2877352 
C     3.5637177    2.2451085    3.9142458 
C     0.4321693    1.9249330   -4.0360095 
C    -2.9675390   -2.6180677   -4.1625126 
C     4.1851259    0.2905949   -2.0833695 
C     1.2567891    2.7396735    4.4757291 
C    -1.7299251    2.9706125   -3.6736710 
C    -1.4066245   -3.9944171   -2.9063787 
C     5.0413671    1.4010651   -2.0993316 
C     2.6141836    2.7025532    4.8360631 
C    -0.5024367    2.9243012   -4.3497883 
C    -2.3202521   -3.8483277   -3.9588050 
H     1.6038905    3.8204348   -1.1091133 
H    -4.3242483   -1.0826462   -1.3895879 
H    -3.1274920    3.7187203    0.4624470 
H    -3.8876764    1.9847374    2.5272688 
H     0.0745783    5.6692299   -1.7085133 
H    -6.3207573   -0.5617807   -0.0108420 
H     3.4377992    3.3821105    0.1827273 
H     3.9201437    1.4482293    1.9373800 
H     0.8664211    0.1968486   -2.8122601 
H    -3.1907420   -0.5717167   -3.4942912 
H     2.3805207   -0.5722593   -1.2356134 
H    -0.2056808    2.3781292    2.9282895 
H    -2.9844275    2.0723167   -2.1502923 
H    -0.4305866   -3.0217120   -1.2279457 
H    -2.2978199    5.6538170   -0.8921702 
H    -6.1155859    0.9433049    1.9817844 
H     5.4401490    3.3743247   -1.2869465 
H     4.6220116    2.1938992    4.1901142 
H     1.3911680    1.8792247   -4.5623614 
H    -3.6644355   -2.4955649   -4.9980739 
H     4.4065451   -0.5854844   -2.7016172 
H     0.5071871    3.0897882    5.1931055 
H    -2.4622682    3.7475285   -3.9162873 
H    -0.8898893   -4.9468307   -2.7522203 
H     5.9325642    1.3972982   -2.7354759 
H     2.9266441    3.0259513    5.8343277 
H    -0.2746567    3.6653980   -5.1229076 
H    -2.5196760   -4.6884388   -4.6321352 
