96
Energy =
C     0.7988955   -2.1441155    2.2018080 
C     1.7105297   -2.2533019    1.1263158 
C     2.6716553   -1.2320646    0.8648694 
H     1.5998494   -3.0718738    0.4037991 
Pd    0.5911740   -0.4186834    0.6907758 
P     1.1818717    1.5726963   -0.4762402 
P    -1.7703223   -0.4919903    0.6172697 
H     1.0452786   -1.4150604    2.9895359 
H     3.0542865   -0.6594907    1.7222850 
C    -2.0995944   -5.0610110    3.4448384 
C    -1.3037223   -5.3117076    2.3145602 
C    -0.3711691   -4.3651549    1.8833628 
C    -0.2046748   -3.1465428    2.5834676 
C    -1.0096835   -2.9116629    3.7231020 
C    -1.9520315   -3.8549750    4.1459563 
H    -2.8287993   -5.8063388    3.7787833 
H    -1.4129087   -6.2515667    1.7647810 
H     0.2397058   -4.5835932    1.0032134 
H    -0.8887715   -1.9802680    4.2843881 
H    -2.5646594   -3.6524426    5.0303317 
C     5.3015016   -1.4822889   -2.5350426 
C     3.9371505   -1.7829055   -2.6823669 
C     3.0788015   -1.6989034   -1.5817301 
C     3.5628852   -1.3035092   -0.3134205 
C     4.9327800   -0.9955043   -0.1822353 
C     5.7948195   -1.0913381   -1.2818551 
H     5.9750093   -1.5483639   -3.3957549 
H     3.5417342   -2.0781514   -3.6599044 
H     2.0116870   -1.9168623   -1.7054256 
H     5.3230192   -0.6818468    0.7912037 
H     6.8559468   -0.8509642   -1.1601751 
O    -1.6090327    2.2704661    0.4795907 
C     0.5763763    3.2204523    0.1325336 
C    -2.5109862    0.4915235   -0.7407825 
C    -0.7756389    3.3752274    0.5059405 
C    -2.2288224    1.8710800   -0.6890396 
C     0.6643782    1.5816559   -2.2402161 
C     2.9983557    1.8681538   -0.5086155 
C    -2.3266595   -2.1981622    0.2176926 
C    -2.6760690    0.0537644    2.1144401 
C     1.4084087    4.3582525    0.2128248 
C    -3.2022966   -0.0172630   -1.8545650 
C    -1.2840388    4.5919762    0.9732719 
C    -2.5663375    2.7339336   -1.7360238 
C     0.9061705    5.5873648    0.6632675 
C    -3.5646815    0.8387670   -2.9046691 
C     0.1760018    0.4008179   -2.8273350 
C     3.7432087    1.8991661   -1.7006897 
C    -3.3843178   -2.8510031    0.8759463 
C    -1.9503606    0.3983462    3.2695179 
C     0.7507743    2.7588437   -3.0133254 
C     3.6509736    2.0824557    0.7254717 
C    -1.6569870   -2.8585621   -0.8367443 
C    -4.0780975    0.2021507    2.1020467 
C    -0.4362741    5.7048547    1.0515191 
C    -3.2317703    2.2012358   -2.8502385 
C    -0.2180554    0.3899286   -4.1720292 
C     5.1192506    2.1731277   -1.6593401 
C    -3.7852779   -4.1298592    0.4617477 
C    -2.6191945    0.8500174    4.4151404 
C     0.3629476    2.7428922   -4.3585660 
C     5.0207708    2.3685822    0.7586748 
C    -2.0668741   -4.1310855   -1.2532935 
C    -4.7445848    0.6495350    3.2509071 
C    -0.1221801    1.5596512   -4.9390150 
C     5.7567218    2.4209587   -0.4366414 
C    -3.1391607   -4.7663345   -0.6073556 
C    -4.0174701    0.9674532    4.4090390 
H     2.4600125    4.2831526   -0.0773396 
H    -3.4387337   -1.0844234   -1.9077549 
H    -2.3355541    4.6437674    1.2695803 
H    -2.3066850    3.7949236   -1.6818086 
H     1.5719911    6.4544545    0.7144977 
H    -4.0971302    0.4386625   -3.7728091 
H     0.0886706   -0.5036256   -2.2165996 
H     3.2557771    1.7079059   -2.6608470 
H    -3.8888074   -2.3722248    1.7197233 
H    -0.8565050    0.3303841    3.2577568 
H     1.1158290    3.6872048   -2.5612470 
H     3.0785698    2.0503545    1.6605559 
H    -0.8120892   -2.3670939   -1.3343427 
H    -4.6455624   -0.0188874    1.1911842 
H    -0.8254564    6.6614733    1.4142313 
H    -3.4964544    2.8628765   -3.6810770 
H    -0.6100784   -0.5304024   -4.6164485 
H     5.6925129    2.1889289   -2.5917329 
H    -4.6056155   -4.6318657    0.9847578 
H    -2.0484618    1.1192301    5.3100489 
H     0.4340810    3.6583724   -4.9550169 
H     5.5152873    2.5512219    1.7184721 
H    -1.5468589   -4.6289208   -2.0784119 
H    -5.8340293    0.7590365    3.2390267 
H    -0.4323060    1.5528480   -5.9891154 
H     6.8284777    2.6430786   -0.4110008 
H    -3.4611931   -5.7620586   -0.9292004 
H    -4.5411035    1.3210476    5.3033338 
