96
Energy =
C    -0.7635477   -2.4295718    1.8194759 
C     0.6374180   -2.5688196    1.7148799 
C     1.5131658   -1.5402869    2.1815952 
H     1.0617367   -3.4150798    1.1592758 
Pd    0.1994683   -0.7215206    0.5932083 
P     1.3693178    1.3014505    0.3853490 
P    -1.5799422   -0.2384536   -0.8847040 
H    -1.1397695   -1.6583881    2.5098114 
H     1.1686729   -0.9281862    3.0284404 
C    -3.7806354   -5.2131529    0.5547440 
C    -4.1312221   -3.9578753    1.0742329 
C    -3.1352981   -3.0743198    1.5027093 
C    -1.7674793   -3.4153574    1.3964334 
C    -1.4296203   -4.6941298    0.8941905 
C    -2.4269444   -5.5820886    0.4809281 
H    -4.5579691   -5.9088345    0.2227419 
H    -5.1845615   -3.6691401    1.1530596 
H    -3.4117969   -2.1005277    1.9189740 
H    -0.3808243   -5.0019238    0.8313367 
H    -2.1494132   -6.5704922    0.1003258 
C     5.7911465   -1.7964502    1.7761232 
C     4.9645358   -2.2092334    0.7167220 
C     3.5741894   -2.1296426    0.8394791 
C     2.9797257   -1.6235578    2.0184683 
C     3.8218007   -1.2030970    3.0701100 
C     5.2147234   -1.2992736    2.9535384 
H     6.8799279   -1.8619625    1.6807558 
H     5.4082872   -2.5894102   -0.2092892 
H     2.9363265   -2.4394955    0.0040343 
H     3.3768930   -0.7980874    3.9849960 
H     5.8515178   -0.9750959    3.7832270 
O    -1.4102016    1.6772971    1.4398020 
C     0.2380658    2.7226429    0.0279240 
C    -2.9793375    0.2936859    0.1956597 
C    -1.0413293    2.7511893    0.6240313 
C    -2.6970804    1.1587303    1.2817337 
C     2.6892196    1.3250284   -0.8844581 
C     2.1950519    1.8337420    1.9459729 
C    -1.3993318    1.0725429   -2.1638410 
C    -2.1955237   -1.6258062   -1.9192594 
C     0.5814152    3.7842459   -0.8325100 
C    -4.2810429   -0.2382951    0.1007929 
C    -1.9183496    3.8262329    0.4310845 
C    -3.6589061    1.4537988    2.2532356 
C    -0.2955910    4.8539227   -1.0493909 
C    -5.2598265    0.0758367    1.0552307 
C     3.5908499    2.4032542   -1.0311181 
C     3.5917720    1.7429491    2.1085277 
C    -0.2930835    0.9811047   -3.0318904 
C    -3.2415708   -1.4380359   -2.8498605 
C     2.8286440    0.1952941   -1.7147120 
C     1.4020774    2.2865060    3.0244251 
C    -2.3469147    2.0951664   -2.3499895 
C    -1.5518345   -2.8733285   -1.8424308 
C    -1.5385859    4.8839750   -0.4022644 
C    -4.9474311    0.9108900    2.1370640 
C     4.5883384    2.3566625   -2.0136841 
C     4.1882361    2.1458556    3.3134308 
C    -0.1261138    1.9125949   -4.0626326 
C    -3.6626107   -2.5041117   -3.6535184 
C     3.8286862    0.1508872   -2.6955343 
C     2.0045217    2.6716893    4.2279517 
C    -2.1761608    3.0254614   -3.3859368 
C    -1.9725091   -3.9366592   -2.6536623 
C     4.7053770    1.2345306   -2.8497118 
C     3.4007868    2.6131683    4.3726973 
C    -1.0673588    2.9388939   -4.2397398 
C    -3.0328175   -3.7558674   -3.5518406 
H     1.5373229    3.7640301   -1.3610352 
H    -4.5216930   -0.9349997   -0.7071218 
H    -2.8963812    3.8176123    0.9203024 
H    -3.3853650    2.1083863    3.0858126 
H    -0.0056243    5.6612232   -1.7284056 
H    -6.2634518   -0.3501539    0.9602881 
H     3.5275256    3.2701041   -0.3653027 
H     4.2208729    1.3504944    1.3046693 
H     0.4357139    0.1753955   -2.9054061 
H    -3.7116795   -0.4546290   -2.9601365 
H     2.1496070   -0.6543426   -1.5767351 
H     0.3139469    2.3388329    2.9253889 
H    -3.2117424    2.1712882   -1.6829513 
H    -0.7155560   -3.0042592   -1.1484452 
H    -2.2233793    5.7238106   -0.5569800 
H    -5.7043537    1.1433796    2.8928399 
H     5.2816445    3.1970832   -2.1221290 
H     5.2755283    2.0766525    3.4216113 
H     0.7406692    1.8358761   -4.7272460 
H    -4.4760732   -2.3549824   -4.3711180 
H     3.9267706   -0.7330133   -3.3341599 
H     1.3807996    3.0282354    5.0543407 
H    -2.9130673    3.8238962   -3.5212283 
H    -1.4700301   -4.9062092   -2.5806353 
H     5.4886955    1.2018332   -3.6140866 
H     3.8695934    2.9269241    5.3110543 
H    -0.9374540    3.6698163   -5.0445529 
H    -3.3621994   -4.5859552   -4.1853833 
