96
Energy =
C     0.3018951   -1.3071700    2.8707981 
C     1.6707947   -1.2712924    2.4531131 
C     2.3190591   -0.0387049    2.2209564 
H     2.1722278   -2.2110687    2.1885298 
Pd    0.4459664   -0.2891864    0.9147165 
P     1.1790098    0.8370881   -1.0455505 
P    -1.8424082   -0.2182959    0.4247580 
H    -0.0550907   -0.4810949    3.5032925 
H     1.8475093    0.8603242    2.6480501 
C    -1.8582371   -5.0043272    3.3211675 
C    -0.9393136   -4.8565269    2.2686371 
C    -0.2380749   -3.6567753    2.1121934 
C    -0.4424174   -2.5768380    3.0029949 
C    -1.3752939   -2.7367593    4.0490365 
C    -2.0720055   -3.9409044    4.2095045 
H    -2.4077407   -5.9434080    3.4431921 
H    -0.7717710   -5.6806215    1.5670679 
H     0.4687190   -3.5454306    1.2811638 
H    -1.5502696   -1.9095321    4.7442635 
H    -2.7900826   -4.0450847    5.0290705 
C     6.3512122    0.6340031    0.9003089 
C     5.9196568   -0.6782123    1.1567129 
C     4.6141058   -0.9190079    1.5936364 
C     3.7094945    0.1515300    1.7855425 
C     4.1689488    1.4691736    1.5566514 
C     5.4723092    1.7075879    1.1082162 
H     7.3733112    0.8175880    0.5537545 
H     6.6082105   -1.5177469    1.0162378 
H     4.2988402   -1.9485220    1.7922734 
H     3.4888790    2.3101360    1.7281891 
H     5.8040079    2.7351150    0.9262805 
O    -0.3488426    2.4193000    0.8582825 
C     1.6068502    2.5526362   -0.5165132 
C    -2.4818769    1.5074144    0.2901907 
C     0.7453718    3.1627740    0.4237611 
C    -1.6475030    2.6400780    0.4282446 
C     0.0515010    1.0730408   -2.4838977 
C     2.6622430    0.1332237   -1.8631021 
C    -2.2325917   -1.0941192   -1.1454192 
C    -3.0339375   -0.9342584    1.6324016 
C     2.7757758    3.2410480   -0.8917726 
C    -3.8557325    1.7228277    0.0376273 
C     1.0503116    4.3991493    1.0059799 
C    -2.1454017    3.9341794    0.2065741 
C     3.0695063    4.4986427   -0.3452937 
C    -4.3625540    3.0090632   -0.1742740 
C    -0.0701500    0.0156730   -3.4116334 
C     3.2309302   -1.0414722   -1.3401663 
C    -3.1755591   -0.6673150   -2.0978672 
C    -3.6579021   -2.1784024    1.4237469 
C    -0.6828030    2.2563516   -2.6853710 
C     3.1908269    0.6952327   -3.0471867 
C    -1.5499601   -2.3141111   -1.3460076 
C    -3.3152377   -0.2027070    2.8065644 
C     2.2144930    5.0728967    0.6066026 
C    -3.4962520    4.1114868   -0.1138790 
C    -0.9078444    0.1496921   -4.5239573 
C     4.3376946   -1.6317787   -1.9671104 
C    -3.4500261   -1.4644819   -3.2180369 
C    -4.5710967   -2.6699743    2.3679589 
C    -1.5378937    2.3765273   -3.7910907 
C     4.3002402    0.1071527   -3.6659036 
C    -1.8323363   -3.1096068   -2.4640315 
C    -4.2331884   -0.6970143    3.7413387 
C    -1.6491745    1.3270762   -4.7132968 
C     4.8775959   -1.0537102   -3.1237360 
C    -2.7894683   -2.6881296   -3.3997055 
C    -4.8679402   -1.9295671    3.5204643 
H     3.4781614    2.7786241   -1.5904227 
H    -4.5333400    0.8629491    0.0147390 
H     0.3895731    4.8140307    1.7722225 
H    -1.4798215    4.7966443    0.2924644 
H     3.9824763    5.0203368   -0.6487173 
H    -5.4278136    3.1508384   -0.3795166 
H     0.4989925   -0.9086908   -3.2700998 
H     2.7930702   -1.4941414   -0.4442657 
H    -3.6782107    0.2969037   -1.9916079 
H    -3.4432340   -2.7614275    0.5234829 
H    -0.5751001    3.1002706   -1.9987067 
H     2.7191092    1.5758647   -3.4965677 
H    -0.7979809   -2.6370946   -0.6168878 
H    -2.8327817    0.7666766    2.9777789 
H     2.4576640    6.0423838    1.0528373 
H    -3.8780553    5.1230956   -0.2854113 
H    -0.9878576   -0.6732248   -5.2408371 
H     4.7769936   -2.5432858   -1.5495304 
H    -4.1784476   -1.1184416   -3.9584538 
H    -5.0529842   -3.6378159    2.1965789 
H    -2.1024440    3.3032194   -3.9375120 
H     4.7089513    0.5477668   -4.5811263 
H    -1.3023416   -4.0573474   -2.6049449 
H    -4.4569040   -0.1157258    4.6420015 
H    -2.3076627    1.4271536   -5.5823613 
H     5.7415654   -1.5139014   -3.6143622 
H    -3.0115471   -3.3072712   -4.2750748 
H    -5.5895508   -2.3132437    4.2490558 
