96
Energy =
C    -0.1678816   -2.9314469    1.3532576 
C     1.1934851   -2.5395848    1.2880399 
C     1.6875419   -1.5026358    2.1204335 
H     1.8417736   -2.9964105    0.5296493 
Pd    0.0858006   -0.7484635    0.6793302 
P     1.0648292    1.4069321    0.5949442 
P    -1.8180057   -0.4075871   -0.7084974 
H    -0.7021409   -2.7128794    2.2907000 
H     1.0955459   -1.2823255    3.0202684 
C    -1.6347859   -6.3279972   -0.8300705 
C    -1.9495286   -6.1613576    0.5265337 
C    -1.4978947   -5.0308448    1.2174938 
C    -0.6980284   -4.0627385    0.5706375 
C    -0.3890545   -4.2427912   -0.7961526 
C    -0.8582171   -5.3612580   -1.4906953 
H    -2.0002470   -7.2038246   -1.3758712 
H    -2.5550764   -6.9110195    1.0463833 
H    -1.7493871   -4.9012528    2.2762382 
H     0.1941092   -3.4770019   -1.3205338 
H    -0.6292047   -5.4763778   -2.5548869 
C     5.8078427   -0.3664675    2.5393322 
C     5.4034662   -1.0997535    1.4106908 
C     4.0610102   -1.4442684    1.2368572 
C     3.0918994   -1.0741375    2.1992858 
C     3.5093293   -0.3141020    3.3165870 
C     4.8545123    0.0339207    3.4864659 
H     6.8620392   -0.1030973    2.6734331 
H     6.1405574   -1.3991952    0.6592050 
H     3.7652532   -2.0072544    0.3463884 
H     2.7701061   -0.0080778    4.0643536 
H     5.1593818    0.6117347    4.3650089 
O    -1.6108372    2.2343909    0.8288667 
C     0.3005604    2.6872107   -0.4781325 
C    -3.2001707    0.6465581   -0.0589869 
C    -1.0513539    2.9711534   -0.2071333 
C    -2.9258128    1.8149659    0.6874978 
C     2.8063359    1.3874453    0.0072650 
C     1.0481498    2.2630624    2.2244156 
C    -1.2727354    0.3513455   -2.2893586 
C    -2.7301031   -1.9018357   -1.2733149 
C     0.9478422    3.3966564   -1.5054756 
C    -4.5552195    0.2799847   -0.2152578 
C    -1.7556245    3.9473931   -0.9201609 
C    -3.9382187    2.5492945    1.3146115 
C     0.2503544    4.3691453   -2.2370952 
C    -5.5797001    1.0273212    0.3820026 
C     3.8746556    1.9824839    0.7033304 
C     0.4846919    1.6335527    3.3491764 
C    -0.0964332   -0.1576056   -2.8778496 
C    -2.8550215   -2.2318901   -2.6371614 
C     3.0563555    0.7531988   -1.2292682 
C     1.5188386    3.5883796    2.3375191 
C    -2.0009688    1.3562258   -2.9497515 
C    -3.3461953   -2.7213972   -0.3036182 
C    -1.0924645    4.6453279   -1.9398338 
C    -5.2729954    2.1501234    1.1638988 
C     5.1649918    1.9652855    0.1542806 
C     0.4345862    2.2969153    4.5828432 
C     0.3547485    0.3442734   -4.1048290 
C    -3.5918360   -3.3615527   -3.0218778 
C     4.3450759    0.7462344   -1.7765454 
C     1.4743493    4.2472427    3.5733330 
C    -1.5372360    1.8677099   -4.1705040 
C    -4.0961512   -3.8353576   -0.6948288 
C     5.4028764    1.3582741   -1.0865729 
C     0.9398166    3.6004135    4.6987558 
C    -0.3615248    1.3663130   -4.7476417 
C    -4.2158266   -4.1611602   -2.0549186 
H     1.9971833    3.1866560   -1.7330102 
H    -4.8115092   -0.6053270   -0.8032889 
H    -2.8050235    4.1483131   -0.6872211 
H    -3.6612498    3.4284519    1.9034621 
H     0.7598169    4.9139918   -3.0375986 
H    -6.6210126    0.7213961    0.2415720 
H     3.7113787    2.4450336    1.6798968 
H     0.0601683    0.6291952    3.2485166 
H     0.4561477   -0.9588450   -2.3711458 
H    -2.3878961   -1.6052142   -3.4021568 
H     2.2313846    0.2807223   -1.7701564 
H     1.9086364    4.1100745    1.4566002 
H    -2.9236005    1.7444011   -2.5073752 
H    -3.2478546   -2.4782621    0.7601572 
H    -1.6336772    5.4102845   -2.5059865 
H    -6.0706758    2.7223011    1.6482119 
H     5.9896758    2.4242729    0.7088378 
H    -0.0086903    1.7990009    5.4515328 
H     1.2668857   -0.0583041   -4.5577109 
H    -3.6831370   -3.6099839   -4.0843257 
H     4.5233326    0.2613578   -2.7421365 
H     1.8491286    5.2727794    3.6550337 
H    -2.0990736    2.6625086   -4.6714439 
H    -4.5734374   -4.4614995    0.0648845 
H     6.4122023    1.3526982   -1.5108687 
H     0.9017999    4.1195899    5.6620322 
H    -0.0043331    1.7692704   -5.7008772 
H    -4.7934011   -5.0403824   -2.3579256 
