96
Energy =
C     2.6964598   -1.0336294    1.2027939 
C     1.6726450   -1.5690175    2.0394827 
C     0.8060225   -2.5855492    1.5755186 
H     1.4773371   -1.0869042    3.0059247 
Pd    0.6757103   -0.6728131    0.3110402 
P    -1.6699376   -0.6449449    0.1277829 
P     1.2342856    0.9816554   -1.2881190 
H     3.1464686   -1.7008340    0.4526895 
H     1.1381199   -3.1544747    0.6933818 
C     5.1797466    2.2482626    2.4697167 
C     3.7859912    2.3209977    2.6316880 
C     2.9770277    1.2492155    2.2385975 
C     3.5438555    0.0906670    1.6602375 
C     4.9464846    0.0265142    1.5099959 
C     5.7571110    1.0941100    1.9174588 
H     5.8131287    3.0879643    2.7737526 
H     3.3267334    3.2208930    3.0533356 
H     1.8874081    1.3226706    2.3369071 
H     5.3993178   -0.8632674    1.0598287 
H     6.8436155    1.0281923    1.7971347 
C    -2.2032873   -4.6474705    3.8420048 
C    -1.9389608   -5.0045022    2.5113456 
C    -0.9707225   -4.3079422    1.7800702 
C    -0.2538918   -3.2342722    2.3591521 
C    -0.5480309   -2.8725343    3.6950184 
C    -1.5053844   -3.5782108    4.4279314 
H    -2.9502658   -5.1989804    4.4221947 
H    -2.4786858   -5.8354922    2.0456736 
H    -0.7557571   -4.6019914    0.7477175 
H    -0.0181233   -2.0433143    4.1719303 
H    -1.7122948   -3.2907548    5.4633525 
O    -0.7184209    2.1133852    0.7108719 
C    -2.3566306    0.9192475   -0.5852174 
C     1.2822438    2.6673295   -0.5386753 
C    -1.7828520    2.1485436   -0.1943504 
C     0.3353823    2.9890998    0.4613167 
C    -2.4164071   -2.0202095   -0.8324270 
C    -2.4373934   -0.7274648    1.8101755 
C     2.8737531    0.7651187   -2.1034788 
C     0.0695657    1.0697470   -2.7074852 
C    -3.3750652    0.9580821   -1.5583625 
C     2.2860421    3.6172659   -0.8188957 
C    -2.2483912    3.3703631   -0.6975285 
C     0.4396270    4.1542477    1.2272895 
C    -3.8392142    2.1724402   -2.0789161 
C     2.3791027    4.8049794   -0.0801082 
C    -1.5436383   -2.9498496   -1.4339209 
C    -2.0136002    0.2122022    2.7774888 
C     2.9654823    0.1940874   -3.3909360 
C    -0.4328991   -0.1397219   -3.2277703 
C    -3.8107213   -2.2038640   -0.9763023 
C    -3.3956314   -1.6943912    2.1705962 
C     4.0611598    1.0877346   -1.4107977 
C    -0.2961977    2.2890180   -3.3067492 
C    -3.2875604    3.3808225   -1.6345011 
C     1.4751983    5.0617173    0.9606558 
C    -2.0438245   -4.0295628   -2.1743872 
C    -2.5799390    0.2124163    4.0584744 
C     4.2199676   -0.0524411   -3.9661606 
C    -1.2884353   -0.1338786   -4.3362433 
C    -4.3094587   -3.2847450   -1.7161266 
C    -3.9600754   -1.6844201    3.4542126 
C     5.3106312    0.8441418   -1.9950070 
C    -1.1609174    2.2914087   -4.4104537 
C    -3.4288732   -4.1968111   -2.3183302 
C    -3.5653451   -0.7269601    4.3974619 
C     5.3952183    0.2693917   -3.2716881 
C    -1.6553260    1.0844368   -4.9276622 
H    -3.7927488    0.0251975   -1.9424011 
H     3.0128902    3.4186237   -1.6115668 
H    -1.7836083    4.3028332   -0.3664550 
H    -0.3042667    4.3423067    2.0069714 
H    -4.6265534    2.1684399   -2.8385210 
H     3.1696409    5.5248347   -0.3131070 
H    -0.4611939   -2.8234733   -1.3108380 
H    -1.2510455    0.9514005    2.5190508 
H     2.0604782   -0.0504395   -3.9546648 
H    -0.1532069   -1.0884323   -2.7599581 
H    -4.5121447   -1.5089359   -0.5040819 
H    -3.6933508   -2.4753734    1.4677042 
H     4.0160773    1.5435189   -0.4195435 
H     0.0834070    3.2342575   -2.9053463 
H    -3.6511037    4.3351854   -2.0283758 
H     1.5607823    5.9779654    1.5535638 
H    -1.3513232   -4.7410453   -2.6360130 
H    -2.2501198    0.9536837    4.7941594 
H     4.2753482   -0.4912385   -4.9677957 
H    -1.6744408   -1.0803994   -4.7285197 
H    -5.3915474   -3.4155310   -1.8200204 
H    -4.7038099   -2.4435821    3.7169441 
H     6.2189145    1.1066794   -1.4426546 
H    -1.4523637    3.2434275   -4.8657809 
H    -3.8232705   -5.0391667   -2.8959659 
H    -4.0115146   -0.7217778    5.3973260 
H     6.3726738    0.0791902   -3.7267781 
H    -2.3312832    1.0947014   -5.7889334 
