96
Energy =
C     1.7592329   -2.5792180   -0.0076711 
C     1.3991182   -2.4402224    1.3517181 
C     0.0454404   -2.6128965    1.7739815 
H     2.1403932   -2.0849373    2.0797584 
Pd    0.1914658   -0.9300351    0.3164761 
P    -2.0020985   -0.0315698    0.5201337 
P     1.2127094    0.6503982   -1.1206964 
H     1.0557898   -3.1317238   -0.6499084 
H    -0.5780492   -3.3261609    1.2147122 
C     5.7025590   -2.3559307   -1.6907884 
C     5.4451015   -1.7333046   -0.4576262 
C     4.1659671   -1.7824006    0.1034006 
C     3.1119157   -2.4482646   -0.5650285 
C     3.3820323   -3.0537435   -1.8141953 
C     4.6663287   -3.0169374   -2.3666265 
H     6.7077694   -2.3216791   -2.1234046 
H     6.2482397   -1.2106386    0.0719347 
H     3.9881394   -1.2957743    1.0657865 
H     2.5734572   -3.5620229   -2.3499829 
H     4.8562903   -3.4976896   -3.3311817 
C    -1.0687496   -1.9790646    5.8839541 
C    -0.2898509   -1.0198873    5.2134684 
C     0.0783915   -1.2235595    3.8793728 
C    -0.3376210   -2.3828164    3.1841110 
C    -1.1257150   -3.3336989    3.8663176 
C    -1.4785620   -3.1379452    5.2081317 
H    -1.3550408   -1.8208380    6.9288054 
H     0.0241463   -0.1081463    5.7322414 
H     0.6570589   -0.4566693    3.3500965 
H    -1.4648184   -4.2306749    3.3375751 
H    -2.0842664   -3.8895741    5.7251147 
O    -0.2551100    2.4298537    0.5015907 
C    -2.2629244    1.5243702    1.4838862 
C     0.2029197    2.0340570   -1.7816678 
C    -1.3040277    2.5592396    1.3999065 
C    -0.4706299    2.8102929   -0.8176534 
C    -3.2678912   -1.1860010    1.2049241 
C    -2.6251392    0.3111762   -1.1760706 
C     2.5042104    1.5670415   -0.1796657 
C     2.0356194   -0.0239983   -2.6192717 
C    -3.3546239    1.7165669    2.3578285 
C     0.0484970    2.3615522   -3.1403449 
C    -1.3687822    3.6961660    2.2125626 
C    -1.2731402    3.8972479   -1.1806197 
C    -3.4470861    2.8679570    3.1520264 
C    -0.7614450    3.4423179   -3.5187409 
C    -4.1650575   -1.8676066    0.3549533 
C    -3.4655276    1.3993738   -1.4708878 
C     2.7995194    1.1992443    1.1453662 
C     3.3885700    0.2089711   -2.9288372 
C    -3.3267134   -1.4217927    2.5963933 
C    -2.2675164   -0.5887566   -2.2013856 
C     3.1487578    2.6853431   -0.7475913 
C     1.2534310   -0.8106805   -3.4926762 
C    -2.4443953    3.8471068    3.0984783 
C    -1.4147212    4.2066555   -2.5410565 
C    -5.1025014   -2.7627316    0.8884992 
C    -3.9239393    1.5936484   -2.7817095 
C     3.7533644    1.9113588    1.8845923 
C     3.9381974   -0.3115496   -4.1095987 
C    -4.2803801   -2.3033713    3.1228987 
C    -2.7400657   -0.4004296   -3.5060476 
C     4.1061461    3.3937291   -0.0088097 
C     1.8057585   -1.3228009   -4.6733793 
C    -5.1671652   -2.9791190    2.2727619 
C    -3.5637383    0.6976464   -3.7986400 
C     4.4138505    3.0047979    1.3046214 
C     3.1500815   -1.0682461   -4.9874463 
H    -4.1376160    0.9562228    2.4230618 
H     0.5618738    1.7677117   -3.9027003 
H    -0.5811474    4.4502348    2.1266220 
H    -1.7861537    4.4828323   -0.4128820 
H    -4.3041113    2.9932407    3.8209374 
H    -0.8786188    3.6875513   -4.5786234 
H    -4.1460678   -1.6922264   -0.7244812 
H    -3.7517833    2.1007690   -0.6806866 
H     2.2579131    0.3617523    1.6000918 
H     4.0225838    0.7795317   -2.2450961 
H    -2.6411887   -0.9073843    3.2763017 
H    -1.6210536   -1.4439406   -1.9658294 
H     2.8943080    3.0087008   -1.7629744 
H     0.2043981   -1.0081933   -3.2521157 
H    -2.5051482    4.7359946    3.7344641 
H    -2.0430555    5.0534372   -2.8355225 
H    -5.7943721   -3.2815349    0.2168779 
H    -4.5645858    2.4519649   -3.0081787 
H     3.9746958    1.6180671    2.9162314 
H     4.9937379   -0.1298547   -4.3360189 
H    -4.3185762   -2.4647038    4.2047382 
H    -2.4617186   -1.1064414   -4.2955284 
H     4.6071198    4.2578430   -0.4574423 
H     1.1860396   -1.9221126   -5.3487744 
H    -5.9087987   -3.6695916    2.6875407 
H    -3.9249519    0.8546215   -4.8201410 
H     5.1591452    3.5634016    1.8803721 
H     3.5839561   -1.4688984   -5.9094140 
