96
Energy =
C     2.9231470   -0.9080673   -0.8010964 
C     2.3153109   -2.1131237   -0.3900577 
C     1.1772617   -2.6270062   -1.0919671 
H     2.6340646   -2.5918736    0.5452518 
Pd    0.6997465   -0.6210152   -0.2523728 
P    -1.5865539   -0.7695865   -0.8144805 
P     0.7646215    1.5255648    0.7301246 
H     2.6609273   -0.5287424   -1.8015840 
H     1.1354183   -2.4327577   -2.1714943 
C     6.3115964    1.0401495    0.9737188 
C     5.4940632    1.7174336    0.0553153 
C     4.4111189    1.0595800   -0.5353753 
C     4.1067173   -0.2794594   -0.1983182 
C     4.9520257   -0.9579964    0.7093892 
C     6.0452258   -0.3029569    1.2858684 
H     7.1625508    1.5520550    1.4343028 
H     5.7053072    2.7600584   -0.2040137 
H     3.7740654    1.5891765   -1.2519372 
H     4.7623627   -2.0076780    0.9564852 
H     6.6963925   -0.8428080    1.9810762 
C    -0.8485091   -6.2190399    0.1241691 
C    -0.3679686   -5.3281230    1.0986982 
C     0.2693987   -4.1445534    0.7161681 
C     0.4439643   -3.8292542   -0.6518183 
C    -0.0776291   -4.7151697   -1.6210708 
C    -0.7086680   -5.9049862   -1.2356732 
H    -1.3421725   -7.1484267    0.4261836 
H    -0.5003612   -5.5550479    2.1613467 
H     0.6185586   -3.4433771    1.4828888 
H     0.0325354   -4.4730171   -2.6841053 
H    -1.0905525   -6.5898308   -2.0000317 
O    -0.7479197    1.7489768   -1.8467065 
C    -2.5852123    0.7748935   -0.7112877 
C     1.0280907    2.7981285   -0.5788179 
C    -2.0169667    1.9200939   -1.3075334 
C     0.2155959    2.7445254   -1.7381101 
C    -2.5302963   -2.0305876    0.1192358 
C    -1.8140798   -1.1439106   -2.6072790 
C    -0.7164414    2.0509737    1.6895611 
C     2.0369902    1.8056741    2.0300734 
C    -3.8787665    0.8744352   -0.1682629 
C     2.0847925    3.7327831   -0.5625673 
C    -2.7119494    3.1310431   -1.3860081 
C     0.4356690    3.5903057   -2.8308656 
C    -4.5779614    2.0891080   -0.2206976 
C     2.3041331    4.5918057   -1.6490386 
C    -2.7791621   -1.7923082    1.4892510 
C    -3.0960157   -1.4538290   -3.1101435 
C    -1.3478132    3.2964070    1.5337334 
C     2.7600658    0.7063666    2.5244146 
C    -2.9141538   -3.2629801   -0.4453686 
C    -0.7400723   -0.9958803   -3.5047191 
C    -1.1482119    1.1707339    2.7028268 
C     2.1904069    3.0693646    2.6424193 
C    -3.9980240    3.2094175   -0.8336814 
C     1.4799136    4.5244802   -2.7815429 
C    -3.4239730   -2.7581741    2.2704395 
C    -3.2807093   -1.6668472   -4.4820894 
C    -2.4275348    3.6407765    2.3607088 
C     3.6642934    0.8723751    3.5830873 
C    -3.5556098   -4.2274797    0.3444584 
C    -0.9296823   -1.2020269   -4.8785929 
C    -2.2198169    1.5229112    3.5320915 
C     3.1008608    3.2331673    3.6928398 
C    -3.8151993   -3.9792395    1.6988380 
C    -2.1972020   -1.5493961   -5.3673263 
C    -2.8677917    2.7561270    3.3549967 
C     3.8446483    2.1366018    4.1593480 
H    -4.3410422   -0.0020237    0.2959439 
H     2.7587988    3.7724842    0.2975256 
H    -2.2453225    3.9990071   -1.8606806 
H    -0.2077912    3.4930240   -3.7100302 
H    -5.5809237    2.1558305    0.2114540 
H     3.1294724    5.3096024   -1.6112669 
H    -2.4794195   -0.8414581    1.9392428 
H    -3.9522840   -1.5229374   -2.4306867 
H    -1.0032592    3.9952158    0.7650258 
H     2.6058206   -0.2822705    2.0811879 
H    -2.7052214   -3.4816170   -1.4951721 
H     0.2404628   -0.6895232   -3.1260213 
H    -0.6295431    0.2153440    2.8485539 
H     1.5812059    3.9193095    2.3162691 
H    -4.5488437    4.1540653   -0.8852380 
H     1.6549113    5.1897398   -3.6329793 
H    -3.6214059   -2.5562087    3.3285313 
H    -4.2766353   -1.9168898   -4.8621183 
H    -2.9252213    4.6063275    2.2245450 
H     4.2288496    0.0111995    3.9535889 
H    -3.8447828   -5.1819988   -0.1058608 
H    -0.0868846   -1.0845187   -5.5677216 
H    -2.5488271    0.8361434    4.3191705 
H     3.2191609    4.2163404    4.1599914 
H    -4.3177994   -4.7359509    2.3100231 
H    -2.3453937   -1.7149128   -6.4394825 
H    -3.7097535    3.0302363    3.9987997 
H     4.5528116    2.2675033    4.9841309 
