96
Energy =
C     0.9567924   -2.3112677    2.0123896 
C    -0.2068911   -2.7874763    1.3678602 
C    -0.1758698   -3.1215133   -0.0230515 
H    -1.1658673   -2.7623613    1.8993848 
Pd    0.3285785   -0.9741479    0.2643024 
P    -0.0177379   -0.2961151   -1.9548638 
P     0.5483214    1.1318910    1.2907384 
H     1.9160445   -2.4977021    1.5042185 
H     0.7672300   -3.5325783   -0.4063551 
C     1.4781067   -1.4013644    6.1745535 
C     0.2113098   -1.7860604    5.7045444 
C     0.0112247   -2.0512474    4.3473885 
C     1.0834825   -1.9516938    3.4305577 
C     2.3495475   -1.5457636    3.9151428 
C     2.5451424   -1.2712137    5.2730167 
H     1.6302768   -1.2012529    7.2401785 
H    -0.6266784   -1.8784460    6.4023413 
H    -0.9822111   -2.3537986    4.0040091 
H     3.1875301   -1.4547882    3.2149958 
H     3.5342467   -0.9664992    5.6300646 
C    -3.6508654   -4.2398834   -2.3057718 
C    -3.7986597   -3.4624540   -1.1450819 
C    -2.6763236   -3.0726563   -0.4090895 
C    -1.3775573   -3.4738535   -0.8040467 
C    -1.2426799   -4.2370800   -1.9857892 
C    -2.3677088   -4.6157355   -2.7290732 
H    -4.5319750   -4.5434363   -2.8804307 
H    -4.7953031   -3.1482131   -0.8193723 
H    -2.8082731   -2.4407785    0.4758513 
H    -0.2451397   -4.5454234   -2.3157508 
H    -2.2412615   -5.2161699   -3.6359826 
O    -2.0512203    0.9345501   -0.1423713 
C    -1.8363039   -0.2641918   -2.2402620 
C    -0.3150382    2.5031836    0.3885219 
C    -2.6496007    0.3617335   -1.2643025 
C    -1.5599847    2.2376238   -0.2236958 
C     0.7260849   -1.3288330   -3.2856463 
C     0.6248376    1.3552470   -2.4504482 
C    -0.2797958    1.1526832    2.9425323 
C     2.2708359    1.6838491    1.5914367 
C    -2.4784792   -0.9376825   -3.2975523 
C     0.2151046    3.8002292    0.2447824 
C    -4.0450739    0.3361292   -1.3459528 
C    -2.2852637    3.2370291   -0.8834645 
C    -3.8766443   -0.9510803   -3.3960636 
C    -0.4918199    4.8040131   -0.4298979 
C     1.6056475   -2.3751240   -2.9528078 
C     1.9639923    1.6423879   -2.1182235 
C    -1.6684011    0.8933609    2.9943959 
C     2.6042768    2.8629392    2.2958320 
C     0.5257609   -1.0037142   -4.6455795 
C    -0.1240261    2.2841130   -3.1944704 
C     0.4202290    1.3853265    4.1422006 
C     3.3088147    0.8531558    1.1210579 
C    -4.6604556   -0.3124791   -2.4261667 
C    -1.7514726    4.5273582   -0.9770508 
C     2.2399423   -3.1187815   -3.9587682 
C     2.5463292    2.8501170   -2.5184738 
C    -2.3449348    0.9182999    4.2203700 
C     3.9473359    3.2073966    2.4991167 
C     1.1497519   -1.7559640   -5.6482600 
C     0.4636174    3.4945165   -3.5912035 
C    -0.2669731    1.4134658    5.3643535 
C     4.6513932    1.1988055    1.3276050 
C     2.0018112   -2.8190617   -5.3071786 
C     1.7950088    3.7793008   -3.2552573 
C    -1.6493592    1.1916795    5.4080960 
C     4.9717168    2.3798814    2.0128369 
H    -1.8842569   -1.4830939   -4.0349597 
H     1.2072024    4.0270501    0.6410539 
H    -4.6303274    0.8188635   -0.5578975 
H    -3.2496655    2.9931947   -1.3373601 
H    -4.3519355   -1.4839465   -4.2249258 
H    -0.0512942    5.8004511   -0.5297866 
H     1.8066714   -2.5939531   -1.9001070 
H     2.5514125    0.9172372   -1.5458253 
H    -2.2194892    0.6824189    2.0733931 
H     1.8168671    3.5057400    2.7018766 
H    -0.1033628   -0.1507782   -4.9220535 
H    -1.1662163    2.0694402   -3.4531237 
H     1.5027251    1.5330212    4.1369382 
H     3.0522604   -0.0744587    0.5942832 
H    -5.7526032   -0.3321399   -2.4971007 
H    -2.3149767    5.3099182   -1.4949544 
H     2.9243422   -3.9290806   -3.6869210 
H     3.5857718    3.0663829   -2.2509610 
H    -3.4233209    0.7287129    4.2457961 
H     4.1944133    4.1239552    3.0447238 
H     0.9816033   -1.5024495   -6.7000375 
H    -0.1260763    4.2196746   -4.1614270 
H     0.2913931    1.5994919    6.2873598 
H     5.4464705    0.5444801    0.9553771 
H     2.4929645   -3.4010348   -6.0938133 
H     2.2470033    4.7268014   -3.5662374 
H    -2.1815661    1.2187170    6.3645436 
H     6.0195150    2.6530038    2.1752262 
