101
Energy =
C     1.3394313   -2.7631672   -1.1097987 
C     1.2241813   -3.0048541    0.2936816 
C    -0.0413587   -3.0716009    0.9231129 
H     2.1344107   -2.9986514    0.9082624 
Pd    0.2713400   -1.0771403   -0.1315612 
P    -0.7598296    0.3294128    1.4669216 
P     0.3902106    0.4381711   -1.9166492 
H     0.5365053   -3.1462775   -1.7578185 
H    -0.9036407   -3.3114832    0.2813383 
C     5.1905576   -2.3330836   -2.9853859 
C     4.9423973   -1.7125089   -1.7497941 
C     3.6872791   -1.8318019   -1.1445171 
C     2.6545299   -2.5772095   -1.7597099 
C     2.9103976   -3.1742365   -3.0115926 
C     4.1690556   -3.0585701   -3.6148839 
H     6.1734494   -2.2415695   -3.4589484 
H     5.7295322   -1.1289215   -1.2608190 
H     3.4918105   -1.3209117   -0.1941869 
H     2.1175267   -3.7420421   -3.5094252 
H     4.3500734   -3.5338336   -4.5842963 
C    -0.7610007   -3.8772660    5.0821307 
C    -1.7411677   -4.1483695    4.1162821 
C    -1.5019317   -3.8487092    2.7706017 
C    -0.2693134   -3.2923401    2.3599671 
C     0.7039962   -3.0092993    3.3466803 
C     0.4581624   -3.2972333    4.6926045 
H    -0.9467602   -4.1096349    6.1358356 
H    -2.6989256   -4.5877242    4.4121935 
H    -2.2737665   -4.0558383    2.0213892 
H     1.6584570   -2.5562336    3.0635618 
H     1.2232766   -3.0719710    5.4428132 
C    -2.3015617    2.0672574   -0.4213989 
C    -2.4620934    0.8046162   -1.3066633 
C    -1.3651256    2.0050305    0.8573499 
C    -1.3918123    0.6448127   -2.4226208 
C    -3.6245321    2.6591269    0.1187396 
C    -3.7252022    0.8323736   -2.2060465 
C    -2.0832088    2.8644102    1.9435491 
C    -1.7914796    1.6847465   -3.4956091 
C    -3.1626633    3.6534508    1.1858096 
C    -3.3470254    1.7425497   -3.4019992 
C     0.5729626    0.7700008    2.6729220 
C    -2.1104725   -0.3754439    2.5058491 
C     1.1854768    2.0683621   -1.6276799 
C     1.1955800   -0.1265441   -3.4750028 
C     0.3730054    1.6359440    3.7703849 
C    -3.3571595   -0.6820272    1.9160478 
C     1.2035935    3.0731264   -2.6213642 
C     0.5302943   -0.9800605   -4.3805546 
C     1.8554738    0.2141989    2.4810818 
C    -1.9305311   -0.6398231    3.8789686 
C     1.8531951    2.2996967   -0.4093852 
C     2.5231834    0.2607612   -3.7540484 
C     1.4331955    1.9446603    4.6339478 
C    -4.4043711   -1.2026050    2.6865689 
C     1.8313237    4.2998327   -2.3696749 
C     1.1602633   -1.3912238   -5.5633344 
C     2.9161123    0.5235465    3.3432227 
C    -2.9832054   -1.1579054    4.6469472 
C     2.4855806    3.5265438   -0.1617880 
C     3.1516289   -0.1615676   -4.9324929 
C     2.7067596    1.3944870    4.4218700 
C    -4.2242006   -1.4329071    4.0589166 
C     2.4646614    4.5327472   -1.1376916 
C     2.4689820   -0.9758291   -5.8470780 
H    -1.8478657    2.8544927   -1.0533753 
H    -2.4673151   -0.0981376   -0.6695426 
H    -0.4028452    2.4746624    0.5943435 
H    -1.5806723   -0.3606476   -2.8468432 
H    -4.2403982    1.8652481    0.5830968 
H    -4.2264148    3.1294216   -0.6762286 
H    -3.9121946   -0.1971979   -2.5613694 
H    -4.6377479    1.1572827   -1.6834395 
H    -2.5721136    2.2087309    2.6873396 
H    -1.3758056    3.5151259    2.4810201 
H    -1.3615609    2.6710578   -3.2585561 
H    -1.4209058    1.3970116   -4.4930771 
H    -2.7208906    4.5446629    0.7025018 
H    -3.9750537    3.9997337    1.8462865 
H    -3.6791379    2.7796766   -3.2250509 
H    -3.8303301    1.4070126   -4.3341036 
H    -0.6139221    2.0581890    3.9710356 
H    -3.5228876   -0.5106065    0.8490468 
H     0.7549970    2.8885029   -3.6015809 
H    -0.4892886   -1.3255771   -4.1795334 
H     2.0148227   -0.4659850    1.6335492 
H    -0.9638792   -0.4606812    4.3554560 
H     1.8834538    1.5123187    0.3483257 
H     3.0677528    0.9008814   -3.0535815 
H     1.2603540    2.6173105    5.4804538 
H    -5.3658873   -1.4242393    2.2117217 
H     1.8348210    5.0743964   -3.1435429 
H     0.6228776   -2.0376863   -6.2649871 
H     3.9035739    0.0824035    3.1717349 
H    -2.8205191   -1.3574416    5.7108216 
H     2.9965090    3.6883163    0.7929267 
H     4.1824514    0.1472171   -5.1324176 
H     3.5309330    1.6401755    5.0995135 
H    -5.0446898   -1.8342816    4.6624576 
H     2.9552008    5.4930980   -0.9479462 
H     2.9590652   -1.2958931   -6.7721883 
