101
Energy =
C    -3.0661376    0.3985912   -0.8216877 
C    -2.8030441   -0.9256453   -1.2929342 
C    -2.5343181   -1.9955398   -0.4140269 
H    -2.6864792   -1.0744572   -2.3746003 
Pd   -1.0454698   -0.2045084   -0.1692282 
P     0.8796152   -1.5094995    0.3243558 
P    -0.2656178    1.9573959    0.2631561 
H    -3.5642806    0.5023340    0.1543457 
H    -2.8339738   -1.8719487    0.6378519 
C    -3.7852909    3.5854244   -3.6262071 
C    -2.7080942    2.7066502   -3.8283673 
C    -2.4590037    1.6799748   -2.9116036 
C    -3.2808790    1.5126940   -1.7732286 
C    -4.3443284    2.4155942   -1.5700406 
C    -4.5986084    3.4378403   -2.4934102 
H    -3.9824300    4.3877006   -4.3447608 
H    -2.0569620    2.8268475   -4.7006011 
H    -1.6005662    1.0136026   -3.0602840 
H    -4.9794420    2.3098802   -0.6843722 
H    -5.4320392    4.1267888   -2.3222024 
C    -1.7584452   -6.0862195   -1.4895758 
C    -1.9743892   -5.7219094   -0.1530482 
C    -2.2168382   -4.3848221    0.1798549 
C    -2.2511268   -3.3811760   -0.8156347 
C    -2.0472331   -3.7688186   -2.1621614 
C    -1.7996301   -5.1029735   -2.4929281 
H    -1.5675708   -7.1316736   -1.7528777 
H    -1.9513939   -6.4797709    0.6364036 
H    -2.3765392   -4.1072130    1.2269479 
H    -2.0893419   -3.0249840   -2.9634242 
H    -1.6423260   -5.3811869   -3.5400191 
C     1.3120289    0.9257307    2.5089122 
C     2.5015716    0.6466344    1.5344512 
C     0.4167701    2.0846021    2.0040731 
C     2.5014955   -0.8151964    1.0170150 
C     1.6643580    1.4483856    3.9253754 
C     3.9329000    0.7338873    2.1217582 
C     1.2167330    3.3445842    2.3941123 
C     3.1297543   -1.6040311    2.1900336 
C     1.7760072    2.9974069    3.8008105 
C     4.2404629   -0.6639298    2.7293854 
C    -1.5140059    3.3110259    0.2712602 
C     1.0143452    2.4810782   -0.9481286 
C     0.4033668   -2.8395482    1.5120622 
C     1.4778056   -2.3403512   -1.2080856 
C    -2.4730368    3.3433236    1.3079414 
C     1.5990242    3.7675540   -0.9281078 
C    -0.4429164   -2.4802517    2.5835636 
C     2.6668658   -3.1029480   -1.2398283 
C    -1.5754969    4.2858470   -0.7438796 
C     1.4382339    1.5520110   -1.9209714 
C     0.8515046   -4.1697506    1.4130023 
C     0.7560255   -2.1596617   -2.4036432 
C    -3.4338762    4.3612141    1.3574453 
C     2.5995885    4.0999869   -1.8512977 
C    -0.8076896   -3.4237713    3.5531707 
C     3.1009188   -3.6887973   -2.4363099 
C    -2.5404041    5.3019013   -0.6905726 
C     2.4394405    1.8876097   -2.8416566 
C     0.4805355   -5.1140222    2.3815660 
C     1.1953846   -2.7384599   -3.6021413 
C    -3.4616197    5.3520213    0.3640173 
C     3.0250172    3.1615736   -2.8050480 
C    -0.3415075   -4.7444479    3.4557337 
C     2.3655240   -3.5098828   -3.6188049 
H     0.7150108    0.0017198    2.6026464 
H     2.4292541    1.3427593    0.6839078 
H    -0.5129482    2.0649131    2.6053962 
H     3.1815076   -0.8541223    0.1462954 
H     2.5684802    0.9804223    4.3455565 
H     0.8337169    1.1852961    4.6034620 
H     4.6275370    0.9414136    1.2892251 
H     4.0553997    1.5593106    2.8413801 
H     2.0513605    3.4846957    1.6854447 
H     0.6018973    4.2596588    2.3739268 
H     2.3646251   -1.7827610    2.9662601 
H     3.5039589   -2.5964633    1.8873016 
H     1.1923049    3.4946892    4.5932094 
H     2.8166066    3.3476435    3.9048893 
H     4.2331724   -0.6474150    3.8324517 
H     5.2418840   -1.0107367    2.4248061 
H    -2.4772222    2.5702189    2.0851134 
H     1.2651139    4.5155268   -0.2033366 
H    -0.8303809   -1.4562144    2.6513600 
H     3.2647502   -3.2381349   -0.3324751 
H    -0.8795594    4.2516574   -1.5861145 
H     0.9832172    0.5562012   -1.9471354 
H     1.4707180   -4.4839343    0.5684874 
H    -0.1542904   -1.5489056   -2.3875985 
H    -4.1626029    4.3793853    2.1745451 
H     3.0473721    5.0988407   -1.8264760 
H    -1.4620103   -3.1298116    4.3804543 
H     4.0211198   -4.2820193   -2.4463211 
H    -2.5740511    6.0513447   -1.4875789 
H     2.7584133    1.1514189   -3.5867419 
H     0.8297807   -6.1474581    2.2877109 
H     0.6214005   -2.5867399   -4.5222734 
H    -4.2099727    6.1500358    0.4045637 
H     3.8080151    3.4275233   -3.5227148 
H    -0.6271533   -5.4847515    4.2100678 
H     2.7106496   -3.9655072   -4.5526015 
