101
Energy =
C    -3.1550590    0.4307901   -0.7117282 
C    -2.9442031   -0.9483254   -1.0197277 
C    -2.5996162   -1.8788495   -0.0111044 
H    -2.9146546   -1.2570403   -2.0732560 
Pd   -1.0948042   -0.1719534   -0.1357405 
P     0.8806121   -1.4191089    0.2413637 
P    -0.2282159    1.9824075    0.1883472 
H    -3.5665749    0.6710783    0.2803671 
H    -2.8640945   -1.6111750    1.0238156 
C    -3.9899860    3.3026253   -3.8080186 
C    -2.9961759    2.3300336   -4.0074818 
C    -2.7061714    1.4062968   -2.9982775 
C    -3.4059365    1.4329722   -1.7693997 
C    -4.3837720    2.4303263   -1.5739833 
C    -4.6773746    3.3518489   -2.5869298 
H    -4.2187472    4.0249781   -4.5983593 
H    -2.4422049    2.2970312   -4.9515418 
H    -1.9097327    0.6679145   -3.1500875 
H    -4.9243094    2.4754354   -0.6228355 
H    -5.4435901    4.1153671   -2.4183866 
C    -2.0143819   -6.0996951   -0.5636827 
C    -2.3872463   -5.5821697    0.6854160 
C    -2.5397786   -4.2016621    0.8556952 
C    -2.3445462   -3.3121764   -0.2250706 
C    -1.9524716   -3.8463608   -1.4749284 
C    -1.7876670   -5.2249561   -1.6398703 
H    -1.8937157   -7.1795438   -0.6986635 
H    -2.5525103   -6.2548847    1.5328266 
H    -2.8240051   -3.8022676    1.8353069 
H    -1.7689346   -3.1814043   -2.3238716 
H    -1.4842890   -5.6210309   -2.6145367 
C     0.8017640    0.7933929    2.6709408 
C     2.2220543    0.4686573    2.1396349 
C     0.1256654    2.0311577    2.0177854 
C     2.3786435   -0.4653685    0.8670226 
C     0.7826005    1.2749825    4.1450275 
C     3.1818500   -0.1582890    3.1779910 
C     0.8483167    3.2451035    2.6474061 
C     3.6340400   -1.3477793    1.1468624 
C     1.2054107    2.7648696    4.0873027 
C     4.3465139   -0.6695960    2.3277694 
C    -1.3638141    3.4146173   -0.0462152 
C     1.2495186    2.4850078   -0.7799810 
C     0.7640886   -2.9516292    1.2601003 
C     1.4202796   -2.0120646   -1.4263968 
C    -2.3171180    3.7663328    0.9329248 
C     1.8895111    3.7272691   -0.5686856 
C     0.5471543   -2.8520170    2.6526466 
C     2.5855656   -2.7817699   -1.6362156 
C    -1.3168119    4.1531011   -1.2473885 
C     1.7184559    1.6401071   -1.8046191 
C     0.8636862   -4.2342180    0.6830244 
C     0.6278045   -1.6744576   -2.5437180 
C    -3.1658218    4.8644827    0.7364717 
C     3.0080689    4.0811932   -1.3340149 
C     0.4681575   -4.0017647    3.4484210 
C     2.9490053   -3.1817753   -2.9295893 
C    -2.1738971    5.2437025   -1.4425195 
C     2.8350079    1.9991018   -2.5732415 
C     0.7879234   -5.3822532    1.4845901 
C     0.9917616   -2.0723608   -3.8372864 
C    -3.0903189    5.6118145   -0.4474299 
C     3.4887349    3.2151283   -2.3300188 
C     0.5985732   -5.2725448    2.8679075 
C     2.1580340   -2.8255938   -4.0329126 
H     0.1481886   -0.0892415    2.5498458 
H     2.6837583    1.4265701    1.8332695 
H    -0.9109413    2.0209364    2.4074902 
H     2.5732331    0.1821056   -0.0039919 
H     1.4083881    0.6710914    4.8196237 
H    -0.2551195    1.1927814    4.5160082 
H     3.4953643    0.5667827    3.9471123 
H     2.6913282   -1.0058286    3.6939057 
H     1.7682893    3.4805572    2.0885375 
H     0.2139558    4.1463617    2.6281090 
H     3.3260959   -2.3658166    1.4485865 
H     4.2742710   -1.4392055    0.2555267 
H     0.6934696    3.3605409    4.8606483 
H     2.2888126    2.8719638    4.2663184 
H     5.0177079   -1.3574595    2.8685977 
H     4.9555713    0.1825371    1.9726876 
H    -2.4022016    3.1950349    1.8633258 
H     1.4983164    4.4313560    0.1712712 
H     0.4449308   -1.8736015    3.1295705 
H     3.2043122   -3.0926702   -0.7915113 
H    -0.6036703    3.8820695   -2.0315933 
H     1.2024796    0.6976521   -2.0060655 
H     0.9830017   -4.3478451   -0.3970549 
H    -0.2850860   -1.0844572   -2.3852233 
H    -3.8869095    5.1358852    1.5145550 
H     3.5010110    5.0430013   -1.1586927 
H     0.3091787   -3.9020664    4.5272875 
H     3.8550021   -3.7793715   -3.0743179 
H    -2.1246064    5.8050144   -2.3808292 
H     3.1862342    1.3271776   -3.3631249 
H     0.8658351   -6.3677216    1.0147383 
H     0.3623773   -1.7953133   -4.6894934 
H    -3.7520005    6.4707940   -0.5984996 
H     4.3623598    3.4985768   -2.9261275 
H     0.5430199   -6.1709934    3.4910578 
H     2.4477922   -3.1402393   -5.0408009 
