101
Energy =
C    -2.7995063    0.2870326   -1.7806696 
C    -1.9550610   -0.5827629   -2.5025828 
C    -1.6844629   -1.9019114   -2.0124386 
H    -1.4024917   -0.2112256   -3.3758402 
Pd   -0.9592820   -0.4183827   -0.5511395 
P     0.3753705   -1.8852109    0.6851005 
P    -0.2490837    1.5752569    0.4963874 
H    -3.4712046   -0.1816894   -1.0442819 
H    -2.4848924   -2.4067904   -1.4513510 
C    -3.9574635    4.3060856   -2.7572353 
C    -4.7424188    3.5186025   -1.9016414 
C    -4.3433803    2.2142987   -1.5872198 
C    -3.1670848    1.6603455   -2.1454595 
C    -2.4024839    2.4570183   -3.0297291 
C    -2.7854750    3.7691857   -3.3193675 
H    -4.2585039    5.3321639   -2.9921100 
H    -5.6621603    3.9251593   -1.4687870 
H    -4.9454122    1.6117402   -0.8984228 
H    -1.4922493    2.0554315   -3.4812209 
H    -2.1684130    4.3772357   -3.9886229 
C     1.1140141   -4.5151747   -3.9878336 
C     1.4355165   -3.1603561   -3.7987781 
C     0.5316576   -2.3086285   -3.1543616 
C    -0.7104175   -2.7937342   -2.6805946 
C    -1.0116767   -4.1591138   -2.8622910 
C    -0.1109809   -5.0091848   -3.5170627 
H     1.8188885   -5.1818562   -4.4951943 
H     2.3939847   -2.7683490   -4.1557379 
H     0.7956780   -1.2557358   -2.9929970 
H    -1.9600835   -4.5556380   -2.4855604 
H    -0.3645437   -6.0656571   -3.6509992 
C     2.5500188    0.9417638    1.1402443 
C     2.6145638   -0.0941081   -0.0040741 
C     1.1675921    1.3822678    1.7221244 
C     2.1625551   -1.5467561    0.3227648 
C     3.2413849    2.2813435    0.7874603 
C     4.0824713   -0.4075598   -0.4020593 
C     1.5114005    2.6741785    2.5190252 
C     3.2860707   -2.0936595    1.2319920 
C     2.7829023    3.2841654    1.8677591 
C     4.5754442   -1.4338569    0.6539157 
C    -1.5507764    2.4514310    1.4542203 
C     0.3157457    2.7982658   -0.7578684 
C    -0.0147878   -1.8517288    2.4843814 
C     0.1738707   -3.6867336    0.3496957 
C    -1.7363667    2.2091577    2.8337280 
C     0.3950201    4.1780685   -0.4756448 
C     0.7164904   -2.6193466    3.4168464 
C    -1.0506491   -4.2722550    0.7412046 
C    -2.4398083    3.3223199    0.7889083 
C     0.7451877    2.3317739   -2.0167649 
C    -1.1528901   -1.1433468    2.9186885 
C     1.1496244   -4.4910315   -0.2674153 
C    -2.7894205    2.8204993    3.5262382 
C     0.9071730    5.0647043   -1.4321907 
C     0.3414014   -2.6286457    4.7663479 
C    -1.2837122   -5.6366714    0.5354223 
C    -3.4896740    3.9329554    1.4888146 
C     1.2650716    3.2180037   -2.9691678 
C    -1.5334073   -1.1656365    4.2687112 
C     0.9150111   -5.8604707   -0.4634699 
C    -3.6711872    3.6825260    2.8561685 
C     1.3482397    4.5874550   -2.6765977 
C    -0.7793330   -1.8987669    5.1956939 
C    -0.2961310   -6.4373368   -0.0612484 
H     3.0863371    0.5204986    2.0140689 
H     2.0505806    0.2958238   -0.8690766 
H     0.7798493    0.5991934    2.3961481 
H     2.2289528   -2.0700759   -0.6533994 
H     2.9205693    2.6092378   -0.2170390 
H     4.3382314    2.1811366    0.7593708 
H     4.0783531   -0.8687596   -1.4059403 
H     4.7215864    0.4860614   -0.4648675 
H     0.6704807    3.3855239    2.5561774 
H     1.7128650    2.3861348    3.5655822 
H     3.1199676   -1.7740356    2.2742026 
H     3.3252867   -3.1951259    1.2322849 
H     3.5677188    3.4265729    2.6294133 
H     2.5818224    4.2753564    1.4298468 
H     5.1470290   -0.9367119    1.4556578 
H     5.2477553   -2.1814823    0.2020801 
H    -1.0524532    1.5548380    3.3811072 
H     0.0511225    4.5628956    0.4894980 
H     1.5607591   -3.2314816    3.0874863 
H    -1.8190839   -3.6575902    1.2247257 
H    -2.3073721    3.5370779   -0.2750894 
H     0.6615799    1.2629829   -2.2490747 
H    -1.7460841   -0.5766687    2.1901682 
H     2.0951138   -4.0660056   -0.6144731 
H    -2.9135814    2.6294385    4.5974515 
H     0.9640135    6.1338752   -1.2031661 
H     0.9183210   -3.2203706    5.4845471 
H    -2.2352374   -6.0782683    0.8493446 
H    -4.1660352    4.6083305    0.9551670 
H     1.5980602    2.8406780   -3.9416588 
H    -2.4214301   -0.6117061    4.5907750 
H     1.6845490   -6.4730241   -0.9438604 
H    -4.4902876    4.1633128    3.4007306 
H     1.7515806    5.2839482   -3.4189026 
H    -1.0720628   -1.9162977    6.2505851 
H    -0.4743314   -7.5064371   -0.2156831 
