101
Energy =
C     1.6129566   -2.8229352   -0.9063816 
C     1.6728924   -2.8497100    0.5158488 
C     0.5044419   -3.0038465    1.3027171 
H     2.6188345   -2.5943049    1.0091929 
Pd    0.3573436   -1.1775405   -0.0421252 
P    -0.8534008    0.2073253    1.4138999 
P     0.2216031    0.2482599   -1.8857117 
H     0.7947427   -3.3791110   -1.3884285 
H    -0.3588807   -3.4867380    0.8198018 
C     5.0092113   -2.1156729   -3.4586222 
C     3.9342112   -2.9009750   -3.8978165 
C     2.8339057   -3.1209578   -3.0603129 
C     2.7865725   -2.5649991   -1.7638741 
C     3.8807668   -1.7790560   -1.3328439 
C     4.9778345   -1.5556611   -2.1704165 
H     5.8682085   -1.9394994   -4.1141268 
H     3.9482610   -3.3424346   -4.8992932 
H     1.9989195   -3.7356626   -3.4110053 
H     3.8711725   -1.3338280   -0.3313873 
H     5.8136678   -0.9414852   -1.8190350 
C     0.3261444   -3.1536979    5.5968003 
C    -0.8002240   -3.4635336    4.8207000 
C    -0.7308729   -3.3906003    3.4243918 
C     0.4638276   -3.0032973    2.7743320 
C     1.5821794   -2.6665278    3.5724862 
C     1.5147472   -2.7506246    4.9655801 
H     0.2791898   -3.2212794    6.6885863 
H    -1.7329193   -3.7744002    5.3026817 
H    -1.6098831   -3.6472391    2.8236798 
H     2.5156795   -2.3393246    3.1049722 
H     2.3935633   -2.4937685    5.5652186 
C    -1.9996541    2.3372462   -0.2925343 
C    -2.5205591    1.1762818   -1.1717528 
C    -0.9733887    1.9976699    0.8520086 
C    -1.5587066    0.6300971   -2.2774597 
C    -3.1007137    3.1322091    0.4455364 
C    -3.7254919    1.5813518   -2.0608977 
C    -1.2506173    3.0190902    2.0025136 
C    -1.8437724    1.4432222   -3.5879845 
C    -2.3108665    3.9869571    1.4435667 
C    -3.0835869    2.3060572   -3.2547383 
C     0.1120932    0.3985427    2.9649062 
C    -2.5206148   -0.4096740    1.8845969 
C     1.2304436    1.7654872   -1.6280133 
C     0.7935255   -0.4018674   -3.5091017 
C    -0.3889570    0.0915326    4.2425608 
C    -2.9774992   -1.5936745    1.2674191 
C     2.4143489    1.6022140   -0.8756807 
C     1.8953680    0.1531403   -4.1866411 
C     1.4301317    0.8918145    2.8376047 
C    -3.3720344    0.2533953    2.7953675 
C     0.9112212    3.0457721   -2.1267960 
C     0.0939275   -1.4791314   -4.0949123 
C     0.4066097    0.3065756    5.3779056 
C    -4.2483193   -2.1089668    1.5539928 
C     3.2525837    2.6933705   -0.6129073 
C     2.2709404   -0.3437768   -5.4434365 
C     2.2186833    1.1036082    3.9744419 
C    -4.6435155   -0.2635329    3.0807541 
C     1.7446752    4.1391719   -1.8493263 
C     0.4628332   -1.9598018   -5.3571634 
C     1.7044586    0.8184529    5.2496976 
C    -5.0838229   -1.4441649    2.4636544 
C     2.9130903    3.9677939   -1.0918962 
C     1.5504090   -1.3889380   -6.0368871 
H    -1.4742236    3.0598089   -0.9453701 
H    -2.8195088    0.3515186   -0.5050780 
H     0.0494123    2.1523690    0.4700027 
H    -1.9102607   -0.4036948   -2.4582301 
H    -3.7780386    2.4342919    0.9746014 
H    -3.7147302    3.7401507   -0.2390394 
H    -4.2288540    0.6604597   -2.4111632 
H    -4.4828671    2.1782749   -1.5299897 
H    -1.6312801    2.5116351    2.9045274 
H    -0.3220508    3.5240724    2.3133643 
H    -0.9840149    2.0420398   -3.9268448 
H    -2.0549959    0.7369380   -4.4074737 
H    -1.8206425    4.8190458    0.9055109 
H    -2.9386157    4.4312389    2.2340940 
H    -2.7775801    3.3257476   -2.9555347 
H    -3.7660892    2.4132188   -4.1138521 
H    -1.3893674   -0.3333001    4.3589878 
H    -2.3277614   -2.1036682    0.5462364 
H     2.6704176    0.6068858   -0.4971166 
H     2.4601057    0.9758866   -3.7383355 
H     1.8355029    1.1194634    1.8446799 
H    -3.0485879    1.1725969    3.2908957 
H     0.0136340    3.2023103   -2.7289682 
H    -0.7461240   -1.9467653   -3.5673227 
H     0.0077024    0.0599010    6.3669452 
H    -4.5867311   -3.0283746    1.0650974 
H     4.1677351    2.5487311   -0.0293849 
H     3.1312518    0.0938235   -5.9599533 
H     3.2357709    1.4948206    3.8656985 
H    -5.2924355    0.2601512    3.7902654 
H     1.4799307    5.1298102   -2.2330834 
H    -0.0965456   -2.7858549   -5.8086496 
H     2.3196878    0.9862677    6.1396801 
H    -6.0776719   -1.8435995    2.6902505 
H     3.5600166    4.8252980   -0.8802212 
H     1.8398901   -1.7658991   -7.0231327 
