101
Energy =
C     1.6552530   -2.6846707   -0.9638361 
C     1.7572348   -2.7237564    0.4556243 
C     0.6134980   -2.9291959    1.2677924 
H     2.7109277   -2.4476303    0.9230137 
Pd    0.3827622   -1.0876327   -0.0470756 
P    -0.8702433    0.2302017    1.4469921 
P     0.2710058    0.3266915   -1.9160956 
H     0.8456080   -3.2677686   -1.4289718 
H    -0.2425010   -3.4341424    0.7947282 
C     5.0282649   -1.9300479   -3.5294461 
C     4.8972511   -1.2201161   -2.3242260 
C     3.8001847   -1.4514865   -1.4883680 
C     2.8083889   -2.3951709   -1.8412263 
C     2.9436719   -3.0880814   -3.0627318 
C     4.0473739   -2.8630807   -3.8948117 
H     5.8882695   -1.7502441   -4.1827727 
H     5.6521745   -0.4803575   -2.0376820 
H     3.6984235   -0.8799143   -0.5594202 
H     2.1780618   -3.8131442   -3.3578247 
H     4.1362375   -3.4139611   -4.8365994 
C     0.5749250   -3.2555545    5.5531723 
C    -0.5500905   -3.6143762    4.7964285 
C    -0.5316125   -3.4736219    3.4035782 
C     0.6116389   -2.9726683    2.7386681 
C     1.7252724   -2.5829957    3.5192709 
C     1.7083344   -2.7322987    4.9083474 
H     0.5685474   -3.3762322    6.6413590 
H    -1.4411522   -4.0154564    5.2904054 
H    -1.4078827   -3.7681970    2.8157736 
H     2.6147745   -2.1631730    3.0397744 
H     2.5826621   -2.4331376    5.4948474 
C    -2.1065715    2.3044588   -0.2419697 
C    -2.4928425    1.1249150   -1.1634030 
C    -1.0638453    2.0221054    0.9009700 
C    -1.4890274    0.8256709   -2.3090906 
C    -3.2818843    2.9706231    0.5064447 
C    -3.7568348    1.3902035   -2.0215342 
C    -1.4121037    3.0185960    2.0552962 
C    -1.7455416    1.9416004   -3.3514181 
C    -2.5823539    3.8749184    1.5284453 
C    -3.2698397    2.2393571   -3.2223840 
C     0.0088279    0.4284582    3.0507783 
C    -2.5191556   -0.4692873    1.8719850 
C     1.3705151    1.7856663   -1.7098983 
C     0.7734775   -0.4141791   -3.5276766 
C     1.2428013    1.1165705    3.0535778 
C    -3.4012144    0.1359445    2.7935320 
C     1.4393862    2.8545551   -2.6305850 
C     0.0003549   -1.4769136   -4.0454075 
C    -0.4938966   -0.0779602    4.2642428 
C    -2.9196824   -1.6591643    1.2290071 
C     2.2306774    1.7971439   -0.5916478 
C     1.9072907    0.0165765   -4.2422117 
C     1.9435007    1.3144218    4.2490086 
C    -4.6514712   -0.4393737    3.0588317 
C     2.3177924    3.9240080   -2.4060031 
C     0.3211072   -2.0541366   -5.2800847 
C     0.2107205    0.1268566    5.4595244 
C    -4.1692847   -2.2339276    1.4962380 
C     3.1112433    2.8640922   -0.3706274 
C     2.2277974   -0.5691912   -5.4757047 
C     1.4249907    0.8250185    5.4583734 
C    -5.0380469   -1.6235880    2.4126825 
C     3.1480997    3.9360540   -1.2745354 
C     1.4306988   -1.5924461   -6.0049494 
H    -1.6444021    3.0939229   -0.8671148 
H    -2.6539659    0.2263466   -0.5467180 
H    -0.0502753    2.2326003    0.5206911 
H    -1.8406382   -0.1245525   -2.7565239 
H    -3.8919621    2.1988612    1.0131316 
H    -3.9475846    3.5323935   -0.1694241 
H    -4.1351668    0.4153584   -2.3782151 
H    -4.5781270    1.8600417   -1.4589955 
H    -1.7050890    2.4793373    2.9716092 
H    -0.5324526    3.6210877    2.3337965 
H    -1.1686600    2.8447819   -3.0981199 
H    -1.4404415    1.6271872   -4.3631158 
H    -2.1944182    4.7741035    1.0158228 
H    -3.2495884    4.2209947    2.3355577 
H    -3.4330345    3.3147577   -3.0372362 
H    -3.8185926    1.9874371   -4.1445461 
H     1.6506679    1.5185342    2.1208742 
H    -3.1141554    1.0524315    3.3163995 
H     0.8302751    2.8450633   -3.5377752 
H    -0.8584754   -1.8629074   -3.4827296 
H    -1.4285963   -0.6438621    4.2839240 
H    -2.2434580   -2.1272359    0.5036282 
H     2.1998333    0.9482207    0.1031920 
H     2.5506338    0.8027905   -3.8381805 
H     2.8936878    1.8588172    4.2377331 
H    -5.3254211    0.0398556    3.7763651 
H     2.3584715    4.7489445   -3.1247575 
H    -0.2953651   -2.8684627   -5.6749045 
H    -0.1933802   -0.2742893    6.3942336 
H    -4.4648104   -3.1572453    0.9873204 
H     3.7705616    2.8555952    0.5036914 
H     3.1132102   -0.2243958   -6.0192043 
H     1.9701873    0.9839349    6.3943925 
H    -6.0154794   -2.0693529    2.6238389 
H     3.8320030    4.7742253   -1.1057779 
H     1.6810588   -2.0417475   -6.9713575 
