101
Energy =
C    -2.8287089    0.3059271   -1.7306436 
C    -2.0103702   -0.5838541   -2.4581947 
C    -1.7484393   -1.9009661   -1.9579407 
H    -1.4697937   -0.2302075   -3.3462302 
Pd   -0.9741018   -0.4112728   -0.5286003 
P     0.3648664   -1.8820631    0.6982302 
P    -0.2183348    1.5838272    0.4838847 
H    -3.4924797   -0.1447280   -0.9760226 
H    -2.5444493   -2.3879272   -1.3751808 
C    -3.9501263    4.3288424   -2.7336125 
C    -4.7294456    3.5623879   -1.8541011 
C    -4.3422722    2.2565166   -1.5314628 
C    -3.1842165    1.6799181   -2.1046801 
C    -2.4255241    2.4555769   -3.0124258 
C    -2.7961394    3.7693462   -3.3107611 
H    -4.2416414    5.3561089   -2.9752220 
H    -5.6352618    3.9866853   -1.4090714 
H    -4.9396079    1.6703174   -0.8247090 
H    -1.5293106    2.0362625   -3.4757166 
H    -2.1835978    4.3609118   -3.9986745 
C     0.9710574   -4.5756658   -3.9612163 
C     1.3159191   -3.2238104   -3.7933549 
C     0.4379871   -2.3522965   -3.1396449 
C    -0.8009217   -2.8141297   -2.6353775 
C    -1.1254345   -4.1768322   -2.7959360 
C    -0.2508488   -5.0467809   -3.4599419 
H     1.6555614   -5.2578283   -4.4758329 
H     2.2723895   -2.8496427   -4.1740050 
H     0.7204803   -1.3017454   -2.9950021 
H    -2.0713952   -4.5555177   -2.3954431 
H    -0.5223471   -6.1007605   -3.5772857 
C     2.5835254    0.9211252    1.0844822 
C     2.6140157   -0.1270315   -0.0499658 
C     1.2174676    1.3854899    1.6861905 
C     2.1491912   -1.5702123    0.2998678 
C     3.2855081    2.2479385    0.7054446 
C     4.0702550   -0.4637001   -0.4711346 
C     1.5917795    2.6811685    2.4629963 
C     3.2819239   -2.1231294    1.1938538 
C     2.8595061    3.2675493    1.7832854 
C     4.5689921   -1.4862758    0.5857786 
C    -1.4912671    2.4869291    1.4553478 
C     0.3392079    2.7859433   -0.7936519 
C     0.0079847   -1.8242541    2.5038612 
C     0.1356601   -3.6845330    0.3864686 
C    -2.3805047    3.3627451    0.7968220 
C     0.4415528    4.1675402   -0.5279814 
C     0.7464552   -2.5910841    3.4313120 
C    -1.0858971   -4.2523171    0.8119099 
C    -1.6554557    2.2611159    2.8403481 
C     0.7390863    2.3005033   -2.0551625 
C    -1.1132906   -1.0971582    2.9508219 
C     1.0879324   -4.5058608   -0.2447784 
C    -3.4097322    3.9942493    1.5087586 
C     0.9471434    5.0371827   -1.5034332 
C     0.3955232   -2.5816555    4.7872951 
C    -1.3387863   -5.6159611    0.6251687 
C    -2.6881043    2.8931537    3.5449007 
C     1.2523260    3.1697159   -3.0266585 
C    -1.4697978   -1.1006528    4.3075575 
C     0.8337349   -5.8744089   -0.4215263 
C    -3.5703203    3.7599354    2.8815699 
C     1.3585406    4.5410079   -2.7506075 
C    -0.7083756   -1.8335504    5.2286948 
C    -0.3741726   -6.4335535    0.0141025 
H     3.1299917    0.5017600    1.9529104 
H     2.0395022    0.2614418   -0.9086748 
H     0.8320238    0.6145799    2.3754284 
H     2.1909180   -2.1039844   -0.6719917 
H     2.9506586    2.5697160   -0.2964356 
H     4.3802924    2.1332315    0.6586602 
H     4.0419988   -0.9343857   -1.4702070 
H     4.7196236    0.4208152   -0.5541087 
H     0.7608760    3.4038171    2.5069728 
H     1.8077422    2.4016174    3.5089659 
H     3.1392272   -1.7911866    2.2357027 
H     3.3064777   -3.2249804    1.2043658 
H     3.6594618    3.4071026    2.5295534 
H     2.6637757    4.2568802    1.3387789 
H     5.1617722   -0.9891913    1.3720165 
H     5.2229105   -2.2471238    0.1290549 
H    -2.2642284    3.5648350   -0.2715176 
H     0.1205660    4.5671317    0.4390646 
H     1.5771310   -3.2170517    3.0935167 
H    -1.8359701   -3.6244347    1.3071030 
H    -0.9703876    1.6035148    3.3823075 
H     0.6374969    1.2304574   -2.2743252 
H    -1.7124588   -0.5307720    2.2269680 
H     2.0298036   -4.0949853   -0.6176830 
H    -4.0864980    4.6732078    0.9801941 
H     1.0222938    6.1078499   -1.2870307 
H     0.9779158   -3.1730168    5.5013642 
H    -2.2876612   -6.0436334    0.9652830 
H    -2.7958129    2.7144851    4.6200261 
H     1.5619364    2.7778024   -4.0011038 
H    -2.3449446   -0.5322568    4.6394886 
H     1.5852191   -6.5003348   -0.9131220 
H    -4.3733376    4.2569282    3.4354550 
H     1.7568816    5.2242350   -3.5077879 
H    -0.9824842   -1.8366409    6.2887182 
H    -0.5678141   -7.5019845   -0.1256735 
