101
Energy =
C    -2.8757145    0.5128161   -1.5447763 
C    -2.5631019   -0.7549338   -2.1100076 
C    -2.4990147   -1.9254987   -1.3185522 
H    -2.2162153   -0.7998215   -3.1499367 
Pd   -1.0480021   -0.3282583   -0.5516092 
P     0.7175791   -1.5819155    0.3363512 
P    -0.3568005    1.6666033    0.4572244 
H    -3.5122367    0.5238476   -0.6477127 
H    -3.0079007   -1.8997789   -0.3419903 
C    -2.8963557    4.2184857   -3.7364354 
C    -2.0714394    3.1634831   -4.1631924 
C    -2.0534381    1.9558138   -3.4602251 
C    -2.8578748    1.7740989   -2.3105275 
C    -3.6793858    2.8437449   -1.8928251 
C    -3.7013982    4.0518705   -2.6010530 
H    -2.9096990    5.1635835   -4.2889715 
H    -1.4370585    3.2871013   -5.0471376 
H    -1.3965764    1.1478913   -3.8013064 
H    -4.3043323    2.7226023   -1.0013579 
H    -4.3480660    4.8669144   -2.2598517 
C    -1.6980622   -5.9087027   -2.7208693 
C    -1.7555944   -5.6309515   -1.3462155 
C    -2.0112773   -4.3298680   -0.9043478 
C    -2.2041917   -3.2744514   -1.8255702 
C    -2.1404049   -3.5693387   -3.2073753 
C    -1.8955933   -4.8738205   -3.6483483 
H    -1.5051015   -6.9288560   -3.0679640 
H    -1.5975086   -6.4317281   -0.6170932 
H    -2.0489412   -4.1167967    0.1700544 
H    -2.3133544   -2.7810383   -3.9470225 
H    -1.8663950   -5.0865491   -4.7220383 
C     1.9596915    0.9644394    2.2171162 
C     2.7504700    0.5816328    0.9490606 
C     0.4409619    1.3986366    2.1382243 
C     2.3444106   -0.6807529    0.0761465 
C     2.6297504    2.1306856    2.9864693 
C     4.2439829    0.3130992    1.2944182 
C     0.2835046    2.6072830    3.1147431 
C     3.6002876   -1.5945892    0.0093883 
C     1.5530922    2.5805747    3.9782021 
C     4.7588465   -0.6057418    0.1824424 
C    -1.8090196    2.6967495    0.9134360 
C     0.7331087    2.7075703   -0.5853520 
C     0.4869809   -2.0469334    2.0977571 
C     1.0577210   -3.1660545   -0.5267373 
C    -2.8103935    2.0842530    1.6995973 
C     1.3320449    3.9045826   -0.1335023 
C     1.5496164   -2.3775771    2.9662906 
C     1.0492139   -3.1521224   -1.9373129 
C    -1.9646369    4.0382003    0.5215551 
C     1.0085659    2.2530770   -1.8911344 
C    -0.8358515   -2.0937243    2.5872179 
C     1.3810495   -4.3557438    0.1532558 
C    -3.9358041    2.8110596    2.1048705 
C     2.1951173    4.6200666   -0.9735142 
C     1.2899901   -2.7361842    4.2963072 
C     1.3938825   -4.3021339   -2.6555402 
C    -3.0924961    4.7650012    0.9354124 
C     1.8700848    2.9728261   -2.7298951 
C    -1.0933706   -2.4584327    3.9161257 
C     1.7210684   -5.5068249   -0.5717449 
C    -4.0759097    4.1578571    1.7269456 
C     2.4668811    4.1556487   -2.2706084 
C    -0.0294827   -2.7765535    4.7732999 
C     1.7345189   -5.4808150   -1.9731838 
H     1.9745764    0.0920023    2.8937216 
H     2.7195875    1.4472810    0.2671587 
H    -0.1642484    0.5567767    2.5192198 
H     2.1714635   -0.2994862   -0.9485989 
H     2.8730241    2.9512694    2.2835348 
H     3.5687027    1.8241999    3.4753089 
H     4.8177654    1.2488789    1.3935689 
H     4.3070469   -0.2163088    2.2655480 
H     0.2319216    3.5600585    2.5595963 
H    -0.6515428    2.5400096    3.6930099 
H     3.6062519   -2.3295346    0.8345840 
H     3.6368687   -2.1726975   -0.9272091 
H     1.4527431    1.8314035    4.7856880 
H     1.7662739    3.5537142    4.4516079 
H     5.7143500   -1.0985677    0.4289808 
H     4.9089962   -0.0309609   -0.7508756 
H    -2.7059612    1.0325266    1.9956469 
H     1.1321498    4.2802041    0.8738399 
H     2.5832141   -2.3513406    2.6093801 
H     0.7625243   -2.2374620   -2.4709022 
H    -1.2203169    4.5162302   -0.1214342 
H     0.5435772    1.3232637   -2.2387943 
H    -1.6644815   -1.8300519    1.9184510 
H     1.3688926   -4.3884594    1.2470032 
H    -4.7048961    2.3287973    2.7171326 
H     2.6578588    5.5446498   -0.6133753 
H     2.1224152   -2.9859822    4.9621495 
H     1.3797710   -4.2847611   -3.7496667 
H    -3.2045711    5.8083478    0.6231511 
H     2.0741669    2.6095689   -3.7423590 
H    -2.1244418   -2.4893695    4.2830236 
H     1.9738573   -6.4280200   -0.0365323 
H    -4.9549908    4.7274520    2.0452583 
H     3.1425011    4.7188523   -2.9226150 
H    -0.2274673   -3.0562521    5.8130989 
H     1.9979963   -6.3818408   -2.5363733 
