101
Energy =
C    -2.5910839    0.4563355   -1.8971491 
C    -1.7851776   -0.4998905   -2.5577137 
C    -1.6642980   -1.8315621   -2.0492199 
H    -1.1276146   -0.1829821   -3.3773965 
Pd   -0.9430067   -0.3783250   -0.5385471 
P     0.3022637   -1.8735111    0.7696835 
P    -0.3104246    1.6403793    0.4831368 
H    -3.3611667    0.0624532   -1.2157486 
H    -2.5360348   -2.2626880   -1.5350963 
C    -3.2668716    4.5597008   -2.9745277 
C    -3.9361581    3.9837912   -1.8846393 
C    -3.6979975    2.6477971   -1.5450506 
C    -2.7809158    1.8612077   -2.2815003 
C    -2.1058747    2.4602417   -3.3707168 
C    -2.3522923    3.7920216   -3.7145807 
H    -3.4563861    5.6025121   -3.2490610 
H    -4.6525321    4.5732029   -1.3032029 
H    -4.2311595    2.2005985   -0.6998825 
H    -1.3913152    1.8805547   -3.9620563 
H    -1.8257440    4.2368192   -4.5645944 
C     1.0516753   -4.6893906   -3.7857970 
C     1.4491206   -3.3503848   -3.6315109 
C     0.5719303   -2.4190619   -3.0652813 
C    -0.7199926   -2.8067781   -2.6371353 
C    -1.0990113   -4.1569470   -2.7843630 
C    -0.2239008   -5.0869725   -3.3601833 
H     1.7363347   -5.4183552   -4.2313894 
H     2.4465844   -3.0328618   -3.9542731 
H     0.8948085   -1.3790006   -2.9315088 
H    -2.0882672   -4.4782625   -2.4426455 
H    -0.5378400   -6.1301566   -3.4676203 
C     2.5294473    0.9083531    0.9655738 
C     2.5436150   -0.1978167   -0.1141227 
C     1.1981522    1.4356380    1.6026721 
C     2.0841242   -1.6240832    0.3079065 
C     3.2937142    2.1984042    0.5320675 
C     3.9985936   -0.5500652   -0.5266775 
C     1.7130132    2.6953754    2.3359649 
C     3.2266907   -2.1411611    1.2111880 
C     2.6764433    3.3677628    1.3413121 
C     4.5065084   -1.5031820    0.5876479 
C    -1.6576589    2.3049664    1.5571788 
C     0.0582906    2.9366329   -0.7767333 
C     0.1008942   -1.8376379    2.6026579 
C    -0.0213998   -3.6604917    0.4595431 
C    -1.6020847    3.5238858    2.2700534 
C     0.8660639    2.5688889   -1.8757231 
C     0.7858046   -2.7744204    3.4081228 
C    -1.3059084   -4.1336463    0.8066434 
C    -2.8312861    1.5257255    1.6621378 
C    -0.4313225    4.2562006   -0.7139830 
C    -0.7908747   -0.9348913    3.2111756 
C     0.9197314   -4.5599451   -0.0722441 
C    -2.6820787    3.9389775    3.0618189 
C     1.2480362    3.5136696   -2.8354080 
C     0.6119120   -2.7675271    4.7977345 
C    -1.6345147   -5.4834714    0.6395992 
C    -3.9084288    1.9367342    2.4580976 
C    -0.0585804    5.1975590   -1.6838083 
C    -0.9686892   -0.9339747    4.6022217 
C     0.5882053   -5.9143641   -0.2323860 
C    -3.8357562    3.1475932    3.1613630 
C     0.7993235    4.8384538   -2.7323567 
C    -0.2595989   -1.8439869    5.3982762 
C    -0.6834137   -6.3799633    0.1248155 
H     3.0677584    0.5037676    1.8445205 
H     1.9571557    0.1351004   -0.9885360 
H     0.8051568    0.7004646    2.3246802 
H     2.1037652   -2.2022192   -0.6380343 
H     3.1871225    2.3695060   -0.5526400 
H     4.3722221    2.0896014    0.7327040 
H     3.9647183   -1.0831744   -1.4939263 
H     4.6445680    0.3297707   -0.6681483 
H     0.9224530    3.3588946    2.7130601 
H     2.2687318    2.3436570    3.2257898 
H     3.0801244   -1.7982880    2.2494045 
H     3.2671341   -3.2422207    1.2406289 
H     3.4384303    3.9756059    1.8562233 
H     2.1205738    4.0444807    0.6705531 
H     5.0733480   -0.9484203    1.3544912 
H     5.1884633   -2.2678649    0.1812719 
H    -0.7217626    4.1679415    2.2078481 
H     1.1951856    1.5306832   -1.9844277 
H     1.4357091   -3.5251588    2.9480480 
H    -2.0466092   -3.4403107    1.2232833 
H    -2.8922359    0.5808095    1.1080913 
H    -1.1193979    4.5563168    0.0788746 
H    -1.3570065   -0.2322721    2.5948807 
H     1.9126753   -4.2209588   -0.3792926 
H    -2.6185621    4.8881375    3.6038526 
H     1.8886870    3.2106075   -3.6701141 
H     1.1512273   -3.4941867    5.4141532 
H    -2.6322456   -5.8388525    0.9175047 
H    -4.8044117    1.3109347    2.5253122 
H    -0.4497314    6.2179349   -1.6182553 
H    -1.6672515   -0.2240746    5.0572150 
H     1.3303063   -6.6033180   -0.6483294 
H    -4.6750501    3.4751228    3.7834401 
H     1.0961414    5.5807687   -3.4802852 
H    -0.3948613   -1.8460065    6.4848219 
H    -0.9371519   -7.4374574   -0.0014222 
