101
Energy =
C     1.4161258   -2.6800808   -1.0199842 
C     1.4609853   -2.8439883    0.3999239 
C     0.2934294   -3.0182419    1.1717607 
H     2.4255522   -2.7037810    0.9054896 
Pd    0.2871631   -1.0357565   -0.0749984 
P    -0.8626529    0.2921184    1.5257655 
P     0.3204375    0.3906983   -1.9278973 
H     0.6047526   -3.1857258   -1.5655962 
H    -0.6173440   -3.3380086    0.6430741 
C     5.0595527   -2.0780248   -3.2340635 
C     4.8256493   -1.3425526   -2.0601545 
C     3.6357186   -1.5203532   -1.3465575 
C     2.6553197   -2.4362681   -1.7932158 
C     2.8922283   -3.1504707   -2.9854613 
C     4.0879349   -2.9782449   -3.6947419 
H     5.9918131   -1.9413122   -3.7917383 
H     5.5712639   -0.6237913   -1.7042226 
H     3.4462376   -0.9231756   -0.4461901 
H     2.1352027   -3.8504977   -3.3540565 
H     4.2572825   -3.5453086   -4.6157524 
C     0.0717495   -3.5824046    5.4291055 
C    -1.0538434   -3.7802462    4.6169663 
C    -0.9655413   -3.5835536    3.2345976 
C     0.2505786   -3.1876932    2.6315127 
C     1.3818464   -3.0089446    3.4641190 
C     1.2911260   -3.1990289    4.8448516 
H     0.0051428   -3.7334742    6.5114745 
H    -2.0072532   -4.0853774    5.0596265 
H    -1.8514306   -3.7312510    2.6081762 
H     2.3461147   -2.7251747    3.0321589 
H     2.1769570   -3.0523103    5.4712125 
C    -1.7181070    2.4462763   -0.3111899 
C    -2.3589397    1.3487401   -1.2207883 
C    -1.6185510    1.9932229    1.1686542 
C    -1.4145773    0.9385587   -2.3780410 
C    -2.5018364    3.7726562   -0.1436285 
C    -3.6228899    1.7457682   -2.0258855 
C    -3.0508668    2.2241432    1.7048090 
C    -1.5866116    2.0833956   -3.3973707 
C    -3.5043647    3.5420900    1.0224769 
C    -3.1100244    2.3829962   -3.3518213 
C     0.2678549    0.6958996    2.9241250 
C    -2.2575753   -0.6952383    2.2221616 
C     1.3842018    1.8636518   -1.6487629 
C     0.8928209   -0.3281089   -3.5236348 
C    -0.1113657    1.5561017    3.9789197 
C    -3.0345546   -1.4489297    1.3156811 
C     1.6101434    2.8367780   -2.6482915 
C     0.0830416   -1.2925732   -4.1634271 
C     1.5772037    0.1778301    2.9090439 
C    -2.5906509   -0.7177655    3.5890855 
C     1.9789864    2.0337888   -0.3813620 
C     2.1312806    0.0128750   -4.1021052 
C     0.7945287    1.8635511    5.0026534 
C    -4.1407787   -2.1839617    1.7621726 
C     2.3978250    3.9618232   -2.3697228 
C     0.4778520   -1.8582592   -5.3823189 
C     2.4860209    0.4931010    3.9283927 
C    -3.6950501   -1.4587771    4.0347311 
C     2.7649871    3.1603455   -0.1062024 
C     2.5225825   -0.5575956   -5.3216870 
C     2.0936440    1.3316292    4.9807991 
C    -4.4762056   -2.1861901    3.1254568 
C     2.9719723    4.1287549   -1.0994274 
C     1.6942816   -1.4818647   -5.9718853 
H    -0.7135171    2.6801946   -0.6976900 
H    -2.5906299    0.4693382   -0.5945798 
H    -0.9231919    2.6864252    1.6767340 
H    -1.8278660    0.0129357   -2.8237909 
H    -2.9851934    4.1099294   -1.0746142 
H    -1.7786977    4.5591657    0.1340983 
H    -4.1907108    0.8251175   -2.2470237 
H    -4.3041319    2.4034740   -1.4633631 
H    -3.7002509    1.3860171    1.3954709 
H    -3.0949796    2.2625189    2.8062217 
H    -1.0219908    2.9684898   -3.0560458 
H    -1.2166076    1.8157657   -4.4009211 
H    -3.4819917    4.3876655    1.7298178 
H    -4.5443247    3.4561113    0.6645794 
H    -3.2957732    3.4695273   -3.3884169 
H    -3.6266908    1.9426075   -4.2207209 
H    -1.1134522    1.9967807    4.0035647 
H    -2.7629122   -1.4707680    0.2529807 
H     1.1850048    2.7112835   -3.6481834 
H    -0.8637863   -1.6110659   -3.7120467 
H     1.8819297   -0.4711673    2.0796923 
H    -1.9778109   -0.1796522    4.3171576 
H     1.8143863    1.2797758    0.3955497 
H     2.8014344    0.7154959   -3.6000129 
H     0.4864601    2.5271583    5.8172237 
H    -4.7362011   -2.7609545    1.0469855 
H     2.5656433    4.7107846   -3.1505985 
H    -0.1673648   -2.5951381   -5.8719399 
H     3.5004886    0.0818551    3.8994665 
H    -3.9378446   -1.4739932    5.1022507 
H     3.2150048    3.2771791    0.8850934 
H     3.4881232   -0.2816099   -5.7571129 
H     2.8001537    1.5786473    5.7798938 
H    -5.3379182   -2.7621915    3.4780286 
H     3.5854131    5.0107148   -0.8879944 
H     2.0014197   -1.9209067   -6.9265489 
