101
Energy =
C    -3.1038995    0.4094372   -1.0460444 
C    -2.7383337   -0.8602441   -1.5763806 
C    -2.4851748   -1.9670443   -0.7275418 
H    -2.5106758   -0.9367929   -2.6470814 
Pd   -1.1065109   -0.2206813   -0.2550295 
P     0.8003495   -1.4567696    0.3598275 
P    -0.3135580    1.9141219    0.3124888 
H    -3.6453150    0.4215390   -0.0876199 
H    -2.9446394   -1.9380856    0.2721524 
C    -3.7467072    3.8702696   -3.5243881 
C    -2.7056398    2.9778160   -3.8300574 
C    -2.4831574    1.8561344   -3.0250816 
C    -3.2945939    1.6038225   -1.8950301 
C    -4.3251653    2.5178533   -1.5899788 
C    -4.5534871    3.6361059   -2.4016070 
H    -3.9219550    4.7475540   -4.1555897 
H    -2.0626031    3.1601050   -4.6974864 
H    -1.6580265    1.1759338   -3.2625632 
H    -4.9553187    2.3449709   -0.7113788 
H    -5.3607902    4.3313734   -2.1502440 
C    -1.5128604   -5.9569184   -1.9974198 
C    -1.8671575   -5.6943469   -0.6659802 
C    -2.1520680   -4.3844632   -0.2618395 
C    -2.0892507   -3.3104111   -1.1798025 
C    -1.6969188   -3.5872399   -2.5105601 
C    -1.4218295   -4.8962143   -2.9144149 
H    -1.3024884   -6.9818418   -2.3199167 
H    -1.9336454   -6.5129845    0.0580895 
H    -2.4418867   -4.1870695    0.7760378 
H    -1.6094410   -2.7759898   -3.2397710 
H    -1.1285014   -5.0916539   -3.9506108 
C     1.1305541    0.7629269    2.6419878 
C     2.4488778    0.4321154    1.9058759 
C     0.3371151    1.9661575    2.0655517 
C     2.3492122   -0.4081860    0.5806522 
C     1.3363073    1.2871656    4.0866940 
C     3.4944018   -0.3413990    2.7386156 
C     1.1158376    3.2134529    2.5506328 
C     3.6924648   -1.2025735    0.4751470 
C     1.6925661    2.7872904    3.9343961 
C     4.5331086   -0.7669761    1.6937109 
C    -1.5665341    3.2646807    0.3808633 
C     0.9310226    2.4996836   -0.9077835 
C     0.5670214   -2.5293978    1.8375311 
C     1.3146207   -2.5920740   -0.9935477 
C    -2.5847572    3.1892270    1.3570066 
C     1.6672951    3.6970419   -0.7701230 
C     1.5675852   -3.3984498    2.3247849 
C     1.7590358   -2.0240536   -2.2085548 
C    -1.5614553    4.3481038   -0.5181044 
C     1.1071976    1.7252970   -2.0739128 
C    -0.6663421   -2.4635458    2.5186499 
C     1.2763747   -3.9937924   -0.8683855 
C    -3.5405363    4.2067067    1.4677114 
C     2.5865754    4.0777589   -1.7580614 
C     1.3338957   -4.1773418    3.4663130 
C     2.1773241   -2.8420771   -3.2644988 
C    -2.5247830    5.3614925   -0.4069483 
C     2.0221774    2.1093334   -3.0628219 
C    -0.8991062   -3.2437530    3.6592020 
C     1.7014106   -4.8082943   -1.9282641 
C    -3.5054468    5.3029524    0.5919216 
C     2.7722340    3.2834338   -2.9001694 
C     0.1023465   -4.1027487    4.1350789 
C     2.1554766   -4.2388959   -3.1246870 
H     0.4989655   -0.1395806    2.6688778 
H     2.9267828    1.3863656    1.6085332 
H    -0.6296179    1.9557678    2.6058967 
H     2.2559756    0.2813498   -0.2747620 
H     2.0843842    0.7163534    4.6577280 
H     0.3779112    1.1803658    4.6259593 
H     3.9315389    0.2732496    3.5427862 
H     3.0221911   -1.2239576    3.2102572 
H     1.9418247    3.4442589    1.8600264 
H     0.4656341    4.1025916    2.5973903 
H     3.5139841   -2.2906302    0.4922642 
H     4.1944356   -0.9992926   -0.4845152 
H     1.2737593    3.3880082    4.7582433 
H     2.7855439    2.9369356    3.9533493 
H     5.2083188   -1.5640091    2.0475178 
H     5.1625803    0.1022291    1.4294397 
H    -2.6384323    2.3304943    2.0371772 
H     1.5084043    4.3498670    0.0916687 
H     2.5292975   -3.4800510    1.8110312 
H     1.7989004   -0.9366398   -2.3256570 
H    -0.8132560    4.4033780   -1.3131708 
H     0.5087710    0.8132142   -2.1936573 
H    -1.4432894   -1.7823908    2.1510533 
H     0.9048577   -4.4584542    0.0482650 
H    -4.3162248    4.1410180    2.2378143 
H     3.1549560    5.0057358   -1.6374643 
H     2.1181516   -4.8476758    3.8328420 
H     2.5291259   -2.3875420   -4.1966802 
H    -2.5081259    6.1971565   -1.1137794 
H     2.1456793    1.4944200   -3.9605141 
H    -1.8618191   -3.1793730    4.1767576 
H     1.6647750   -5.8963222   -1.8148688 
H    -4.2511971    6.0996888    0.6790306 
H     3.4915665    3.5871035   -3.6676919 
H    -0.0756111   -4.7141482    5.0256972 
H     2.4874304   -4.8790314   -3.9484875 
