101
Energy =
C     1.6201244   -2.8189138   -0.9055466 
C     1.6776383   -2.8451719    0.5167239 
C     0.5085180   -3.0018086    1.3020437 
H     2.6221509   -2.5873694    1.0115339 
Pd    0.3589111   -1.1762015   -0.0430952 
P    -0.8544959    0.2069275    1.4122396 
P     0.2224481    0.2499883   -1.8867457 
H     0.8040763   -3.3770257   -1.3889882 
H    -0.3534885   -3.4860191    0.8180585 
C     5.0184989   -2.1009451   -3.4520621 
C     4.9848390   -1.5441513   -2.1625102 
C     3.8871328   -1.7711283   -1.3267497 
C     2.7945830   -2.5577243   -1.7608743 
C     2.8445161   -3.1108840   -3.0584119 
C     3.9453531   -2.8871158   -3.8942108 
H     5.8779559   -1.9218706   -4.1061706 
H     5.8194144   -0.9296786   -1.8086626 
H     3.8757274   -1.3281786   -0.3242932 
H     2.0110804   -3.7263694   -3.4113512 
H     3.9613150   -3.3263930   -4.8966152 
C     0.3270571   -3.1568482    5.5959042 
C    -0.7994640   -3.4633181    4.8186427 
C    -0.7291280   -3.3884999    3.4224957 
C     0.4666671   -3.0023889    2.7736927 
C     1.5851162   -2.6688443    3.5730295 
C     1.5167614   -2.7550654    4.9659772 
H     0.2793940   -3.2262435    6.6875475 
H    -1.7330456   -3.7731267    5.2995910 
H    -1.6082359   -3.6426143    2.8208834 
H     2.5195471   -2.3426365    3.1066779 
H     2.3958053   -2.5010115    5.5664882 
C    -2.0125379    2.3293892   -0.2942997 
C    -2.5244990    1.1662320   -1.1757209 
C    -0.9822372    1.9960606    0.8481042 
C    -1.5581180    0.6273863   -2.2808783 
C    -3.1196878    3.1125117    0.4471847 
C    -3.7306678    1.5646030   -2.0662318 
C    -1.2622420    3.0177053    1.9979373 
C    -1.8439050    1.4427931   -3.5896811 
C    -2.3359344    3.9739993    1.4442655 
C    -3.0918700    2.2948828   -3.2584598 
C     0.1146289    0.4029678    2.9603276 
C    -2.5187666   -0.4141246    1.8878297 
C     1.2275299    1.7693868   -1.6274050 
C     0.7974331   -0.3985073   -3.5097824 
C     1.4286761    0.9059666    2.8294370 
C    -3.3665511    0.2440186    2.8055151 
C     2.4150529    1.6061763   -0.8807275 
C     0.1033686   -1.4804126   -4.0936206 
C    -0.3791881    0.0883230    4.2389394 
C    -2.9772562   -1.5958437    1.2674952 
C     0.9021367    3.0510708   -2.1184880 
C     1.8949746    0.1624213   -4.1893502 
C     2.2203046    1.1191961    3.9638458 
C    -4.6361813   -0.2754646    3.0944500 
C     3.2510331    2.6986723   -0.6163647 
C     0.4734801   -1.9602749   -5.3558116 
C     0.4193447    0.3052583    5.3718635 
C    -4.2462938   -2.1136036    1.5574988 
C     1.7333380    4.1457369   -1.8392110 
C     2.2720642   -0.3338195   -5.4459816 
C     1.7131814    0.8262525    5.2402102 
C    -5.0782321   -1.4536647    2.4739540 
C     2.9055175    3.9743643   -1.0876427 
C     1.5570857   -1.3839868   -6.0373202 
H    -1.4941431    3.0582919   -0.9458267 
H    -2.8189858    0.3387577   -0.5103589 
H     0.0391092    2.1545759    0.4638989 
H    -1.9056721   -0.4071100   -2.4654138 
H    -3.7888318    2.4071754    0.9767742 
H    -3.7412420    3.7153151   -0.2351125 
H    -4.2276505    0.6408942   -2.4181647 
H    -4.4926144    2.1561611   -1.5358553 
H    -1.6308723    2.5086042    2.9040004 
H    -0.3366550    3.5329631    2.3007626 
H    -0.9875747    2.0498542   -3.9224362 
H    -2.0457035    0.7378139   -4.4126605 
H    -1.8573904    4.8127851    0.9061356 
H    -2.9659585    4.4095560    2.2378279 
H    -2.7950932    3.3170049   -2.9583288 
H    -3.7734689    2.3966852   -4.1189360 
H     1.8285580    1.1399335    1.8357492 
H    -3.0416808    1.1613951    3.3035210 
H     2.6759368    0.6099623   -0.5079326 
H    -0.7331855   -1.9523783   -3.5642954 
H    -1.3761241   -0.3438437    4.3580188 
H    -2.3301394   -2.1021592    0.5413381 
H     0.0014066    3.2077752   -2.7158774 
H     2.4552030    0.9891623   -3.7427338 
H     3.2341935    1.5178784    3.8523737 
H    -5.2822706    0.2442867    3.8094143 
H     4.1692317    2.5540298   -0.0376447 
H    -0.0816193   -2.7900467   -5.8057576 
H     0.0260492    0.0525079    6.3616127 
H    -4.5860922   -3.0311755    1.0661273 
H     1.4638670    5.1373769   -2.2170474 
H     3.1289513    0.1084645   -5.9642071 
H     2.3308268    0.9953381    6.1282760 
H    -6.0706257   -1.8551110    2.7033571 
H     3.5506009    4.8328741   -0.8744312 
H     1.8479048   -1.7606399   -7.0232903 
