101
Energy =
C    -2.7897965    0.2855018   -1.7989036 
C    -1.9344561   -0.5744609   -2.5194823 
C    -1.6608408   -1.8956874   -2.0360782 
H    -1.3767158   -0.1939766   -3.3855775 
Pd   -0.9545490   -0.4201046   -0.5592914 
P     0.3775055   -1.8884383    0.6766850 
P    -0.2593200    1.5704754    0.5047028 
H    -3.4643500   -0.1919738   -1.0708092 
H    -2.4636006   -2.4090155   -1.4860652 
C    -3.9603708    4.3060147   -2.7537021 
C    -4.7466700    3.5089310   -1.9082909 
C    -4.3435416    2.2042265   -1.6008635 
C    -3.1614681    1.6595993   -2.1561291 
C    -2.3953642    2.4660281   -3.0302317 
C    -2.7826860    3.7784580   -3.3127878 
H    -4.2646574    5.3324083   -2.9829458 
H    -5.6706702    3.9082807   -1.4778098 
H    -4.9468585    1.5940114   -0.9199713 
H    -1.4807366    2.0718059   -3.4793248 
H    -2.1646150    4.3940048   -3.9742123 
C     1.1672058   -4.4806692   -4.0068526 
C     1.4800037   -3.1255118   -3.8060062 
C     0.5665008   -2.2829279   -3.1631321 
C    -0.6768148   -2.7777110   -2.7027873 
C    -0.9694695   -4.1433153   -2.8964388 
C    -0.0590345   -4.9842007   -3.5496005 
H     1.8797055   -5.1402062   -4.5128994 
H     2.4392151   -2.7260374   -4.1525623 
H     0.8237278   -1.2298229   -2.9925415 
H    -1.9187880   -4.5473791   -2.5301338 
H    -0.3060014   -6.0410202   -3.6928340 
C     2.5384345    0.9446160    1.1614274 
C     2.6138155   -0.0844628    0.0116849 
C     1.1509003    1.3762733    1.7376509 
C     2.1655608   -1.5407317    0.3274291 
C     3.2263746    2.2889420    0.8201488 
C     4.0853126   -0.3899909   -0.3792396 
C     1.4848304    2.6650694    2.5438029 
C     3.2857108   -2.0884588    1.2403078 
C     2.7576198    3.2838024    1.9033818 
C     4.5759412   -1.4201082    0.6740487 
C    -1.5702572    2.4357681    1.4598663 
C     0.3076897    2.8031049   -0.7391111 
C    -0.0239290   -1.8671767    2.4736557 
C     0.1852643   -3.6887125    0.3291665 
C    -1.7626704    2.1851400    2.8369344 
C     0.3793260    4.1815791   -0.4484846 
C     0.7047506   -2.6372876    3.4060888 
C    -1.0398804   -4.2810780    0.7082192 
C    -2.4593106    3.3063686    0.7942102 
C     0.7464943    2.3457580   -1.9981152 
C    -1.1674205   -1.1657798    2.9051063 
C     1.1683689   -4.4856165   -0.2858534 
C    -2.8223431    2.7881026    3.5267140 
C     0.8932077    5.0759200   -1.3968939 
C     0.3215307   -2.6558756    4.7532115 
C    -1.2664517   -5.6450202    0.4922938 
C    -3.5158206    3.9085969    1.4913910 
C     1.2681139    3.2396967   -2.9423321 
C    -1.5560747   -1.1974727    4.2526347 
C     0.9402372   -5.8546704   -0.4919998 
C    -3.7040590    3.6499019    2.8562973 
C     1.3436294    4.6077695   -2.6414093 
C    -0.8047153   -1.9329682    5.1799359 
C    -0.2716474   -6.4383982   -0.1021346 
H     3.0714376    0.5206346    2.0359602 
H     2.0535651    0.3082102   -0.8545028 
H     0.7623819    0.5878708    2.4049831 
H     2.2398863   -2.0580854   -0.6513302 
H     2.9101203    2.6212548   -0.1843483 
H     4.3237608    2.1932453    0.7978226 
H     4.0889569   -0.8457091   -1.3856267 
H     4.7212826    0.5064494   -0.4333970 
H     0.6408314    3.3727831    2.5801683 
H     1.6814621    2.3718387    3.5898387 
H     3.1119742   -1.7756291    2.2833197 
H     3.3293942   -3.1897405    1.2344040 
H     3.5374368    3.4250602    2.6703681 
H     2.5550820    4.2766480    1.4698879 
H     5.1403839   -0.9250940    1.4821464 
H     5.2542256   -2.1623907    0.2223282 
H    -1.0791018    1.5307780    3.3847011 
H     0.0279807    4.5593634    0.5167545 
H     1.5534833   -3.2441265    3.0784139 
H    -1.8140741   -3.6721895    1.1898619 
H    -2.3217859    3.5274852   -0.2678382 
H     0.6688303    1.2779938   -2.2369918 
H    -1.7584985   -0.5972610    2.1763094 
H     2.1147079   -4.0549994   -0.6236059 
H    -2.9517849    2.5906122    4.5961337 
H     0.9439738    6.1439905   -1.1614003 
H     0.8964534   -3.2494619    5.4714770 
H    -2.2186052   -6.0920119    0.7965349 
H    -4.1920089    4.5840283    0.9575912 
H     1.6084656    2.8694355   -3.9149902 
H    -2.4482347   -0.6489022    4.5724394 
H     1.7154443   -6.4614094   -0.9706498 
H    -4.5283858    4.1240984    3.3987475 
H     1.7484304    5.3102332   -3.3772677 
H    -1.1037103   -1.9577073    6.2329239 
H    -0.4447831   -7.5071834   -0.2643235 
