101
Energy =
C     2.2801784   -2.3034658   -0.5792830 
C     2.1327267   -2.3533844    0.8275548 
C     0.9085359   -2.7285569    1.4400183 
H     2.9404047   -1.9578069    1.4554315 
Pd    0.6030538   -0.9062253    0.1162624 
P    -1.4164074   -0.2378690    1.0754063 
P     0.6377340    0.7270675   -1.5460309 
H     1.5528194   -2.8727861   -1.1785807 
H     0.2305590   -3.3700762    0.8584718 
C     5.8951455   -1.3580705   -2.7051507 
C     4.6769255   -1.4937843   -3.3887367 
C     3.5084734   -1.8001203   -2.6853971 
C     3.5283148   -1.9637163   -1.2811984 
C     4.7634027   -1.8245279   -0.6064463 
C     5.9339784   -1.5304559   -1.3127804 
H     6.8117540   -1.1244564   -3.2562350 
H     4.6381110   -1.3574434   -4.4740142 
H     2.5589335   -1.8977352   -3.2236505 
H     4.8193824   -1.9740907    0.4764993 
H     6.8836735   -1.4412058   -0.7752518 
C     0.1976729   -2.9073001    5.6824768 
C     1.2687751   -2.1415262    5.1911212 
C     1.5111680   -2.0696035    3.8169153 
C     0.6864249   -2.7603476    2.8974814 
C    -0.3805191   -3.5329937    3.4080359 
C    -0.6222019   -3.6056749    4.7851806 
H     0.0095985   -2.9614780    6.7596638 
H     1.9167019   -1.5967928    5.8856981 
H     2.3487920   -1.4625872    3.4567711 
H    -1.0242888   -4.0822967    2.7128131 
H    -1.4556915   -4.2109555    5.1562311 
C    -2.5519996    2.2567975   -0.1079450 
C    -1.5251286    2.8157126   -1.1383504 
C    -2.7158066    0.7394805    0.1592678 
C    -0.0199999    2.4306520   -1.1458549 
C    -3.9696006    2.5176678   -0.6952345 
C    -1.3474196    4.3322057   -0.8337343 
C    -3.2947098    0.1668307   -1.1503327 
C     0.5541133    3.0678861    0.1375317 
C    -4.2213770    1.3177336   -1.6526615 
C    -0.2658560    4.3858769    0.2808960 
C    -1.1927465    0.7288428    2.6214182 
C    -2.4181916   -1.7246414    1.5044639 
C     2.3333132    1.2035053   -2.0851403 
C    -0.2352897    0.2103513   -3.0794049 
C    -2.2638823    1.3594431    3.2923038 
C    -2.5333777   -2.7304626    0.5199865 
C     3.3414080    1.2701265   -1.1021915 
C    -0.6999870    1.1321574   -4.0425060 
C     0.1113119    0.8663706    3.1359060 
C    -3.0715407   -1.8907584    2.7393460 
C     2.6375151    1.5591001   -3.4138468 
C    -0.4551727   -1.1669883   -3.2923489 
C    -2.0275584    2.1020267    4.4568725 
C    -3.3017171   -3.8761040    0.7627580 
C     4.6276164    1.7095843   -1.4381973 
C    -1.3769609    0.6813051   -5.1847023 
C     0.3454337    1.6075782    4.3014069 
C    -3.8424870   -3.0393143    2.9776745 
C     3.9270940    1.9965106   -3.7456908 
C    -1.1259072   -1.6158675   -4.4376262 
C    -0.7242272    2.2258386    4.9640505 
C    -3.9604257   -4.0310519    1.9940831 
C     4.9214596    2.0760688   -2.7600148 
C    -1.5921657   -0.6908987   -5.3838580 
H    -2.4086801    2.7793478    0.8535289 
H    -1.9391906    2.6586310   -2.1481091 
H    -3.5386956    0.6827340    0.9006729 
H     0.3982999    3.0074750   -1.9950933 
H    -4.0482738    3.4922528   -1.2054057 
H    -4.7106194    2.5210312    0.1234467 
H    -0.9905772    4.8496925   -1.7416741 
H    -2.2910091    4.8186783   -0.5350370 
H    -2.4929235   -0.0412600   -1.8770958 
H    -3.8396465   -0.7753666   -0.9815404 
H     0.3873849    2.4027712    1.0019443 
H     1.6395250    3.2425491    0.0606686 
H    -5.2822308    1.0188663   -1.6461772 
H    -3.9727518    1.5806485   -2.6949968 
H    -0.7279215    4.4415699    1.2811308 
H     0.3722406    5.2782373    0.1752367 
H    -3.2877775    1.2772605    2.9121950 
H    -2.0130306   -2.6147000   -0.4392757 
H     3.1166119    0.9612413   -0.0739402 
H    -0.5362004    2.2063384   -3.9102136 
H     0.9440344    0.3935468    2.6037030 
H    -2.9618772   -1.1415155    3.5286367 
H     1.8757912    1.4845108   -4.1960185 
H    -0.1128502   -1.8867583   -2.5401310 
H    -2.8646419    2.5873617    4.9692266 
H    -3.3857727   -4.6496719   -0.0075995 
H     5.4061468    1.7495664   -0.6700917 
H    -1.7361391    1.4061866   -5.9225026 
H     1.3644072    1.7025978    4.6901965 
H    -4.3409197   -3.1626208    3.9447225 
H     4.1563981    2.2686033   -4.7812429 
H    -1.2913152   -2.6877301   -4.5874177 
H    -0.5444548    2.8081669    5.8736131 
H    -4.5590083   -4.9273736    2.1861910 
H     5.9294953    2.4121609   -3.0235112 
H    -2.1236890   -1.0383291   -6.2756410 
