101
Energy =
C     1.6116935   -2.7096704   -0.9701379 
C     1.7169160   -2.7507708    0.4490015 
C     0.5721184   -2.9399648    1.2637706 
H     2.6756553   -2.4885912    0.9140868 
Pd    0.3652104   -1.0944398   -0.0486057 
P    -0.8632012    0.2402654    1.4507425 
P     0.2698410    0.3233489   -1.9164486 
H     0.7922237   -3.2805386   -1.4332157 
H    -0.2919100   -3.4326985    0.7924120 
C     4.9877008   -2.0030065   -3.5453514 
C     4.8700671   -1.2910547   -2.3399516 
C     3.7722358   -1.5068743   -1.5009676 
C     2.7662339   -2.4364671   -1.8508937 
C     2.8881594   -3.1312223   -3.0727398 
C     3.9926685   -2.9220593   -3.9078542 
H     5.8482671   -1.8353771   -4.2011815 
H     5.6360177   -0.5618035   -2.0557437 
H     3.6813769   -0.9341616   -0.5715934 
H     2.1114940   -3.8453426   -3.3656120 
H     4.0712255   -3.4744125   -4.8497010 
C     0.5372471   -3.2661020    5.5491319 
C    -0.5940255   -3.6093341    4.7945299 
C    -0.5763274   -3.4684986    3.4016879 
C     0.5725565   -2.9836035    2.7346159 
C     1.6929438   -2.6093410    3.5131023 
C     1.6765182   -2.7583898    4.9021983 
H     0.5312220   -3.3865625    6.6373425 
H    -1.4893526   -3.9987533    5.2901177 
H    -1.4577993   -3.7506188    2.8155517 
H     2.5873242   -2.2020424    3.0318823 
H     2.5560052   -2.4713991    5.4870544 
C    -2.0625520    2.3417750   -0.2321640 
C    -2.4759062    1.1705460   -1.1526963 
C    -1.0243805    2.0367452    0.9093528 
C    -1.4828287    0.8530087   -2.3027838 
C    -3.2218945    3.0338291    0.5177439 
C    -3.7384591    1.4601483   -2.0050379 
C    -1.3517150    3.0371828    2.0662677 
C    -1.7231119    1.9738632   -3.3436933 
C    -2.5014039    3.9211001    1.5400985 
C    -3.2409586    2.3001442   -3.2079795 
C     0.0214213    0.4190800    3.0538136 
C    -2.5240337   -0.4305168    1.8755838 
C     1.3946985    1.7635054   -1.7143943 
C     0.7528696   -0.4270689   -3.5295563 
C     1.2717078    1.0770014    3.0541229 
C    -2.9435980   -1.6151186    1.2349347 
C     1.4797860    2.8303723   -2.6360815 
C    -0.0384048   -1.4797848   -4.0402722 
C    -0.4928025   -0.0717781    4.2688096 
C    -3.3974903    0.1921223    2.7937413 
C     2.2576706    1.7610951   -0.5982665 
C     1.8885049   -0.0141319   -4.2516329 
C     1.9774923    1.2614667    4.2486981 
C    -4.2036488   -2.1673386    1.5006552 
C     2.3777446    3.8841934   -2.4149608 
C     0.2672054   -2.0647826   -5.2751281 
C     0.2171093    0.1194040    5.4632149 
C    -4.6582930   -0.3605533    3.0573416 
C     3.1575288    2.8124712   -0.3805455 
C     2.1936020   -0.6074724   -5.4854397 
C     1.4477092    0.7883879    5.4596343 
C    -5.0639653   -1.5394454    2.4131988 
C     3.2111505    3.8826240   -1.2857270 
C     1.3791842   -1.6207854   -6.0073898 
H    -1.5841770    3.1207886   -0.8582340 
H    -2.6515352    0.2747835   -0.5359384 
H    -0.0073812    2.2288666    0.5285018 
H    -1.8530900   -0.0907101   -2.7488912 
H    -3.8490096    2.2757316    1.0242815 
H    -3.8751746    3.6110248   -0.1572768 
H    -4.1368322    0.4927194   -2.3601235 
H    -4.5481354    1.9453206   -1.4386900 
H    -1.6588496    2.5018499    2.9802733 
H    -0.4590827    3.6185140    2.3484215 
H    -1.1284651    2.8660286   -3.0925183 
H    -1.4282349    1.6543086   -4.3568251 
H    -2.0924446    4.8111531    1.0278602 
H    -3.1602240    4.2823403    2.3474862 
H    -3.3831233    3.3784221   -3.0221254 
H    -3.7983746    2.0586386   -4.1277206 
H     1.6889248    1.4656463    2.1198893 
H    -2.2742273   -2.0965894    0.5119878 
H     0.8678104    2.8311975   -3.5413841 
H    -0.8995389   -1.8518613   -3.4717147 
H    -1.4407839   -0.6151042    4.2902896 
H    -3.0958942    1.1048549    3.3149562 
H     2.2139056    0.9133158    0.0972965 
H     2.5455466    0.7635152   -3.8530629 
H     2.9407250    1.7823841    4.2354535 
H    -4.5140456   -3.0866000    0.9932520 
H     2.4312585    4.7074953   -3.1347551 
H    -0.3628611   -2.8714116   -5.6642515 
H    -0.1958795   -0.2694686    6.3992321 
H    -5.3255337    0.1323031    3.7719125 
H     3.8188008    2.7931381    0.4921242 
H     3.0804841   -0.2763971   -6.0350407 
H     1.9969350    0.9368463    6.3950181 
H    -6.0495833   -1.9674702    2.6229938 
H     3.9100395    4.7088510   -1.1194753 
H     1.6178070   -2.0762286   -6.9738955 
