101
Energy =
C     1.6936359   -2.5959569   -1.0846574 
C     1.8445129   -2.7059975    0.3154862 
C     0.7188403   -2.9970566    1.1495670 
H     2.7993555   -2.4297020    0.7819927 
Pd    0.3468274   -1.1130278    0.0408002 
P    -1.4269685   -0.2722793    1.2698137 
P     0.6301263    0.7598277   -1.3325739 
H     0.7999727   -3.0688347   -1.5223263 
H    -0.0632870   -3.6450803    0.7274369 
C     4.7231071   -1.7663997   -4.0161146 
C     3.5141222   -2.3762402   -4.3806738 
C     2.5326937   -2.6206038   -3.4140236 
C     2.7478509   -2.2804091   -2.0589205 
C     3.9747336   -1.6716596   -1.7050515 
C     4.9467163   -1.4109977   -2.6747478 
H     5.4903846   -1.5682547   -4.7716880 
H     3.3289670   -2.6530223   -5.4232197 
H     1.5822204   -3.0788721   -3.7076934 
H     4.1726367   -1.3953957   -0.6660068 
H     5.8875113   -0.9328736   -2.3830871 
C     0.8764384   -2.9127219    5.4535675 
C     1.6252236   -1.9867789    4.7078773 
C     1.5849296   -2.0152348    3.3106437 
C     0.7936834   -2.9665913    2.6258272 
C     0.0498319   -3.8912135    3.3885335 
C     0.0919328   -3.8653626    4.7881129 
H     0.9045196   -2.8883422    6.5478010 
H     2.2366239   -1.2361351    5.2196531 
H     2.1578174   -1.2761118    2.7385971 
H    -0.5674260   -4.6360280    2.8767433 
H    -0.4959073   -4.5902660    5.3602047 
C    -2.9900613    1.6353454   -0.4952323 
C    -2.0328558    2.1130522   -1.6347756 
C    -2.8906122    0.2530405    0.2255825 
C    -0.5013467    2.2545597   -1.4158933 
C    -4.3959811    1.4232573   -1.1325089 
C    -2.3376124    3.6255687   -1.8680124 
C    -3.3367552   -0.7851745   -0.8332414 
C    -0.3767032    3.3732256   -0.3607761 
C    -4.3427278   -0.0041945   -1.7279099 
C    -1.4858764    4.3740426   -0.8012970 
C    -1.0240705    1.1745618    2.3185987 
C    -2.2121830   -1.4717040    2.4304856 
C     2.2479706    1.5553318   -0.9539347 
C     0.6789630    0.2734416   -3.1103878 
C    -2.0285112    2.0195791    2.8389434 
C    -2.7129295   -2.6888847    1.9188634 
C     2.6991027    2.7065543   -1.6367034 
C    -0.4161765   -0.4696313   -3.6027856 
C     0.3267890    1.4550418    2.6007024 
C    -2.3088467   -1.2202733    3.8129209 
C     3.0371885    1.0322460    0.0882314 
C     1.7311715    0.6019672   -3.9853205 
C    -1.6765858    3.1411626    3.6014999 
C    -3.3554995   -3.6038572    2.7621220 
C     3.9195663    3.3016066   -1.2912940 
C    -0.4777522   -0.8393544   -4.9523041 
C     0.6756506    2.5734616    3.3691349 
C    -2.9344243   -2.1500873    4.6569536 
C     4.2553403    1.6308956    0.4380443 
C     1.6661554    0.2284639   -5.3360723 
C    -0.3254690    3.4221928    3.8631893 
C    -3.4738931   -3.3329216    4.1340928 
C     4.7003580    2.7653230   -0.2550206 
C     0.5617209   -0.4818249   -5.8254864 
H    -3.0199983    2.4277861    0.2715827 
H    -2.2288068    1.5226754   -2.5464275 
H    -3.6958067    0.2948260    0.9848054 
H    -0.1417706    2.6885615   -2.3709827 
H    -4.6473710    2.1855309   -1.8873523 
H    -5.1672865    1.4820039   -0.3442775 
H    -2.0178043    3.9047816   -2.8867717 
H    -3.4102754    3.8660040   -1.7928657 
H    -2.4644927   -1.1454039   -1.4101119 
H    -3.7998898   -1.6673376   -0.3667762 
H    -0.5738781    2.9848963    0.6485335 
H     0.6273466    3.8237246   -0.3440091 
H    -5.3373898   -0.4783819   -1.7402067 
H    -3.9908134    0.0215407   -2.7738030 
H    -2.0997942    4.6768449    0.0637945 
H    -1.0531859    5.2974011   -1.2203692 
H    -3.0863015    1.8051433    2.6542097 
H    -2.5896434   -2.9312847    0.8580820 
H     2.0991823    3.1480198   -2.4396676 
H    -1.2219602   -0.7670714   -2.9226694 
H     1.1043846    0.8033122    2.1935428 
H    -1.8907340   -0.3033690    4.2378781 
H     2.6843631    0.1433061    0.6254817 
H     2.6190716    1.1220045   -3.6160906 
H    -2.4597448    3.7975115    3.9947203 
H    -3.7527673   -4.5366653    2.3483758 
H     4.2601478    4.1912560   -1.8310141 
H    -1.3365183   -1.4098906   -5.3212815 
H     1.7303280    2.7867836    3.5704030 
H    -2.9967766   -1.9445463    5.7304888 
H     4.8564411    1.2100101    1.2509761 
H     2.4956531    0.4832358   -6.0035373 
H    -0.0557183    4.3026519    4.4554524 
H    -3.9706666   -4.0506093    4.7949824 
H     5.6518131    3.2357731    0.0135363 
H     0.5159334   -0.7694168   -6.8809140 
