101
Energy =
C     2.3742310   -2.1279279   -0.5926691 
C     2.6028754   -1.6375899    0.7140485 
C     1.7447772   -2.0111257    1.7959656 
H     3.3480400   -0.8479432    0.8755594 
Pd    0.5737365   -0.9706277    0.2280676 
P    -1.2833358   -0.4067912    1.5442180 
P     0.0327631    0.2198758   -1.7239450 
H     1.7602087   -3.0382167   -0.6747873 
H     1.2972559   -3.0156682    1.7691129 
C     4.6160307   -1.3083422   -4.1644490 
C     3.5479012   -2.2173750   -4.1797433 
C     2.8244528   -2.4654744   -3.0083977 
C     3.1476431   -1.8057274   -1.7991268 
C     4.2195900   -0.8827692   -1.8035523 
C     4.9471705   -0.6432483   -2.9722213 
H     5.1909289   -1.1182360   -5.0766321 
H     3.2834087   -2.7420469   -5.1035551 
H     1.9985647   -3.1839661   -3.0238027 
H     4.4964790   -0.3554708   -0.8861310 
H     5.7777970    0.0690366   -2.9549347 
C     2.1431496   -0.2780734    5.7198812 
C     2.2869710    0.5307769    4.5798376 
C     2.1561574   -0.0264613    3.3031916 
C     1.8740662   -1.4034276    3.1385261 
C     1.7178497   -2.1994175    4.2919482 
C     1.8588602   -1.6429861    5.5697263 
H     2.2479340    0.1565573    6.7192710 
H     2.5017122    1.5994901    4.6881154 
H     2.2523045    0.6140712    2.4176395 
H     1.4827899   -3.2632610    4.1837181 
H     1.7363560   -2.2785180    6.4525748 
C    -0.3865367    2.3277372    0.9713658 
C    -1.1124576    2.6025876   -0.3653394 
C    -1.0885148    1.3853102    1.9925517 
C    -1.3448392    1.4809430   -1.4349835 
C    -0.3415479    3.6072468    1.8501229 
C    -0.4906723    3.7876108   -1.1688036 
C    -2.2813896    2.2152010    2.5186734 
C    -1.7926594    2.3310180   -2.6461314 
C    -1.7409515    3.6787095    2.5170029 
C    -0.8367992    3.5376577   -2.6590929 
C    -1.4099030   -1.2885633    3.1569526 
C    -2.9760647   -0.7254508    0.8850684 
C     1.5079519    1.0983628   -2.3986411 
C    -0.5738198   -0.9049195   -3.0569745 
C    -1.6310857   -2.6818914    3.0929960 
C    -4.1085958   -0.4601063    1.6865230 
C     2.3088254    1.8247558   -1.4894066 
C    -0.9363730   -0.4977269   -4.3607120 
C    -1.3202061   -0.6657874    4.4145908 
C    -3.1566727   -1.3067304   -0.3838364 
C     1.8870408    1.0706521   -3.7552922 
C    -0.6727691   -2.2772804   -2.7368676 
C    -1.7754864   -3.4324756    4.2649892 
C    -5.3936889   -0.7298178    1.1996238 
C     3.4030672    2.5751488   -1.9356095 
C    -1.3861120   -1.4334162   -5.3029253 
C    -1.4712657   -1.4213583    5.5877326 
C    -4.4440813   -1.5820980   -0.8669587 
C     2.9914368    1.8123207   -4.1979110 
C    -1.1278338   -3.2121254   -3.6759702 
C    -1.7023049   -2.8008835    5.5175910 
C    -5.5648371   -1.2846487   -0.0794513 
C     3.7378481    2.5847882   -3.2975432 
C    -1.4862247   -2.7908347   -4.9644191 
H     0.6326064    1.9557952    0.7659790 
H    -2.1470074    2.9035770   -0.1105278 
H    -0.3505559    1.2828343    2.8135990 
H    -2.1575144    0.8096287   -1.1109030 
H    -0.0837040    4.5199097    1.2915123 
H     0.4383008    3.4707829    2.6209084 
H    -0.8992028    4.7473286   -0.8119617 
H     0.6016010    3.8308628   -1.0192650 
H    -3.1474529    2.1131552    1.8430738 
H    -2.6120899    1.8816319    3.5156446 
H    -1.8360513    1.7827348   -3.5973609 
H    -2.8263326    2.6664396   -2.4379295 
H    -1.6787202    4.0928635    3.5365818 
H    -2.4171485    4.3387428    1.9475615 
H     0.0766850    3.2942347   -3.2276701 
H    -1.2937391    4.4172216   -3.1415513 
H    -1.7035411   -3.1768330    2.1168569 
H    -3.9857445   -0.0662779    2.7001383 
H     2.0760090    1.7990708   -0.4202687 
H    -0.8619577    0.5505023   -4.6595695 
H    -1.1206100    0.4056807    4.5001294 
H    -2.2864378   -1.5536933   -0.9968088 
H     1.3372195    0.4588456   -4.4733233 
H    -0.3881821   -2.6096820   -1.7308091 
H    -1.9517569   -4.5113619    4.2019777 
H    -6.2657068   -0.5160104    1.8262961 
H     4.0003458    3.1444428   -1.2157858 
H    -1.6594049   -1.0963261   -6.3081106 
H    -1.3975475   -0.9238826    6.5600202 
H    -4.5645105   -2.0347020   -1.8566743 
H     3.2704886    1.7781197   -5.2559330 
H    -1.1990568   -4.2693125   -3.4000405 
H    -1.8203829   -3.3860153    6.4353744 
H    -6.5717229   -1.4975313   -0.4532064 
H     4.5920848    3.1711663   -3.6510137 
H    -1.8404061   -3.5169946   -5.7033093 
