101
Energy =
C     2.2525963   -2.3895623   -0.5433691 
C     2.5566251   -1.8357689    0.7182729 
C     1.6909646   -2.0637428    1.8372982 
H     3.3882507   -1.1257935    0.8197793 
Pd    0.5785194   -0.9937357    0.2632091 
P    -1.2175003   -0.3296694    1.6018437 
P    -0.0079966    0.2591825   -1.6497421 
H     1.5448768   -3.2334104   -0.5500966 
H     1.1619822   -3.0276118    1.8784660 
C     4.4608643   -2.0481578   -4.2113618 
C     3.5729760   -3.1140978   -4.0023260 
C     2.8544400   -3.2027474   -2.8043874 
C     3.0310487   -2.2436894   -1.7790268 
C     3.9513858   -1.1910677   -1.9939380 
C     4.6460787   -1.0868385   -3.2017542 
H     5.0127198   -1.9677680   -5.1535020 
H     3.4313781   -3.8727695   -4.7788946 
H     2.1430600   -4.0222746   -2.6554834 
H     4.1136139   -0.4380886   -1.2189799 
H     5.3377256   -0.2526968   -3.3573199 
C     2.3789537   -0.1727947    5.6468288 
C     2.5050834    0.5731275    4.4626581 
C     2.2785807   -0.0353873    3.2232792 
C     1.9166313   -1.4008970    3.1412675 
C     1.7771799   -2.1320279    4.3387226 
C     2.0142111   -1.5250610    5.5788338 
H     2.5592712    0.3013799    6.6170515 
H     2.7809252    1.6322348    4.5074294 
H     2.3600178    0.5564540    2.3027546 
H     1.4800701   -3.1848762    4.2948894 
H     1.9038504   -2.1106246    6.4971568 
C    -0.4776970    2.4279631    0.8638217 
C    -1.2736477    2.6252528   -0.4452724 
C    -1.0972664    1.4900562    1.9398685 
C    -1.4677604    1.4290405   -1.4327331 
C    -0.4411364    3.7318823    1.7064188 
C    -0.7010271    3.7500801   -1.3420133 
C    -2.3016152    2.2898422    2.4855589 
C    -1.9382550    2.1223941   -2.7442237 
C    -1.8018275    3.7666930    2.4540220 
C    -1.3774520    3.5708290   -2.7180707 
C    -1.3463188   -1.0978231    3.2728140 
C    -2.8437253   -0.8289992    0.8965359 
C     1.4089811    1.2967400   -2.2007778 
C    -0.4573661   -0.7450540   -3.1223033 
C    -1.6604125   -2.4743962    3.3161555 
C    -4.0629136   -0.4693584    1.5111831 
C     1.4962628    1.8107166   -3.5115151 
C    -1.7975147   -1.1099137   -3.3806876 
C    -1.1458562   -0.4040564    4.4803976 
C    -2.8625100   -1.7032251   -0.2085627 
C     2.4030439    1.6421107   -1.2628748 
C     0.5588837   -1.2359877   -3.9694804 
C    -1.7887761   -3.1355775    4.5428187 
C    -5.2763274   -0.9367310    0.9904600 
C     2.5508192    2.6627220   -3.8654790 
C    -2.1093044   -1.9503469   -4.4570715 
C    -1.2844685   -1.0691662    5.7080953 
C    -4.0788588   -2.1807051   -0.7187607 
C     3.4522489    2.5008618   -1.6155467 
C     0.2393210   -2.0738314   -5.0469010 
C    -1.6086222   -2.4311671    5.7443353 
C    -5.2874610   -1.7880576   -0.1267977 
C     3.5262470    3.0141493   -2.9189659 
C    -1.0921782   -2.4373434   -5.2924536 
H     0.5447589    2.0971086    0.6122205 
H    -2.3074452    2.9204173   -0.1758472 
H    -0.3244251    1.4530240    2.7351426 
H    -2.2481864    0.7501638   -1.0479257 
H    -0.2556258    4.6368036    1.1083486 
H     0.3881295    3.6525746    2.4319828 
H    -0.8917065    4.7487872   -0.9175496 
H     0.3944732    3.6370024   -1.4230471 
H    -3.1737562    2.1610175    1.8233101 
H    -2.6046737    1.9561469    3.4913381 
H    -1.6389009    1.5671752   -3.6480013 
H    -3.0421789    2.1348771   -2.7464302 
H    -1.6897981    4.1800129    3.4697562 
H    -2.5287826    4.4088030    1.9287517 
H    -0.6623548    3.7467573   -3.5381425 
H    -2.1970385    4.2968188   -2.8499161 
H    -1.8205318   -3.0269427    2.3828407 
H    -4.0663941    0.1518475    2.4112590 
H     0.7437472    1.5414521   -4.2593147 
H    -2.6086670   -0.7296887   -2.7538435 
H    -0.8685916    0.6533224    4.4849500 
H    -1.9150403   -2.0148304   -0.6659157 
H     2.3522868    1.2245522   -0.2496922 
H     1.6019627   -0.9556678   -3.7984045 
H    -2.0381994   -4.2016096    4.5613687 
H    -6.2178578   -0.6468498    1.4681899 
H     2.6094232    3.0559430   -4.8856373 
H    -3.1542374   -2.2163743   -4.6486420 
H    -1.1268210   -0.5151377    6.6389065 
H    -4.0768864   -2.8616254   -1.5763273 
H     4.2155303    2.7628624   -0.8754348 
H     1.0417464   -2.4409961   -5.6947583 
H    -1.7160481   -2.9457380    6.7046706 
H    -6.2388251   -2.1566062   -0.5240903 
H     4.3457752    3.6838318   -3.1995156 
H    -1.3387540   -3.0900481   -6.1361537 
