101
Energy =
C     2.3153973   -2.0966599   -0.8057990 
C     2.4632279   -2.1832026    0.6046773 
C     1.4202936   -2.6691909    1.4303706 
H     3.3511744   -1.7409312    1.0722325 
Pd    0.7268812   -0.8570092    0.2280081 
P    -0.9234325    0.0483206    1.6121866 
P     0.0460834    0.3026248   -1.7019239 
H     1.5990959   -2.7823833   -1.2824287 
H     0.6488604   -3.2836565    0.9406546 
C     5.2844216   -0.5419978   -3.5085983 
C     4.3038811   -1.4385810   -3.9568128 
C     3.3471611   -1.9386285   -3.0646991 
C     3.3442557   -1.5464990   -1.7070598 
C     4.3479967   -0.6513909   -1.2681181 
C     5.3062705   -0.1576575   -2.1574135 
H     6.0328663   -0.1492932   -4.2043659 
H     4.2876287   -1.7568923   -5.0045836 
H     2.5949281   -2.6518176   -3.4154498 
H     4.3702798   -0.3225398   -0.2233121 
H     6.0719803    0.5380544   -1.7987026 
C     1.5704791   -3.2860836    5.6822401 
C     2.6901513   -2.7574938    5.0200462 
C     2.6507321   -2.5258901    3.6415615 
C     1.4917044   -2.8319127    2.8902919 
C     0.3718049   -3.3601621    3.5741415 
C     0.4084391   -3.5823452    4.9536945 
H     1.6043533   -3.4665860    6.7614352 
H     3.6022474   -2.5304276    5.5817318 
H     3.5405424   -2.1266764    3.1444099 
H    -0.5380306   -3.5952183    3.0107202 
H    -0.4718356   -3.9864707    5.4630448 
C    -0.7209619    2.7181643    0.2837302 
C    -1.7816877    2.4255289   -0.7995828 
C    -0.8165994    1.9073532    1.6122566 
C    -1.6624957    1.0813390   -1.5989621 
C    -0.8276927    4.1533301    0.8628554 
C    -1.8716194    3.4888524   -1.9165658 
C    -1.7860030    2.6862874    2.5634030 
C    -2.3306176    1.3486550   -2.9875013 
C    -1.9772370    4.0662671    1.8824107 
C    -2.7763791    2.8276150   -2.9641630 
C    -0.8251799   -0.2541539    3.4204687 
C    -2.5873004   -0.5928697    1.1527656 
C     1.2224211    1.5298713   -2.3923818 
C    -0.2362888   -0.9810792   -2.9877180 
C     0.4007567    0.0085820    4.0674533 
C    -3.7712074    0.1715355    1.0949270 
C     1.0491557    2.1598836   -3.6453293 
C    -1.2029893   -1.9727207   -2.7027838 
C    -1.9388747   -0.6603803    4.1806941 
C    -2.6510659   -1.9702586    0.8436950 
C     2.3296995    1.8863487   -1.5964290 
C     0.4771765   -1.0442782   -4.1992476 
C     0.4989675   -0.0975264    5.4588221 
C    -4.9821186   -0.4259589    0.7151604 
C     1.9666579    3.1244575   -4.0818464 
C    -1.4588033   -2.9968899   -3.6212738 
C    -1.8316248   -0.7734602    5.5745474 
C    -3.8645684   -2.5675249    0.4783892 
C     3.2447163    2.8520228   -2.0352313 
C     0.2153061   -2.0746413   -5.1170785 
C    -0.6184296   -0.4856735    6.2151170 
C    -5.0328401   -1.7932354    0.4062823 
C     3.0644021    3.4726434   -3.2789307 
C    -0.7502660   -3.0493455   -4.8336885 
H     0.2748591    2.5737163   -0.1666028 
H    -2.7770977    2.3886594   -0.3153000 
H     0.1945528    1.9914275    2.0566624 
H    -2.2165379    0.2897104   -1.0693974 
H    -0.9743920    4.9279875    0.0943105 
H     0.1182713    4.3917649    1.3841084 
H    -2.2767762    4.4489788   -1.5575193 
H    -0.8632299    3.6834290   -2.3285711 
H    -2.7421724    2.1664815    2.7310026 
H    -1.3183253    2.7791982    3.5569330 
H    -1.6261613    1.1608284   -3.8144304 
H    -3.1714770    0.6554483   -3.1513465 
H    -1.9700575    4.8971887    2.6067639 
H    -2.9492480    4.1059816    1.3577499 
H    -2.7119670    3.3037860   -3.9568108 
H    -3.8288560    2.9002522   -2.6351664 
H     1.2823799    0.2885952    3.4783671 
H    -3.7563787    1.2365933    1.3359872 
H     0.2009251    1.9030641   -4.2857088 
H    -1.7591412   -1.9426041   -1.7581790 
H    -2.8920639   -0.8786164    3.6887375 
H    -1.7364178   -2.5730612    0.8823748 
H     2.4652731    1.3981246   -0.6244929 
H     1.2491562   -0.3040147   -4.4254891 
H     1.4540964    0.1052425    5.9527918 
H    -5.8912153    0.1821836    0.6655654 
H     1.8225411    3.6065102   -5.0542556 
H    -2.2138426   -3.7561237   -3.3916938 
H    -2.7029432   -1.0835328    6.1607749 
H    -3.8959671   -3.6365463    0.2436871 
H     4.1023740    3.1134200   -1.4072578 
H     0.7757420   -2.1130339   -6.0571287 
H    -0.5385721   -0.5729743    7.3035067 
H    -5.9809477   -2.2548166    0.1121889 
H     3.7787026    4.2264974   -3.6256763 
H    -0.9513338   -3.8498885   -5.5529298 
