101
Energy =
C    -3.0547872    0.5594453   -1.0629887 
C    -2.7672014   -0.6998001   -1.6347096 
C    -2.5938777   -1.8535964   -0.8061534 
H    -2.5370181   -0.7697962   -2.7060891 
Pd   -1.0920670   -0.3182727   -0.2548003 
P     0.3713182   -1.6196780    0.9807965 
P     0.2080446    1.6267600   -0.2452919 
H    -3.4714872    0.5533891   -0.0430561 
H    -3.1910015   -1.9017350    0.1164271 
C    -3.6884405    4.3007581   -3.0774871 
C    -4.1551363    4.0966403   -1.7709724 
C    -3.9213773    2.8775931   -1.1256766 
C    -3.2353394    1.8293515   -1.7804667 
C    -2.7753552    2.0477532   -3.1001281 
C    -2.9933823    3.2724580   -3.7369669 
H    -3.8648032    5.2558789   -3.5829158 
H    -4.6938996    4.8925313   -1.2474266 
H    -4.2708760    2.7304052   -0.0981658 
H    -2.2400286    1.2583669   -3.6342932 
H    -2.6246630    3.4253417   -4.7565110 
C    -1.2561661   -5.6662208   -2.2996292 
C    -0.7431435   -4.4800445   -2.8508087 
C    -1.1807498   -3.2397856   -2.3765963 
C    -2.1377571   -3.1551334   -1.3388054 
C    -2.6454684   -4.3549339   -0.7978247 
C    -2.2101869   -5.5977307   -1.2744960 
H    -0.9108515   -6.6377311   -2.6678447 
H     0.0061450   -4.5242997   -3.6481865 
H    -0.7600365   -2.3206759   -2.8009611 
H    -3.3877971   -4.3101813    0.0050029 
H    -2.6155440   -6.5162074   -0.8381669 
C     1.8522692    1.6443945    2.2658257 
C     1.9084800    0.1993372    2.8591796 
C     1.7839548    1.9013262    0.7352378 
C     0.8081933   -0.8895768    2.6494669 
C     3.2564291    2.2809541    2.5086371 
C     1.7631516    0.3295543    4.4051844 
C     3.1256616    1.3546560    0.2051312 
C    -0.4043962   -0.4011095    3.4793564 
C     4.1276340    1.7954306    1.3131178 
C     0.2365451    0.4021579    4.6482817 
C    -0.7843505    3.0839390    0.2941211 
C     0.7842579    1.9801585   -1.9591429 
C    -0.2735944   -3.2795221    1.4613037 
C     1.9714008   -1.9751899    0.1627211 
C    -1.4384841    2.9886976    1.5419494 
C     1.5872656    3.1002229   -2.2685130 
C    -1.4830245   -3.3584876    2.1857911 
C     3.0941938   -2.4280318    0.8894390 
C    -0.9174976    4.2650988   -0.4594517 
C     0.4601270    1.0736719   -2.9867238 
C     0.3915363   -4.4701783    1.1098631 
C     2.0839014   -1.7774088   -1.2270744 
C    -2.1751833    4.0685116    2.0450003 
C     2.0353229    3.3094824   -3.5794844 
C    -1.9802448   -4.5983107    2.6061766 
C     4.3130535   -2.6469930    0.2339314 
C    -1.6581718    5.3435050    0.0471658 
C     0.9126152    1.2798737   -4.2972131 
C    -0.1221976   -5.7111798    1.5150471 
C     3.3021270   -2.0037239   -1.8811699 
C    -2.2789807    5.2540900    1.3003686 
C     1.6986734    2.4015551   -4.5961329 
C    -1.2962482   -5.7788488    2.2769538 
C     4.4200414   -2.4304850   -1.1497465 
H     1.0616411    2.2188151    2.7790525 
H     2.8861093   -0.2356753    2.5904824 
H     1.8457212    3.0056789    0.6544403 
H     1.2132653   -1.7759561    3.1755497 
H     3.6914134    2.0072778    3.4833118 
H     3.1605129    3.3804712    2.4986353 
H     2.1871045   -0.5681049    4.8890321 
H     2.2971567    1.2007827    4.8173287 
H     3.0947236    0.2595962    0.1143079 
H     3.3791126    1.7550557   -0.7883340 
H    -1.0658757    0.2308783    2.8579685 
H    -1.0128752   -1.2424875    3.8432339 
H     4.7926937    2.6001348    0.9587917 
H     4.7776062    0.9531391    1.6045023 
H    -0.1116285    1.4495793    4.6344095 
H    -0.0401392   -0.0102574    5.6319968 
H    -1.3769312    2.0595232    2.1193396 
H     1.8708001    3.8140703   -1.4878285 
H    -2.0484486   -2.4484541    2.4121754 
H     3.0217108   -2.6135386    1.9661851 
H    -0.4728470    4.3420219   -1.4552033 
H    -0.1566104    0.1989383   -2.7467341 
H     1.3075144   -4.4355182    0.5131646 
H     1.2160282   -1.4218535   -1.7887435 
H    -2.6714205    3.9824655    3.0173543 
H     2.6544554    4.1833689   -3.8070706 
H    -2.9114358   -4.6430752    3.1806975 
H     5.1822581   -2.9895717    0.8047681 
H    -1.7610435    6.2528254   -0.5536993 
H     0.6497665    0.5647472   -5.0838738 
H     0.4018871   -6.6289093    1.2292626 
H     3.3792262   -1.8344156   -2.9599766 
H    -2.8549508    6.0993120    1.6909508 
H     2.0537169    2.5675640   -5.6184191 
H    -1.6878204   -6.7488853    2.5999069 
H     5.3760763   -2.5979642   -1.6563711 
