101
Energy =
C     2.2192058   -2.4135760   -0.5818013 
C     2.5273598   -1.8845300    0.6893241 
C     1.6558961   -2.1203492    1.8024374 
H     3.3677409   -1.1870873    0.8045202 
Pd    0.5617742   -1.0096771    0.2455190 
P    -1.2282427   -0.3447872    1.5913872 
P     0.0010424    0.2903714   -1.6438111 
H     1.5001109   -3.2474895   -0.6038840 
H     1.1158751   -3.0786437    1.8269768 
C     4.4365112   -2.0405853   -4.2411603 
C     3.5317773   -3.0960575   -4.0521158 
C     2.8107604   -3.1950490   -2.8564902 
C     3.0013785   -2.2575831   -1.8137848 
C     3.9385195   -1.2159746   -2.0088440 
C     4.6359042   -1.1008095   -3.2141064 
H     4.9904287   -1.9517540   -5.1813332 
H     3.3790122   -3.8382210   -4.8423903 
H     2.0864834   -4.0058780   -2.7229357 
H     4.1120548   -0.4799275   -1.2202000 
H     5.3408444   -0.2750607   -3.3539705 
C     2.3551785   -0.3001540    5.6443947 
C     2.4939244    0.4633650    4.4729067 
C     2.2643089   -0.1222173    3.2230813 
C     1.8862160   -1.4817616    3.1177404 
C     1.7344392   -2.2305659    4.3027109 
C     1.9747769   -1.6467323    5.5532629 
H     2.5381479    0.1559697    6.6227394 
H     2.7821462    1.5182607    4.5357081 
H     2.3556930    0.4834869    2.3125844 
H     1.4247564   -3.2788940    4.2408905 
H     1.8545454   -2.2458184    6.4615741 
C    -0.4400490    2.4142520    0.9131387 
C    -1.2288494    2.6517203   -0.3936541 
C    -1.0784486    1.4650519    1.9681376 
C    -1.4398591    1.4794812   -1.4061821 
C    -0.3835500    3.6998177    1.7824881 
C    -0.6350729    3.7851493   -1.2654423 
C    -2.2706817    2.2740124    2.5267037 
C    -1.8953392    2.2076236   -2.7040489 
C    -1.7449979    3.7421312    2.5284182 
C    -1.3096233    3.6452570   -2.6470063 
C    -1.3742230   -1.1466985    3.2450093 
C    -2.8603940   -0.8018488    0.8713264 
C     1.4359737    1.3155491   -2.1710811 
C    -0.4607986   -0.6767101   -3.1372450 
C    -1.7050011   -2.5199894    3.2572148 
C    -4.0753421   -0.4330767    1.4889441 
C     1.5343084    1.8538589   -3.4712146 
C     0.5498439   -1.1684556   -3.9906586 
C    -1.1713025   -0.4814554    4.4681013 
C    -2.8903443   -1.6541889   -0.2505370 
C     2.4333492    1.6263998   -1.2246828 
C    -1.8061106   -1.0131579   -3.4069954 
C    -1.8468549   -3.2058450    4.4687340 
C    -5.2947972   -0.8693882    0.9555387 
C     2.6031689    2.6955636   -3.8063824 
C     0.2196574   -1.9791644   -5.0854855 
C    -1.3236346   -1.1711019    5.6805614 
C    -4.1129696   -2.1006689   -0.7736412 
C     3.4968927    2.4750342   -1.5583971 
C    -2.1285739   -1.8266269   -4.5008291 
C    -1.6639684   -2.5296074    5.6859662 
C    -5.3166941   -1.6987619   -0.1779520 
C     3.5820260    3.0125752   -2.8513102 
C    -1.1170773   -2.3145199   -5.3424922 
H     0.5774069    2.0713646    0.6572866 
H    -2.2584380    2.9582931   -0.1208291 
H    -0.3087655    1.3983193    2.7645116 
H    -2.2324178    0.8057693   -1.0374924 
H    -0.1816965    4.6135129    1.2033746 
H     0.4427911    3.5917493    2.5076942 
H    -0.8109615    4.7779665   -0.8212602 
H     0.4587235    3.6559067   -1.3453352 
H    -3.1422880    2.1746546    1.8586921 
H    -2.5836654    1.9244247    3.5239961 
H    -1.6038444    1.6659300   -3.6185684 
H    -2.9988819    2.2394729   -2.7078812 
H    -1.6276396    4.1308396    3.5532260 
H    -2.4595845    4.4083949    2.0164127 
H    -0.5886696    3.8250906   -3.4610764 
H    -2.1160737    4.3878614   -2.7669569 
H    -1.8672810   -3.0503444    2.3114595 
H    -4.0712967    0.1706364    2.4008287 
H     0.7791738    1.6115970   -4.2256048 
H     1.5970001   -0.9097486   -3.8106929 
H    -0.8811286    0.5720883    4.4966267 
H    -1.9468622   -1.9729562   -0.7111052 
H     2.3737128    1.1899504   -0.2200267 
H    -2.6128013   -0.6315204   -2.7752394 
H    -2.1088670   -4.2690034    4.4632595 
H    -6.2328399   -0.5726454    1.4359131 
H     2.6702929    3.1076918   -4.8185165 
H     1.0179384   -2.3472464   -5.7379376 
H    -1.1638403   -0.6391398    6.6237934 
H    -4.1197478   -2.7646749   -1.6443519 
H     4.2624659    2.7104719   -0.8117337 
H    -3.1772528   -2.0707963   -4.7008693 
H    -1.7820095   -3.0634407    6.6344821 
H    -6.2728721   -2.0431936   -0.5852062 
H     4.4129221    3.6742374   -3.1170702 
H    -1.3719344   -2.9459950   -6.1997782 
