107
Energy =
C     3.5703687    0.2548002   -1.4192123 
C     2.8352989    0.0567806   -2.6267648 
C     1.8640980    0.9973511   -3.0412680 
H     2.9382717   -0.8939855   -3.1645061 
Pd    1.3877064    0.1019878   -0.9798511 
P    -0.9668001    0.1011819   -1.2321613 
P     1.2512691   -0.1407773    1.3488550 
H     3.7370781    1.2940074   -1.0985834 
H     1.9508777    2.0086076   -2.6163784 
C     6.4819020   -2.5557727    0.0448585 
C     6.6804044   -1.1765073    0.2013767 
C     5.7219472   -0.2692279   -0.2688800 
C     4.5557588   -0.7242134   -0.9213750 
C     4.3678998   -2.1185285   -1.0736701 
C     5.3187519   -3.0236747   -0.5924891 
H     7.2260055   -3.2661256    0.4195292 
H     7.5812580   -0.8039272    0.6997639 
H     5.8763926    0.8064583   -0.1318862 
H     3.4491566   -2.4939035   -1.5392547 
H     5.1527899   -4.0999322   -0.7070546 
C    -0.5346974    0.8913025   -6.6039139 
C    -0.5181706    2.0285832   -5.7835863 
C     0.2574764    2.0397511   -4.6191852 
C     1.0303218    0.9143733   -4.2480758 
C     0.9899099   -0.2306687   -5.0779419 
C     0.2211252   -0.2372200   -6.2443534 
H    -1.1347985    0.8808287   -7.5196094 
H    -1.1043505    2.9126263   -6.0545798 
H     0.2733970    2.9341746   -3.9883183 
H     1.5667364   -1.1221975   -4.8150944 
H     0.2066109   -1.1301082   -6.8770628 
C    -1.5192325    3.5847628    1.9969080 
C    -0.1015944    3.6906343    1.9067006 
C     0.6855089    2.5666054    1.7538919 
C     0.0995622    1.2620237    1.6904339 
C    -1.2951559    1.1246268    1.6800355 
C    -2.1292308    2.2862971    1.8643635 
H     0.3623915    4.6813562    1.9609735 
H     1.7726708    2.6735084    1.6796359 
C    -3.2180523   -2.1785263    2.1948039 
C    -2.5772466   -0.9185359    2.4723519 
C    -1.9484395   -0.1955432    1.4042795 
C    -1.9621872   -0.7190952    0.0999684 
C    -2.6462706   -1.9406917   -0.1668937 
C    -3.2566098   -2.6471953    0.8527756 
H    -2.6834779   -2.3297463   -1.1874251 
H    -3.7700829   -3.5894400    0.6331668 
C    -4.3293829    3.3303363    2.1056457 
C    -3.5527658    2.1991373    1.9106011 
H    -4.0312930    1.2230075    1.7949952 
C    -3.7245875    4.6061197    2.2451334 
C    -2.3459241    4.7292421    2.1846340 
H    -1.8703959    5.7111939    2.2828216 
C    -3.7292582   -2.4429541    4.5689794 
C    -3.7863719   -2.9210152    3.2702699 
H    -4.2679989   -3.8801402    3.0514797 
C    -3.1064572   -1.1960177    4.8433375 
C    -2.5455014   -0.4498370    3.8200086 
H    -2.0602598    0.5060358    4.0387847 
H    -4.3501928    5.4916176    2.3974500 
H    -5.4197298    3.2396775    2.1480488 
H    -3.0687598   -0.8246446    5.8726699 
H    -4.1670509   -3.0228262    5.3880070 
C    -2.0607943   -2.4725245   -4.9471225 
C    -1.1113869   -2.9115603   -4.0111373 
C    -0.7755269   -2.0961838   -2.9237185 
C    -1.4070977   -0.8448878   -2.7444466 
C    -2.3379280   -0.3996985   -3.7001619 
C    -2.6579526   -1.2130045   -4.7973795 
H    -2.3224112   -3.1056845   -5.8011723 
H    -0.6265013   -3.8857908   -4.1324405 
H    -0.0220919   -2.4315716   -2.2006705 
H    -2.8056093    0.5835977   -3.5995478 
H    -3.3775209   -0.8547214   -5.5405493 
C    -2.8108724    4.3527444   -1.4755666 
C    -1.4185528    4.1881981   -1.4511855 
C    -0.8663565    2.9020282   -1.3981145 
C    -1.7039465    1.7708309   -1.3743406 
C    -3.1044138    1.9418208   -1.3833961 
C    -3.6517408    3.2291775   -1.4409986 
H    -3.2434196    5.3578721   -1.5045170 
H    -0.7604071    5.0630933   -1.4536283 
H     0.2186547    2.7703578   -1.3391077 
H    -3.7639638    1.0697328   -1.3163156 
H    -4.7387962    3.3573242   -1.4376364 
C    -0.3160597   -4.1941113    2.9869745 
C    -0.0892729   -4.0329301    1.6125966 
C     0.3577625   -2.8005618    1.1164268 
C     0.5757804   -1.7230895    1.9936343 
C     0.3681191   -1.8960219    3.3782668 
C    -0.0850466   -3.1255462    3.8681510 
H    -0.6692889   -5.1550524    3.3747774 
H    -0.2631376   -4.8657398    0.9235551 
H     0.5348319   -2.6644491    0.0437259 
H     0.5574212   -1.0690014    4.0700290 
H    -0.2629389   -3.2489520    4.9408960 
C     4.8045921    0.0892702    4.3434282 
C     3.7097166    0.9453049    4.5328111 
C     2.6408467    0.9391836    3.6252071 
C     2.6675518    0.0794892    2.5062297 
C     3.7626220   -0.7928406    2.3324145 
C     4.8237974   -0.7846182    3.2465568 
H     5.6359731    0.0961101    5.0559447 
H     3.6785701    1.6167007    5.3973667 
H     1.7826473    1.5929928    3.8057566 
H     3.7774606   -1.4965451    1.4949671 
H     5.6660687   -1.4667601    3.0952741 
