107
Energy =
C     1.0913892    0.2021024   -3.5845883 
C     2.2091562    0.8861368   -3.0050803 
C     3.0954683    0.1964696   -2.1471886 
H     2.2809104    1.9779061   -3.0860700 
Pd    0.9470045    0.1065897   -1.3811521 
P     1.2391386    0.5603547    0.8901040 
P    -1.1606600   -0.8702987   -1.1306269 
H     1.2248847   -0.8590352   -3.8360887 
H     3.0867598   -0.9034734   -2.2112338 
C    -2.2098222    2.0980248   -5.5969079 
C    -1.9324705    0.7383929   -5.7989954 
C    -0.8449765    0.1367367   -5.1541975 
C    -0.0124940    0.8816810   -4.2889268 
C    -0.3037517    2.2540403   -4.0963865 
C    -1.3870488    2.8540330   -4.7443953 
H    -3.0605654    2.5689636   -6.0998840 
H    -2.5660983    0.1397801   -6.4616786 
H    -0.6370329   -0.9267212   -5.3140090 
H     0.3125817    2.8541526   -3.4171210 
H    -1.5972281    3.9164083   -4.5812295 
C     6.4993519    1.6944886   -0.0012416 
C     6.1004524    0.3554418    0.1273785 
C     4.9882854   -0.1120840   -0.5793903 
C     4.2464136    0.7489838   -1.4228900 
C     4.6561207    2.0973391   -1.5354700 
C     5.7730583    2.5607757   -0.8345602 
H     7.3743461    2.0631590    0.5438941 
H     6.6607578   -0.3270807    0.7745176 
H     4.6821375   -1.1589143   -0.4789102 
H     4.1089398    2.7863964   -2.1853160 
H     6.0801305    3.6061497   -0.9379122 
C    -0.6599256   -3.6659092    2.6107699 
C    -0.6795647   -4.1915499    1.2893009 
C    -0.9053780   -3.3718857    0.1994817 
C    -1.1050145   -1.9685487    0.3628096 
C    -1.0975651   -1.4092399    1.6528649 
C    -0.8933310   -2.2571186    2.7989227 
H    -0.5295734   -5.2666019    1.1416173 
H    -0.9450230   -3.8123853   -0.7997042 
C    -2.9492782    1.8301293    2.5881048 
C    -2.6566959    0.4364110    2.3726515 
C    -1.3569006    0.0499916    1.8888139 
C    -0.3701708    1.0283706    1.6808020 
C    -0.6642915    2.3989276    1.9455681 
C    -1.9199016    2.7871050    2.3725935 
H     0.1124752    3.1557002    1.8131665 
H    -2.1290437    3.8455885    2.5616038 
C    -0.7037079   -2.5811190    5.2177107 
C    -0.9086080   -1.7457210    4.1320912 
H    -1.0829249   -0.6780000    4.2907032 
C    -0.4618560   -3.9669953    5.0272491 
C    -0.4383065   -4.4963775    3.7477859 
H    -0.2583741   -5.5655444    3.5910688 
C    -5.2286194    1.2591740    3.2579962 
C    -4.2515703    2.2121594    3.0234571 
H    -4.4632985    3.2758737    3.1769695 
C    -4.9387413   -0.1170457    3.0639148 
C    -3.6867083   -0.5190726    2.6284122 
H    -3.4799965   -1.5813404    2.4726538 
H    -0.2990729   -4.6153779    5.8943273 
H    -0.7228402   -2.1687258    6.2318437 
H    -5.7135988   -0.8664128    3.2562649 
H    -6.2238772    1.5629944    3.5983723 
C     2.9467069   -2.8938565    3.4608545 
C     2.5455108   -1.7044417    4.0883092 
C     2.0443735   -0.6408812    3.3269940 
C     1.9566226   -0.7613203    1.9249537 
C     2.3627424   -1.9570700    1.2995286 
C     2.8546127   -3.0202850    2.0662767 
H     3.3208666   -3.7282846    4.0625148 
H     2.6009439   -1.6135557    5.1776158 
H     1.6953707    0.2711733    3.8232148 
H     2.2584408   -2.0567826    0.2130144 
H     3.1523318   -3.9534039    1.5773199 
C     3.7677810    4.4499947    1.2257596 
C     4.1069770    3.3509032    2.0267185 
C     3.3727994    2.1580883    1.9467569 
C     2.2911048    2.0576705    1.0535568 
C     1.9861119    3.1521189    0.2112359 
C     2.7092524    4.3465859    0.3098562 
H     4.3387204    5.3811234    1.3014964 
H     4.9506682    3.4173677    2.7211952 
H     3.6513854    1.3068253    2.5742924 
H     1.1693242    3.0647531   -0.5166798 
H     2.4529496    5.1937189   -0.3349543 
C    -1.9637053   -3.5958912   -4.8229208 
C    -0.7353961   -3.6455788   -4.1423821 
C    -0.5218654   -2.8293419   -3.0252754 
C    -1.5408366   -1.9675947   -2.5582604 
C    -2.7628806   -1.9133149   -3.2547531 
C    -2.9695345   -2.7263489   -4.3802401 
H    -2.1295648   -4.2276337   -5.7015240 
H     0.0596314   -4.3141675   -4.4884543 
H     0.4481551   -2.8531565   -2.5133916 
H    -3.5496285   -1.2245458   -2.9350942 
H    -3.9227106   -2.6707407   -4.9160708 
C    -4.7458263    2.0170365   -0.6328748 
C    -4.9332008    0.6428137   -0.4161892 
C    -3.8603923   -0.2444529   -0.5637059 
C    -2.5912096    0.2452708   -0.9372995 
C    -2.4087615    1.6236018   -1.1595854 
C    -3.4851366    2.5063525   -1.0060827 
H    -5.5852454    2.7079779   -0.5043795 
H    -5.9132960    0.2633538   -0.1113517 
H    -4.0015155   -1.3127319   -0.3675627 
H    -1.4193031    1.9961766   -1.4443199 
H    -3.3372301    3.5781213   -1.1727430 
