107
Energy =
C     1.0109579    0.2966248   -3.5646783 
C     2.0586254    1.1155797   -3.0510816 
C     3.0732822    0.5837664   -2.2238816 
H     1.9892250    2.2054629   -3.1614362 
Pd    1.0049186    0.1990907   -1.3301958 
P     1.3210397    0.4312472    0.9824309 
P    -1.0699984   -0.8694981   -1.0919753 
H     1.2481495   -0.7557979   -3.7726378 
H     3.2132779   -0.5094075   -2.2286818 
C    -2.4256545    1.7797628   -5.6931077 
C    -1.7310945    2.6290908   -4.8148044 
C    -0.6125949    2.1608635   -4.1203070 
C    -0.1594355    0.8305598   -4.2876623 
C    -0.8664724   -0.0098997   -5.1755374 
C    -1.9869605    0.4602257   -5.8713341 
H    -3.3033571    2.1477631   -6.2342637 
H    -2.0692965    3.6601644   -4.6679840 
H    -0.0948667    2.8318776   -3.4256078 
H    -0.5313754   -1.0429810   -5.3166044 
H    -2.5197806   -0.2100931   -6.5537283 
C     6.3720891    2.7773061   -0.5643086 
C     6.0145191    1.5233978   -0.0432966 
C     4.9423474    0.8158285   -0.5934089 
C     4.1935436    1.3552387   -1.6648123 
C     4.5664539    2.6173709   -2.1817247 
C     5.6491794    3.3174594   -1.6390110 
H     7.2165302    3.3283846   -0.1379683 
H     6.5722808    1.0989526    0.7973406 
H     4.6584760   -0.1576836   -0.1773285 
H     4.0274829    3.0408918   -3.0354135 
H     5.9354327    4.2864112   -2.0609917 
C    -0.8675499   -3.7033844    2.6449448 
C    -0.8271911   -4.2203785    1.3209170 
C    -0.9594117   -3.3865894    0.2274040 
C    -1.1139827   -1.9780748    0.3923774 
C    -1.1684518   -1.4273922    1.6838098 
C    -1.0726424   -2.2902449    2.8322120 
H    -0.6994730   -5.2982693    1.1738007 
H    -0.9503649   -3.8180635   -0.7761546 
C    -2.8474836    1.9292692    2.5410296 
C    -2.6358840    0.5180256    2.3463934 
C    -1.3475200    0.0450841    1.9075636 
C    -0.2963502    0.9589782    1.7215796 
C    -0.5186992    2.3508633    1.9445015 
C    -1.7591887    2.8206890    2.3308152 
H     0.3050484    3.0574674    1.8138075 
H    -1.9109218    3.8934769    2.4920778 
C    -1.0080128   -2.6341624    5.2551119 
C    -1.1437955   -1.7875647    4.1669828 
H    -1.3025916   -0.7175396    4.3262095 
C    -0.7883252   -4.0241171    5.0659674 
C    -0.7204064   -4.5460420    3.7849773 
H    -0.5586769   -5.6181622    3.6289297 
C    -5.1703898    1.5060534    3.1701738 
C    -4.1320405    2.3947681    2.9466614 
H    -4.2808112    3.4710335    3.0861728 
C    -4.9631580    0.1134665    2.9896330 
C    -3.7301176   -0.3685806    2.5818767 
H    -3.5878876   -1.4424601    2.4341742 
H    -0.6788458   -4.6811355    5.9348974 
H    -1.0671950   -2.2280801    6.2702708 
H    -5.7872176   -0.5850058    3.1684790 
H    -6.1511280    1.8738311    3.4888787 
C     2.7712795   -3.3793913    3.1976228 
C     2.2973107   -2.2890936    3.9431824 
C     1.8455031   -1.1350171    3.2918487 
C     1.8784848   -1.0599247    1.8831722 
C     2.3543156   -2.1587904    1.1403704 
C     2.7968580   -3.3152189    1.7964495 
H     3.1120073   -4.2844007    3.7107278 
H     2.2561741   -2.3461244    5.0351737 
H     1.4390470   -0.3032042    3.8764256 
H     2.3560688   -2.1079126    0.0449261 
H     3.1546135   -4.1693929    1.2126031 
C     4.2170766    3.9266939    2.0128559 
C     4.2189498    2.7827454    2.8231681 
C     3.3652724    1.7090145    2.5351080 
C     2.4943114    1.7753053    1.4301293 
C     2.5175961    2.9197226    0.6036277 
C     3.3659186    3.9926086    0.8996449 
H     4.8889547    4.7610258    2.2387098 
H     4.8929467    2.7199881    3.6838114 
H     3.3932126    0.8173397    3.1667666 
H     1.8725640    2.9599380   -0.2829937 
H     3.3779429    4.8716755    0.2480509 
C    -1.7331010   -3.7144383   -4.7215814 
C    -2.7752059   -2.8695308   -4.3169913 
C    -2.6077518   -2.0070280   -3.2222328 
C    -1.3900181   -1.9888241   -2.5177217 
C    -0.3351545   -2.8272098   -2.9450617 
C    -0.5080159   -3.6902300   -4.0338775 
H    -1.8684226   -4.3846073   -5.5766701 
H    -3.7255367   -2.8700254   -4.8606312 
H    -3.4214886   -1.3354642   -2.9356560 
H     0.6280156   -2.8004441   -2.4199121 
H     0.3146258   -4.3397245   -4.3504794 
C    -4.6688690    2.0168631   -0.6773558 
C    -3.3907227    2.5119706   -0.9755909 
C    -2.3124015    1.6293035   -1.1111519 
C    -2.5087533    0.2447688   -0.9473869 
C    -3.7938443   -0.2498705   -0.6411334 
C    -4.8693497    0.6373587   -0.5130317 
H    -5.5106138    2.7072348   -0.5623439 
H    -3.2303776    3.5884336   -1.0932381 
H    -1.3069552    2.0070979   -1.3234996 
H    -3.9459468   -1.3220568   -0.4764437 
H    -5.8627785    0.2531168   -0.2618639 
