107
Energy =
C     1.6284249   -0.9345811   -3.2098832 
C     2.7178288   -0.1572398   -2.7187605 
C     3.4549611   -0.5561372   -1.5812426 
H     2.8855093    0.8479580   -3.1265057 
Pd    1.2326077   -0.3556473   -1.0859586 
P     1.1983565    0.5165597    1.0914990 
P    -1.0220709   -1.0007138   -1.0235693 
H     1.6836122   -2.0236886   -3.0751516 
H     3.3728074   -1.6085663   -1.2647018 
C    -1.0566446    0.3174860   -6.3345473 
C    -0.3539157    1.2823999   -5.5926674 
C     0.5237810    0.8890270   -4.5790071 
C     0.7216235   -0.4805425   -4.2818297 
C     0.0114551   -1.4382951   -5.0389275 
C    -0.8677487   -1.0431936   -6.0546174 
H    -1.7465343    0.6278906   -7.1259465 
H    -0.4977310    2.3472530   -5.8036546 
H     1.0488518    1.6561178   -3.9987592 
H     0.1515577   -2.5028930   -4.8231970 
H    -1.4088227   -1.8037649   -6.6270211 
C     6.8015571    1.5377604    0.1111664 
C     6.1162987    0.5655625    0.8574888 
C     5.0316346   -0.1132448    0.2957625 
C     4.5976544    0.1786395   -1.0180515 
C     5.2985799    1.1576352   -1.7593448 
C     6.3934089    1.8255300   -1.2003445 
H     7.6557532    2.0643904    0.5488044 
H     6.4275727    0.3398599    1.8822101 
H     4.4916087   -0.8635872    0.8846782 
H     5.0072763    1.3756220   -2.7919949 
H     6.9358442    2.5693945   -1.7930544 
C    -2.0111979   -2.5647737    3.2904259 
C    -1.8508574   -3.4598481    2.1971858 
C    -1.6305993   -2.9877037    0.9176821 
C    -1.5309408   -1.5884448    0.6584787 
C    -1.6920533   -0.6695436    1.7090656 
C    -1.9628028   -1.1473605    3.0398127 
H    -1.9141572   -4.5383036    2.3781161 
H    -1.5372169   -3.7004789    0.0950134 
C    -2.7898868    2.9911613    1.2415366 
C    -2.8336516    1.5724500    1.4860890 
C    -1.6102646    0.8111087    1.4823579 
C    -0.3823438    1.4668668    1.2896348 
C    -0.3575890    2.8773388    1.0737221 
C    -1.5266284    3.6129482    1.0394247 
H     0.6001726    3.3868163    0.9393159 
H    -1.4868576    4.6940708    0.8677887 
C    -2.3748794   -0.7447056    5.4191276 
C    -2.1566797   -0.2582884    4.1404178 
H    -2.1261347    0.8207832    3.9665274 
C    -2.4043852   -2.1428531    5.6649151 
C    -2.2262769   -3.0332824    4.6192360 
H    -2.2545123   -4.1137099    4.7974314 
C    -5.2221430    3.1126851    1.4427181 
C    -4.0054762    3.7349564    1.2179233 
H    -3.9584962    4.8123549    1.0258328 
C    -5.2687873    1.7164204    1.6941639 
C    -4.1058887    0.9637070    1.7090176 
H    -4.1573874   -0.1131378    1.8909630 
H    -2.5736636   -2.5133537    6.6811593 
H    -2.5223477   -0.0453439    6.2486519 
H    -6.2332280    1.2294152    1.8717717 
H    -6.1492064    3.6950040    1.4300490 
C     4.5204902    3.7102677    1.7502473 
C     3.8966259    3.5575952    0.5030115 
C     2.9125163    2.5780663    0.3285618 
C     2.5241221    1.7524254    1.4060481 
C     3.1684576    1.8995151    2.6499652 
C     4.1593466    2.8765902    2.8178424 
H     5.2981763    4.4690565    1.8842925 
H     4.1918469    4.1878222   -0.3414642 
H     2.4449921    2.4404280   -0.6543447 
H     2.9125498    1.2458505    3.4879653 
H     4.6547819    2.9809707    3.7886613 
C     1.4685814   -2.6080006    4.5114862 
C     1.7410780   -2.9760679    3.1855114 
C     1.6543226   -2.0225306    2.1622935 
C     1.2891714   -0.6943777    2.4593657 
C     1.0066208   -0.3331501    3.7937938 
C     1.1037139   -1.2871369    4.8139462 
H     1.5303265   -3.3536647    5.3105813 
H     2.0140659   -4.0087807    2.9458472 
H     1.8497808   -2.3070991    1.1213615 
H     0.6822705    0.6856483    4.0295461 
H     0.8697280   -1.0038465    5.8446522 
C    -4.0052953    2.3424913   -2.1971931 
C    -4.4960029    1.1204508   -1.7113110 
C    -3.6086070    0.0967915   -1.3578186 
C    -2.2189840    0.2919288   -1.5018729 
C    -1.7314033    1.5193294   -1.9896120 
C    -2.6236263    2.5413442   -2.3355218 
H    -4.7030814    3.1444357   -2.4585850 
H    -5.5730551    0.9723009   -1.5859079 
H    -3.9924470   -0.8420898   -0.9443778 
H    -0.6504765    1.6715167   -2.0745923 
H    -2.2385703    3.4974103   -2.7042137 
C    -1.6082669   -4.6936342   -3.8030116 
C    -0.5323183   -4.6280862   -2.9015478 
C    -0.3804859   -3.5078106   -2.0755218 
C    -1.3111294   -2.4451029   -2.1270738 
C    -2.3765836   -2.5115210   -3.0435598 
C    -2.5223708   -3.6338489   -3.8740703 
H    -1.7255330   -5.5660848   -4.4539073 
H     0.1918739   -5.4474809   -2.8472111 
H     0.4694019   -3.4533526   -1.3834602 
H    -3.0830853   -1.6816282   -3.1300002 
H    -3.3522494   -3.6708870   -4.5872286 
