107
Energy =
C     1.0617044    0.4429619   -3.6538999 
C     1.6614165    1.5706235   -3.0454700 
C     2.8378785    1.4272541   -2.2523713 
H     1.1556030    2.5446475   -3.0823179 
Pd    1.1403767    0.2498414   -1.3738523 
P     1.5855907    0.1819910    0.9276361 
P    -0.9530793   -0.8293345   -1.0964596 
H     1.7052754   -0.4378138   -3.8047426 
H     3.5133800    0.5981488   -2.5134249 
C    -2.4190839    0.4417329   -6.1776902 
C    -1.4407581   -0.5556597   -6.2994093 
C    -0.3219451   -0.5474733   -5.4592519 
C    -0.1498354    0.4661064   -4.4898644 
C    -1.1400082    1.4699044   -4.3849737 
C    -2.2643371    1.4534174   -5.2151480 
H    -3.2991996    0.4328803   -6.8289691 
H    -1.5522885   -1.3487183   -7.0455182 
H     0.4335147   -1.3344623   -5.5524749 
H    -1.0386046    2.2654796   -3.6422392 
H    -3.0246900    2.2344002   -5.1115237 
C     4.7109515    4.7245918   -0.2197217 
C     3.3123601    4.5917045   -0.1958525 
C     2.6968417    3.5281596   -0.8623725 
C     3.4668281    2.5670224   -1.5553504 
C     4.8705729    2.7120775   -1.5706295 
C     5.4859750    3.7866613   -0.9165996 
H     5.1926946    5.5550674    0.3061437 
H     2.7027172    5.3174823    0.3527134 
H     1.6070260    3.4137567   -0.8219649 
H     5.4821766    1.9749267   -2.1032208 
H     6.5760444    3.8864895   -0.9426121 
C    -1.1304643   -3.6464762    2.6484495 
C    -1.2424033   -4.1667422    1.3299025 
C    -1.2620261   -3.3268744    0.2323940 
C    -1.1734459   -1.9129015    0.3912598 
C    -1.1179392   -1.3567322    1.6810105 
C    -1.0962795   -2.2179886    2.8302364 
H    -1.3027039   -5.2512897    1.1890586 
H    -1.3403931   -3.7559104   -0.7695945 
C    -2.3647032    2.2126720    2.4067824 
C    -2.3209990    0.7761939    2.3074513 
C    -1.1053274    0.1292108    1.8790747 
C     0.0356237    0.9005684    1.6192506 
C    -0.0380370    2.3280748    1.6806609 
C    -1.2027560    2.9618032    2.0643688 
H     0.8430637    2.9231492    1.4221031 
H    -1.2426000    4.0554968    2.1102324 
C    -0.9099317   -2.5542847    5.2455316 
C    -0.9916887   -1.7018251    4.1567664 
H    -0.9646624   -0.6183289    4.3053244 
C    -0.9328966   -3.9626293    5.0627384 
C    -1.0447717   -4.4959553    3.7894704 
H    -1.0666588   -5.5809930    3.6408947 
C    -4.6933098    2.1012756    3.1380477 
C    -3.5697227    2.8480659    2.8228067 
H    -3.5909783    3.9411073    2.8922118 
C    -4.6552878    0.6865760    3.0378180 
C    -3.5010916    0.0396334    2.6252096 
H    -3.4878048   -1.0504220    2.5426773 
H    -0.8655007   -4.6243614    5.9323756 
H    -0.8246098   -2.1408366    6.2558162 
H    -5.5471804    0.1012525    3.2842631 
H    -5.6121709    2.5998713    3.4632373 
C     2.4684697   -4.0246821    2.6956199 
C     2.2871808   -3.8677461    1.3139440 
C     1.9991387   -2.6022709    0.7846922 
C     1.8876931   -1.4880217    1.6361980 
C     2.0909196   -1.6471053    3.0228883 
C     2.3717047   -2.9132639    3.5478653 
H     2.6889087   -5.0135773    3.1103164 
H     2.3656808   -4.7314087    0.6457851 
H     1.8481450   -2.4741297   -0.2936452 
H     2.0243704   -0.7833296    3.6918162 
H     2.5097827   -3.0337004    4.6267874 
C     5.2194724    2.2881998    2.9138658 
C     3.9564580    2.4203043    3.5091506 
C     2.8302288    1.8349799    2.9145139 
C     2.9617739    1.1196323    1.7056789 
C     4.2357441    0.9782902    1.1218473 
C     5.3579738    1.5592172    1.7237975 
H     6.0965172    2.7485718    3.3802966 
H     3.8450608    2.9761786    4.4459678 
H     1.8545358    1.9307684    3.4008687 
H     4.3464667    0.4063565    0.1947381 
H     6.3413644    1.4499397    1.2562097 
C    -1.7925094   -3.7601206   -4.6089553 
C    -2.7860214   -2.8428171   -4.2402835 
C    -2.5627880   -1.9340151   -3.1949563 
C    -1.3335717   -1.9377678   -2.5117537 
C    -0.3210776   -2.8371261   -2.9133851 
C    -0.5539430   -3.7518600   -3.9475491 
H    -1.9755142   -4.4711734   -5.4211616 
H    -3.7423571   -2.8253569   -4.7727267 
H    -3.3408860   -1.2131311   -2.9299023 
H     0.6522796   -2.8214638   -2.4077144 
H     0.2333487   -4.4535839   -4.2420941 
C    -4.3389619    2.3209794   -0.7000681 
C    -3.0256547    2.7263001   -0.9792109 
C    -2.0115908    1.7696408   -1.1111488 
C    -2.3051443    0.3999021   -0.9710386 
C    -3.6239206   -0.0020555   -0.6724748 
C    -4.6355381    0.9577712   -0.5451624 
H    -5.1306687    3.0682579   -0.5858982 
H    -2.7861982    3.7902044   -1.0761848 
H    -0.9753111    2.0789041   -1.2899375 
H    -3.8519148   -1.0612004   -0.5112874 
H    -5.6550871    0.6422420   -0.3027076 
