107
Energy =
C     1.9312696   -1.0950549   -3.2020836 
C     2.8009570   -0.1531959   -2.5773764 
C     3.5263101   -0.5041252   -1.4145176 
H     2.8121946    0.8848346   -2.9355275 
Pd    1.2645419   -0.6710070   -1.1008887 
P     1.2193198    0.1053992    1.1392685 
P    -1.0550524   -1.0156499   -1.1263154 
H     2.1937158   -2.1588032   -3.0951144 
H     3.6852209   -1.5792012   -1.2364561 
C    -0.4511226   -0.1509525   -6.6583271 
C    -0.3578505    0.7691604   -5.6005519 
C     0.4223965    0.4727928   -4.4791339 
C     1.1148557   -0.7554005   -4.3847083 
C     1.0119583   -1.6707177   -5.4539835 
C     0.2435013   -1.3667203   -6.5845899 
H    -1.0658804    0.0797378   -7.5342001 
H    -0.9038352    1.7172166   -5.6497988 
H     0.4742533    1.1828338   -3.6451155 
H     1.5426595   -2.6278213   -5.3962481 
H     0.1786227   -2.0865143   -7.4071424 
C     6.2973561    1.9882053    0.7292058 
C     6.4080377    0.5906444    0.7664579 
C     5.4886903   -0.2048054    0.0738382 
C     4.4481254    0.3799469   -0.6824868 
C     4.3552726    1.7902544   -0.7185257 
C     5.2656147    2.5841448   -0.0152860 
H     7.0108515    2.6124339    1.2770186 
H     7.2080412    0.1165118    1.3437253 
H     5.5743883   -1.2955343    0.1147880 
H     3.5597195    2.2734930   -1.2915628 
H     5.1704067    3.6744240   -0.0477718 
C    -2.3531172    3.2632173    0.2601897 
C    -2.1499300    2.9332721   -1.1103013 
C    -1.8175627    1.6480346   -1.4884669 
C    -1.6705388    0.6104752   -0.5143730 
C    -1.7917571    0.9088260    0.8496247 
C    -2.1660964    2.2405619    1.2574820 
H    -2.2622253    3.7162477   -1.8680529 
H    -1.6664956    1.4163467   -2.5471260 
C    -2.3089342   -1.6631291    3.6722939 
C    -2.5858865   -0.7031106    2.6347333 
C    -1.4971676   -0.1074933    1.9115122 
C    -0.1734309   -0.4644371    2.2216005 
C     0.0839862   -1.3750769    3.2878592 
C    -0.9544907   -1.9548952    3.9919190 
H     1.1149564   -1.6245959    3.5505712 
H    -0.7387833   -2.6592484    4.8025090 
C    -2.7063283    3.8794434    2.9931953 
C    -2.3441195    2.5922112    2.6289001 
H    -2.1936677    1.8305886    3.3986877 
C    -2.8929532    4.8830029    2.0078506 
C    -2.7139045    4.5793937    0.6679894 
H    -2.8503820    5.3488874   -0.0996516 
C    -4.7054519   -1.9963654    4.0094242 
C    -3.3951638   -2.2964781    4.3430168 
H    -3.1745591   -3.0283769    5.1275381 
C    -4.9812605   -1.0423709    2.9938850 
C    -3.9474873   -0.4090086    2.3237659 
H    -4.1683281    0.3184081    1.5370605 
H    -3.1767630    5.8964886    2.3094512 
H    -2.8452435    4.1255332    4.0510006 
H    -6.0200235   -0.8087903    2.7383415 
H    -5.5325110   -2.4904122    4.5296094 
C     0.8830630    4.7344364    1.2234626 
C     0.8375676    4.0116685    2.4259620 
C     0.9476998    2.6157327    2.4134337 
C     1.1192666    1.9336721    1.1905840 
C     1.1495897    2.6633352   -0.0130881 
C     1.0350586    4.0588610    0.0037993 
H     0.7826645    5.8243531    1.2376020 
H     0.6937738    4.5358057    3.3759254 
H     0.8708635    2.0529891    3.3499603 
H     1.2290101    2.1235471   -0.9638415 
H     1.0460139    4.6172643   -0.9378477 
C     4.9609035   -1.3511881    3.4863215 
C     4.2125063   -2.2322101    2.6892686 
C     3.1096600   -1.7566392    1.9695134 
C     2.7274043   -0.3998593    2.0594340 
C     3.4961315    0.4826129    2.8392729 
C     4.6090211    0.0041460    3.5470745 
H     5.8265844   -1.7195186    4.0463875 
H     4.4924095   -3.2887118    2.6225929 
H     2.5350699   -2.4426325    1.3349964 
H     3.2437411    1.5455032    2.8832717 
H     5.2067360    0.7006372    4.1437973 
C    -3.4505499   -2.1741401   -4.9346844 
C    -2.2286037   -2.7888036   -4.6252176 
C    -1.5041129   -2.3827659   -3.4985106 
C    -1.9959335   -1.3571934   -2.6678690 
C    -3.2360043   -0.7565043   -2.9705874 
C    -3.9537663   -1.1624557   -4.1038822 
H    -4.0132841   -2.4872255   -5.8201251 
H    -1.8322981   -3.5809918   -5.2679182 
H    -0.5521258   -2.8666831   -3.2564671 
H    -3.6505603    0.0208131   -2.3213512 
H    -4.9142662   -0.6891583   -4.3329758 
C    -2.6167265   -4.5284331    1.4863909 
C    -3.5271402   -3.6826258    0.8331821 
C    -3.0627187   -2.6148843    0.0573596 
C    -1.6772361   -2.3763881   -0.0566789 
C    -0.7684820   -3.2353046    0.5880081 
C    -1.2377838   -4.3074946    1.3591928 
H    -2.9842052   -5.3626716    2.0926092 
H    -4.6037964   -3.8513232    0.9330473 
H    -3.7775912   -1.9633459   -0.4549109 
H     0.3082175   -3.0526375    0.4910584 
H    -0.5246902   -4.9672675    1.8638175 
