107
Energy =
C     1.4514658   -0.3422636   -3.5471960 
C     2.4544930    0.4771761   -2.9467652 
C     3.2109502    0.0037871   -1.8499813 
H     2.5459158    1.5244600   -3.2608291 
Pd    0.9549293    0.0411370   -1.4068679 
P     1.1453125    0.6089409    0.8849066 
P    -1.2634642   -0.6780831   -1.1603622 
H     1.5979282   -1.4316315   -3.4979442 
H     3.2502402   -1.0878984   -1.7182655 
C    -1.0070401    0.9846220   -6.8207376 
C    -0.5689359   -0.3455844   -6.7514910 
C     0.2220585   -0.7714545   -5.6763166 
C     0.6054150    0.1302678   -4.6601233 
C     0.1574625    1.4701170   -4.7424131 
C    -0.6428146    1.8909915   -5.8088611 
H    -1.6325155    1.3165539   -7.6557645 
H    -0.8508843   -1.0585540   -7.5331246 
H     0.5499635   -1.8151267   -5.6211427 
H     0.4088633    2.1755292   -3.9418223 
H    -0.9915311    2.9280912   -5.8515997 
C     6.3635352    2.0452397    0.2359901 
C     6.0978749    0.6909170    0.4850034 
C     5.0574009    0.0462823   -0.1928990 
C     4.2586436    0.7414387   -1.1311658 
C     4.5292168    2.1113094   -1.3586495 
C     5.5734720    2.7513644   -0.6867281 
H     7.1814495    2.5516833    0.7587309 
H     6.7070318    0.1322574    1.2029446 
H     4.8616728   -1.0135970   -0.0014096 
H     3.9238197    2.6818760   -2.0689739 
H     5.7712498    3.8103790   -0.8794084 
C    -0.3360331   -3.7161603    2.2868100 
C    -0.1865221   -4.0502709    0.9101815 
C    -0.5060427   -3.1417343   -0.0791373 
C    -1.0047304   -1.8410376    0.2506636 
C    -1.0755272   -1.4415966    1.5922391 
C    -0.7697917   -2.3875754    2.6366709 
H     0.1868813   -5.0443760    0.6415508 
H    -0.3763300   -3.4186927   -1.1304663 
C    -2.9594436    1.6594744    2.8991510 
C    -2.6722519    0.2984235    2.5243227 
C    -1.3890232   -0.0257396    1.9700789 
C    -0.4244787    0.9821961    1.7986055 
C    -0.7057899    2.3130609    2.2243914 
C    -1.9381501    2.6391447    2.7595251 
H     0.0571188    3.0884845    2.1199728 
H    -2.1425545    3.6686857    3.0723947 
C    -0.5876161   -2.9855253    5.0027315 
C    -0.8716840   -2.0508610    4.0195701 
H    -1.1836172   -1.0415450    4.3010420 
C    -0.1699348   -4.2958773    4.6542252 
C    -0.0407164   -4.6498657    3.3209859 
H     0.2889903   -5.6566409    3.0422761 
C    -5.2348763    1.0126020    3.5091987 
C    -4.2570582    1.9862806    3.3893807 
H    -4.4688650    3.0243344    3.6674887 
C    -4.9504507   -0.3319983    3.1497569 
C    -3.6987491   -0.6822442    2.6709588 
H    -3.4883177   -1.7181497    2.3886913 
H     0.0524016   -5.0239845    5.4410585 
H    -0.6817265   -2.7092125    6.0580066 
H    -5.7287180   -1.0955578    3.2505844 
H    -6.2292201    1.2751531    3.8847807 
C     3.1184739   -2.7048080    3.4661722 
C     2.5997298   -1.5559364    4.0839155 
C     2.0165006   -0.5440156    3.3118169 
C     1.9617262   -0.6710746    1.9077387 
C     2.4736696   -1.8306721    1.2954450 
C     3.0522323   -2.8425489    2.0722819 
H     3.5597815   -3.5002302    4.0751063 
H     2.6308619   -1.4574835    5.1736064 
H     1.5774317    0.3325458    3.8005892 
H     2.3847896   -1.9517241    0.2110828 
H     3.4340347   -3.7479900    1.5895817 
C     3.4261523    4.6463160    1.2285432 
C     3.8082079    3.5810916    2.0559986 
C     3.1562482    2.3422407    1.9678504 
C     2.1154792    2.1615981    1.0393000 
C     1.7642722    3.2248947    0.1774523 
C     2.4059285    4.4647677    0.2818398 
H     3.9338669    5.6129976    1.3092549 
H     4.6228216    3.7099614    2.7759010 
H     3.4689534    1.5176922    2.6143749 
H     0.9786782    3.0770559   -0.5734581 
H     2.1155509    5.2865808   -0.3809542 
C    -3.8295930   -2.8146837   -4.3999883 
C    -3.2000473   -1.5872117   -4.6531065 
C    -2.3905713   -0.9949091   -3.6755922 
C    -2.1994360   -1.6295434   -2.4302175 
C    -2.8550294   -2.8521837   -2.1708296 
C    -3.6597902   -3.4411634   -3.1565793 
H    -4.4602967   -3.2777310   -5.1659712 
H    -3.3351151   -1.0820129   -5.6144172 
H    -1.9255192   -0.0250303   -3.8755226 
H    -2.7580284   -3.3415881   -1.1973524 
H    -4.1639336   -4.3899074   -2.9446417 
C    -4.4743224    2.5559583   -0.2663575 
C    -4.8222622    1.1959518   -0.2322758 
C    -3.8547111    0.2165499   -0.4806432 
C    -2.5220502    0.5948532   -0.7474425 
C    -2.1811531    1.9585067   -0.7954190 
C    -3.1556295    2.9367018   -0.5532483 
H    -5.2350568    3.3192273   -0.0731361 
H    -5.8505172    0.8968971   -0.0067989 
H    -4.1326001   -0.8421499   -0.4641872 
H    -1.1476400    2.2464503   -1.0179344 
H    -2.8824402    3.9963375   -0.5862023 
