107
Energy =
C     1.0517283    0.4246984   -3.6584964 
C     1.6531747    1.5555526   -3.0576815 
C     2.8319086    1.4163126   -2.2673057 
H     1.1472651    2.5293827   -3.0981342 
Pd    1.1365824    0.2433366   -1.3779695 
P     1.5877082    0.1875277    0.9228299 
P    -0.9556646   -0.8352706   -1.0894573 
H     1.6949652   -0.4567699   -3.8066952 
H     3.5064639    0.5856578   -2.5258760 
C    -2.4366592    0.4095249   -6.1717752 
C    -2.2792626    1.4262430   -5.2149889 
C    -1.1521882    1.4476075   -4.3886525 
C    -0.1621322    0.4434628   -4.4912158 
C    -0.3368727   -0.5751466   -5.4548416 
C    -1.4582406   -0.5880143   -6.2915280 
H    -3.3188762    0.3968992   -6.8201361 
H    -3.0398158    2.2072014   -5.1126864 
H    -1.0484222    2.2474426   -3.6508387 
H     0.4185221   -1.3623997   -5.5462826 
H    -1.5715443   -1.3846834   -7.0335069 
C     4.7118125    4.7237279   -0.2575618 
C     5.4844660    3.7823060   -0.9523668 
C     4.8668278    2.7045716   -1.5990442 
C     3.4631347    2.5596348   -1.5782451 
C     2.6955093    3.5243046   -0.8875893 
C     3.3133046    4.5911024   -0.2284182 
H     5.1953630    5.5566774    0.2626964 
H     6.5744489    3.8819049   -0.9824648 
H     5.4765774    1.9649437   -2.1303195 
H     1.6058106    3.4102402   -0.8431155 
H     2.7055381    5.3195925    0.3186247 
C    -1.1214228   -3.6335221    2.6701011 
C    -1.2364492   -4.1605426    1.3545108 
C    -1.2597346   -3.3262689    0.2528038 
C    -1.1716563   -1.9114541    0.4042600 
C    -1.1131402   -1.3487385    1.6910341 
C    -1.0877507   -2.2041101    2.8445536 
H    -1.2961242   -5.2458432    1.2193189 
H    -1.3406012   -3.7604342   -0.7467680 
C    -2.3602670    2.2237036    2.4006249 
C    -2.3158055    0.7867253    2.3092388 
C    -1.1007540    0.1381819    1.8814943 
C     0.0390194    0.9088483    1.6145907 
C    -0.0354401    2.3366002    1.6682643 
C    -1.1996443    2.9716873    2.0513140 
H     0.8445753    2.9308633    1.4042015 
H    -1.2400526    4.0655856    2.0913481 
C    -0.8952085   -2.5279798    5.2610507 
C    -0.9802913   -1.6811291    4.1681742 
H    -0.9539532   -0.5968660    4.3111544 
C    -0.9178556   -3.9372468    5.0854875 
C    -1.0325544   -4.4771174    3.8152345 
H    -1.0543127   -5.5629085    3.6722697 
C    -4.6869380    2.1148308    3.1383959 
C    -3.5647501    2.8606111    2.8158774 
H    -3.5868261    3.9540416    2.8785183 
C    -4.6481104    0.6996072    3.0462408 
C    -3.4945707    0.0511618    2.6341660 
H    -3.4807758   -1.0393216    2.5575967 
H    -0.8478564   -4.5945098    5.9582984 
H    -0.8072966   -2.1093374    6.2689664 
H    -5.5387790    0.1150301    3.2987926 
H    -5.6053138    2.6146309    3.4630993 
C     2.4770167   -4.0092449    2.7109696 
C     2.3822439   -2.8932778    3.5574714 
C     2.0996350   -1.6300483    3.0264493 
C     1.8926966   -1.4784925    1.6394663 
C     2.0024484   -2.5972247    0.7936391 
C     2.2920863   -3.8597856    1.3289518 
H     2.6986619   -4.9958610    3.1304137 
H     2.5232624   -3.0078547    4.6366487 
H     2.0345017   -0.7627403    3.6909370 
H     1.8492390   -2.4748298   -0.2850480 
H     2.3689040   -4.7270260    0.6652491 
C     5.2252676    2.3071741    2.8879878 
C     3.9637080    2.4417554    3.4857846 
C     2.8363634    1.8522810    2.8973971 
C     2.9653018    1.1301761    1.6923150 
C     4.2378528    0.9863730    1.1060184 
C     5.3612171    1.5714675    1.7017741 
H     6.1031636    2.7709256    3.3494323 
H     3.8543072    3.0029701    4.4196477 
H     1.8618710    1.9502028    3.3857168 
H     4.3466397    0.4092423    0.1819040 
H     6.3434843    1.4601007    1.2323313 
C    -1.8033277   -3.7850134   -4.5840638 
C    -0.5628402   -3.7724850   -3.9263484 
C    -0.3274622   -2.8520405   -2.8978320 
C    -1.3392711   -1.9510577   -2.4981426 
C    -2.5703527   -1.9514483   -3.1779955 
C    -2.7961595   -2.8660643   -4.2176760 
H    -1.9883388   -4.5006215   -5.3917993 
H     0.2240584   -4.4752098   -4.2195457 
H     0.6472899   -2.8332621   -2.3949712 
H    -3.3479435   -1.2293444   -2.9147878 
H    -3.7539206   -2.8517812   -4.7476404 
C    -4.3420832    2.3154865   -0.7014663 
C    -3.0296976    2.7199276   -0.9861462 
C    -2.0154522    1.7630816   -1.1152771 
C    -2.3079398    0.3939789   -0.9670166 
C    -3.6257696   -0.0069848   -0.6629693 
C    -4.6375673    0.9529971   -0.5383846 
H    -5.1338678    3.0629836   -0.5892992 
H    -2.7910683    3.7833857   -1.0897957 
H    -0.9797747    2.0719160   -1.2982519 
H    -3.8528282   -1.0653592   -0.4955269 
H    -5.6563476    0.6382815   -0.2916914 
