107
Energy =
C     3.6955563   -0.7907539   -0.7376605 
C     3.1227724   -1.0560435   -2.0180093 
C     2.4829138   -0.0279291   -2.7480795 
H     3.0710384   -2.0922868   -2.3749822 
Pd    1.5009351   -0.3882537   -0.7009405 
P    -0.7181275    0.0644998   -1.3939741 
P     0.9619640   -0.1445119    1.5689866 
H     4.0601308    0.2307970   -0.5536143 
H     2.7484676    1.0040155   -2.4735735 
C     5.5885887   -3.8228648    1.6587828 
C     6.0911332   -2.5139552    1.6372836 
C     5.4620256   -1.5307011    0.8623832 
C     4.3294544   -1.8431206    0.0797506 
C     3.8330897   -3.1680303    0.1093555 
C     4.4537539   -4.1454532    0.8931624 
H     6.0740336   -4.5900010    2.2707609 
H     6.9719086   -2.2535545    2.2332631 
H     5.8514418   -0.5069308    0.8601585 
H     2.9299091   -3.4208932   -0.4580955 
H     4.0500304   -5.1630455    0.9150323 
C     0.6933955   -0.3031866   -6.6440824 
C     0.8626268    0.9404424   -6.0184502 
C     1.4333931    1.0095744   -4.7429053 
C     1.8443151   -0.1618878   -4.0643675 
C     1.6514996   -1.4096937   -4.7025300 
C     1.0886047   -1.4762695   -5.9793608 
H     0.2540449   -0.3612523   -7.6452522 
H     0.5571259    1.8601586   -6.5277441 
H     1.5714830    1.9842205   -4.2640917 
H     1.9476855   -2.3360746   -4.2018050 
H     0.9525128   -2.4501040   -6.4598141 
C    -3.9466341   -0.9719510    1.8484126 
C    -3.8965194   -1.6727846    0.6120814 
C    -2.9853613   -1.3252409   -0.3679068 
C    -2.0711083   -0.2505858   -0.1659341 
C    -2.1249311    0.5000004    1.0211585 
C    -3.0650590    0.1498752    2.0470761 
H    -4.5860875   -2.5073411    0.4456839 
H    -2.9624420   -1.8880279   -1.3044043 
C    -0.8776626    4.1421660    1.1051549 
C    -1.7596865    3.0040515    1.0556270 
C    -1.2173748    1.6771191    1.2120807 
C     0.1506861    1.5116524    1.4684125 
C     1.0215649    2.6475831    1.4454043 
C     0.5196347    3.9222489    1.2732807 
H     2.1000648    2.5026287    1.5663234 
H     1.1981786    4.7821095    1.2660160 
C    -3.9967645    0.4580505    4.2866191 
C    -3.1220517    0.8528225    3.2878157 
H    -2.4552834    1.7056193    3.4464383 
C    -4.8585297   -0.6544197    4.0924600 
C    -4.8351422   -1.3516986    2.8959242 
H    -5.4990565   -2.2086192    2.7386238 
C    -2.7775485    5.6412954    0.7712665 
C    -1.4177358    5.4517213    0.9570749 
H    -0.7367260    6.3089079    0.9952544 
C    -3.6480101    4.5224517    0.7124924 
C    -3.1514699    3.2349806    0.8416313 
H    -3.8313336    2.3806659    0.7850609 
H    -5.5438716   -0.9559691    4.8912900 
H    -4.0243710    1.0052967    5.2345884 
H    -4.7210143    4.6776511    0.5593736 
H    -3.1829551    6.6528893    0.6664260 
C    -1.7788062   -3.3718277    3.4775692 
C    -1.3144369   -3.5327227    2.1642608 
C    -0.5094580   -2.5449487    1.5801820 
C    -0.1691422   -1.3900605    2.3070625 
C    -0.6193957   -1.2426675    3.6358903 
C    -1.4287415   -2.2275075    4.2122024 
H    -2.4112123   -4.1407594    3.9329877 
H    -1.5807753   -4.4263774    1.5906882 
H    -0.1444747   -2.6606729    0.5534750 
H    -0.3397551   -0.3575670    4.2161758 
H    -1.7914867   -2.0994265    5.2367062 
C     3.9780955   -0.1123676    5.1113253 
C     3.1059674    0.9760156    4.9616371 
C     2.2148606    1.0257891    3.8800735 
C     2.2003720   -0.0150326    2.9268034 
C     3.0663023   -1.1160924    3.0942232 
C     3.9497591   -1.1608714    4.1801998 
H     4.6710166   -0.1476492    5.9584103 
H     3.1090572    1.7890757    5.6952018 
H     1.5226449    1.8687966    3.7961307 
H     3.0362213   -1.9512987    2.3883788 
H     4.6161462   -2.0215581    4.2932250 
C    -1.8342907   -2.8830667   -4.8126284 
C    -1.1721456   -3.3256684   -3.6568639 
C    -0.8158909   -2.4068903   -2.6624610 
C    -1.1438880   -1.0393722   -2.7997297 
C    -1.7839192   -0.5985669   -3.9719717 
C    -2.1230794   -1.5206443   -4.9731419 
H    -2.1098726   -3.5980982   -5.5946634 
H    -0.9259567   -4.3854905   -3.5337538 
H    -0.2840037   -2.7493488   -1.7665174 
H    -2.0081475    0.4622959   -4.1133545 
H    -2.6136709   -1.1672493   -5.8857380 
C    -1.4145832    4.4841905   -2.6265725 
C    -0.1239813    4.0345610   -2.3126836 
C     0.0846321    2.6946488   -1.9616880 
C    -0.9965020    1.7936890   -1.9270154 
C    -2.2955470    2.2542385   -2.2285326 
C    -2.4985584    3.5932802   -2.5835369 
H    -1.5803681    5.5338986   -2.8889763 
H     0.7196072    4.7323327   -2.3218794 
H     1.0836004    2.3487961   -1.6778262 
H    -3.1496702    1.5720284   -2.1567530 
H    -3.5096280    3.9481069   -2.8069141 
