107
Energy =
C     1.9481618   -1.1029999   -3.1906510 
C     2.8156592   -0.1627885   -2.5607571 
C     3.5326497   -0.5143453   -1.3928035 
H     2.8315677    0.8749609   -2.9195686 
Pd    1.2689702   -0.6745888   -1.0925786 
P     1.2123255    0.1032518    1.1461323 
P    -1.0512753   -1.0122143   -1.1324929 
H     2.2069517   -2.1673170   -3.0805127 
H     3.6883083   -1.5895915   -1.2129202 
C    -0.4092913   -0.1567859   -6.6632525 
C    -0.3222485    0.7634280   -5.6050456 
C     0.4499162    0.4663736   -4.4782266 
C     1.1403072   -0.7625763   -4.3788373 
C     1.0436174   -1.6780788   -5.4485620 
C     0.2833091   -1.3734083   -6.5844760 
H    -1.0176545    0.0744895   -7.5434232 
H    -0.8668156    1.7120814   -5.6582028 
H     0.4967469    1.1763828   -3.6438853 
H     1.5727733   -2.6357952   -5.3869767 
H     0.2231112   -2.0933657   -7.4072390 
C     6.2962802    1.9739997    0.7653053 
C     6.4045008    0.5762693    0.8034100 
C     5.4877977   -0.2178401    0.1057570 
C     4.4523217    0.3684033   -0.6563611 
C     4.3620464    1.7788329   -0.6932472 
C     5.2696953    2.5714231    0.0149197 
H     7.0077285    2.5971814    1.3169564 
H     7.2004881    0.1009533    1.3852441 
H     5.5716118   -1.3086874    0.1473079 
H     3.5705306    2.2632319   -1.2708566 
H     5.1763802    3.6618441   -0.0183121 
C    -2.3464417    3.2694125    0.2485191 
C    -2.1359338    2.9396962   -1.1209182 
C    -1.8045715    1.6538196   -1.4978179 
C    -1.6661719    0.6153111   -0.5234976 
C    -1.7947919    0.9132373    0.8399001 
C    -2.1682995    2.2456452    1.2462898 
H    -2.2417589    3.7233610   -1.8788817 
H    -1.6474592    1.4224863   -2.5556798 
C    -2.3338529   -1.6580549    3.6590933 
C    -2.6028768   -0.6973622    2.6200677 
C    -1.5087839   -0.1041084    1.9031044 
C    -0.1875797   -0.4639289    2.2206252 
C     0.0618524   -1.3751497    3.2882625 
C    -0.9818823   -1.9526723    3.9864345 
H     1.0907658   -1.6268926    3.5568199 
H    -0.7722909   -2.6572133    4.7984688 
C    -2.7151038    3.8848138    2.9796670 
C    -2.3539122    2.5968909    2.6168024 
H    -2.2100345    1.8344626    3.3870487 
C    -2.8928254    4.8895207    1.9938489 
C    -2.7061692    4.5863038    0.6549391 
H    -2.8356811    5.3566814   -0.1130170 
C    -4.7329623   -1.9858657    3.9827611 
C    -3.4252585   -2.2889395    4.3237114 
H    -3.2107432   -3.0211173    5.1096637 
C    -5.0009487   -1.0313481    2.9656195 
C    -3.9620267   -0.4003615    2.3012711 
H    -4.1767328    0.3272893    1.5130844 
H    -3.1758501    5.9035570    2.2943297 
H    -2.8601215    4.1305501    4.0367345 
H    -6.0377415   -0.7955770    2.7041629 
H    -5.5640374   -2.4779272    4.4984070 
C     0.8870584    4.7330191    1.2287881 
C     1.0452393    4.0573099    0.0099938 
C     1.1559308    2.6614635   -0.0065118 
C     1.1160878    1.9316691    1.1967794 
C     0.9385296    2.6139323    2.4186768 
C     0.8319385    4.0101371    2.4308149 
H     0.7891527    5.8231692    1.2424895 
H     1.0641740    4.6159170   -0.9314066 
H     1.2399115    2.1216963   -0.9568743 
H     0.8545296    2.0512020    3.3545936 
H     0.6834090    4.5344483    3.3799528 
C     4.9364594   -1.3616082    3.5157128 
C     4.5873539   -0.0054606    3.5742512 
C     3.4798582    0.4755100    2.8597065 
C     2.7140745   -0.4051648    2.0749868 
C     3.0940989   -1.7626876    1.9869989 
C     4.1912638   -2.2408265    2.7136952 
H     5.7973875   -1.7320572    4.0816752 
H     5.1830601    0.6897115    4.1745089 
H     3.2295112    1.5389439    2.9023336 
H     2.5223233   -2.4472060    1.3483437 
H     4.4693110   -3.2979121    2.6485375 
C    -3.4257237   -2.1602752   -4.9573320 
C    -2.2079533   -2.7793067   -4.6401934 
C    -1.4897802   -2.3767796   -3.5082131 
C    -1.9837153   -1.3502893   -2.6799523 
C    -3.2197566   -0.7452747   -2.9904211 
C    -3.9310892   -1.1476152   -4.1290476 
H    -3.9837190   -2.4709524   -5.8466096 
H    -1.8098431   -3.5720812   -5.2810426 
H    -0.5409626   -2.8639827   -3.2603867 
H    -3.6362856    0.0326103   -2.3431436 
H    -4.8882035   -0.6705587   -4.3644251 
C    -2.6383883   -4.5204990    1.4710717 
C    -1.2581222   -4.3025881    1.3532495 
C    -0.7812112   -3.2320548    0.5844752 
C    -1.6836467   -2.3716575   -0.0670887 
C    -3.0703756   -2.6071151    0.0375189 
C    -3.5424350   -3.6733180    0.8108760 
H    -3.0118056   -5.3535004    2.0753560 
H    -0.5499525   -4.9633892    1.8634260 
H     0.2965249   -3.0517638    0.4948801 
H    -3.7803473   -1.9543636   -0.4800091 
H    -4.6201173   -3.8396959    0.9032965 
