107
Energy =
C     3.2057181    1.4634336   -1.5517650 
C     2.3918806    1.3481073   -2.7193196 
C     1.1872496    2.0795515   -2.8325752 
H     2.6435071    0.5906988   -3.4722778 
Pd    1.1916262    0.6729859   -1.0126496 
P    -1.1076744    0.1114947   -1.1035189 
P     1.4048139   -0.0872057    1.1960095 
H     3.1710438    2.4196408   -1.0087453 
H     1.0897361    2.9634880   -2.1844917 
C     6.8365682   -0.7801677   -0.9986975 
C     6.7405218    0.5435475   -0.5459493 
C     5.5514284    1.2635305   -0.7215243 
C     4.4422675    0.6785812   -1.3698683 
C     4.5528158   -0.6573019   -1.8234938 
C     5.7354473   -1.3793293   -1.6363184 
H     7.7621879   -1.3467177   -0.8541642 
H     7.5919053    1.0164539   -0.0456068 
H     5.4782451    2.2926574   -0.3536782 
H     3.6887281   -1.1436125   -2.2911766 
H     5.8004760   -2.4165072   -1.9812640 
C    -1.5475345    2.1372360   -6.1453036 
C    -1.6943542    3.0348217   -5.0777522 
C    -0.8029457    2.9914103   -4.0002187 
C     0.2515012    2.0488568   -3.9646164 
C     0.3761867    1.1402189   -5.0418194 
C    -0.5100398    1.1899954   -6.1206454 
H    -2.2384783    2.1723911   -6.9938893 
H    -2.4997010    3.7764336   -5.0873218 
H    -0.9169623    3.7013585   -3.1749348 
H     1.1737842    0.3916746   -5.0414629 
H    -0.3946977    0.4826628   -6.9477540 
C    -2.2941122   -3.3653827    1.8146123 
C    -2.3837684   -3.5273761    0.4046606 
C    -2.0959545   -2.4818593   -0.4528929 
C    -1.7020488   -1.2094509    0.0544764 
C    -1.6536738   -0.9946676    1.4427579 
C    -1.9501254   -2.0706732    2.3444584 
H    -2.6750083   -4.5021602   -0.0010619 
H    -2.1640588   -2.6378633   -1.5323726 
C    -2.0830163    2.5480171    2.8885330 
C    -2.3718091    1.1929942    2.4933278 
C    -1.3108647    0.3599868    1.9839148 
C    -0.0007010    0.8552204    1.9357127 
C     0.2552402    2.2237746    2.2686973 
C    -0.7556895    3.0411980    2.7336463 
H     1.2663471    2.6273036    2.1516341 
H    -0.5426612    4.0846178    2.9899439 
C    -2.0970039   -2.9818694    4.6086976 
C    -1.8663259   -1.9115135    3.7602632 
H    -1.6054386   -0.9312468    4.1702228 
C    -2.4262502   -4.2602643    4.0839177 
C    -2.5260185   -4.4454790    2.7148985 
H    -2.7825877   -5.4278454    2.3039064 
C    -4.4218353    2.8738533    3.5148262 
C    -3.1326894    3.3669798    3.3946295 
H    -2.9010141    4.3959841    3.6904068 
C    -4.7117111    1.5426541    3.1187948 
C    -3.7144408    0.7246002    2.6117215 
H    -3.9523472   -0.2963838    2.3015317 
H    -2.6043101   -5.0975833    4.7665139 
H    -2.0234116   -2.8442438    5.6924761 
H    -5.7334961    1.1600324    3.2104521 
H    -5.2195021    3.5097855    3.9123007 
C     5.1385826    0.4319454    3.9233669 
C     5.2334531   -0.1510038    2.6512507 
C     4.1009827   -0.2463723    1.8327093 
C     2.8569717    0.2466657    2.2795412 
C     2.7609606    0.8094073    3.5702427 
C     3.9003958    0.9052413    4.3818690 
H     6.0252102    0.5076833    4.5614129 
H     6.1909204   -0.5363740    2.2873787 
H     4.1821418   -0.7267659    0.8533843 
H     1.7987993    1.1580708    3.9565864 
H     3.8144463    1.3437132    5.3816548 
C     1.0861051   -4.6648849    1.9108510 
C     1.1551919   -3.7887552    3.0060391 
C     1.2308765   -2.4075476    2.7975000 
C     1.2187742   -1.8920048    1.4843875 
C     1.1650374   -2.7738635    0.3900881 
C     1.0968345   -4.1575566    0.6037034 
H     1.0286353   -5.7452750    2.0785683 
H     1.1455983   -4.1828298    4.0269756 
H     1.2961401   -1.7287874    3.6538629 
H     1.1716290   -2.3682435   -0.6278123 
H     1.0491619   -4.8382755   -0.2524224 
C    -3.9319320    3.6825627   -0.2065465 
C    -4.4680311    2.3969800   -0.3813935 
C    -3.6255618    1.3158400   -0.6671127 
C    -2.2352720    1.5195912   -0.7936906 
C    -1.7028226    2.8091724   -0.6065027 
C    -2.5490669    3.8871082   -0.3166841 
H    -4.5927739    4.5219487    0.0320695 
H    -5.5448400    2.2324111   -0.2741220 
H    -4.0429340    0.3076509   -0.7635963 
H    -0.6191424    2.9567804   -0.6543937 
H    -2.1253718    4.8840101   -0.1576073 
C    -2.0056761   -1.7910399   -5.2501527 
C    -2.8630276   -0.7944215   -4.7632944 
C    -2.6135193   -0.1835277   -3.5254714 
C    -1.4927604   -0.5668396   -2.7671034 
C    -0.6078459   -1.5402375   -3.2828766 
C    -0.8708218   -2.1591588   -4.5107615 
H    -2.2118111   -2.2696355   -6.2130786 
H    -3.7332045   -0.4840007   -5.3505358 
H    -3.2862895    0.5977352   -3.1609625 
H     0.2869941   -1.8159532   -2.7117321 
H    -0.1861018   -2.9226921   -4.8944033 
