107
Energy =
C     2.0846399   -1.6353130   -2.7716476 
C     3.0894805   -1.1961227   -1.8780215 
C     3.3364706   -1.8969213   -0.6606979 
H     3.6026648   -0.2426219   -2.0603458 
Pd    1.2347404   -1.1100562   -0.7116031 
P     0.6659854   -0.7775725    1.5390049 
P    -0.7940666   -0.1402912   -1.4645821 
H     1.7762724   -2.6893904   -2.6905003 
H     3.1253296   -2.9773057   -0.6585809 
C     1.0736623    0.1341611   -6.5574452 
C     0.8391851   -1.2267833   -6.3131493 
C     1.1614483   -1.7824025   -5.0701004 
C     1.7385416   -0.9928362   -4.0501712 
C     1.9773418    0.3753978   -4.3143205 
C     1.6425254    0.9330283   -5.5514437 
H     0.8149605    0.5726918   -7.5267580 
H     0.3958446   -1.8575656   -7.0900518 
H     0.9671737   -2.8433345   -4.8820573 
H     2.4183750    1.0141504   -3.5447553 
H     1.8262620    1.9970878   -5.7325587 
C     6.2494605   -0.6042575    2.2305180 
C     5.4052707    0.3376123    1.6184567 
C     4.4633968   -0.0748614    0.6713807 
C     4.3357271   -1.4391100    0.3255013 
C     5.1897813   -2.3743863    0.9479667 
C     6.1440666   -1.9590500    1.8850913 
H     6.9837459   -0.2814012    2.9754231 
H     5.4789503    1.3963380    1.8887216 
H     3.7903200    0.6595836    0.2132716 
H     5.1036118   -3.4363337    0.6912088 
H     6.8016098   -2.6977272    2.3550268 
C    -0.2438382    3.8082054    1.3016903 
C     1.0604920    3.3010119    1.5662740 
C     1.2836329    1.9436889    1.6815737 
C     0.2102133    1.0083455    1.5409884 
C    -1.0744755    1.4613448    1.2113771 
C    -1.3278723    2.8779208    1.1152498 
H     1.8918340    4.0051416    1.6799840 
H     2.2937089    1.5757370    1.8857666 
C    -4.3293396   -0.5664442    1.5864477 
C    -3.2379318    0.3268754    1.8788204 
C    -2.1949362    0.5123954    0.9089118 
C    -2.2476653   -0.1769643   -0.3149873 
C    -3.3632016   -1.0142824   -0.6095336 
C    -4.3736421   -1.2008989    0.3147485 
H    -3.4199869   -1.5217923   -1.5756937 
H    -5.2191417   -1.8547311    0.0753167 
C    -2.8403410    4.7651524    0.7388910 
C    -2.6238637    3.3987870    0.8231562 
H    -3.4546226    2.7053600    0.6671647 
C    -1.7708006    5.6783016    0.9262262 
C    -0.4967609    5.2060373    1.1970368 
H     0.3363449    5.9031893    1.3380037 
C    -5.2581328   -0.1662022    3.8101741 
C    -5.3271954   -0.7946648    2.5779301 
H    -6.1504260   -1.4797832    2.3483642 
C    -4.1888817    0.7236230    4.0969085 
C    -3.2034238    0.9665927    3.1542191 
H    -2.3787357    1.6469767    3.3859007 
H    -1.9549828    6.7551835    0.8548535 
H    -3.8445071    5.1433668    0.5211940 
H    -4.1435662    1.2189788    5.0723283 
H    -6.0289904   -0.3502234    4.5655867 
C    -0.1690580    4.3763577   -2.3346920 
C     0.9202925    3.5674293   -1.9796206 
C     0.7267205    2.2027512   -1.7325740 
C    -0.5570755    1.6358180   -1.8450671 
C    -1.6526773    2.4567599   -2.1849804 
C    -1.4538686    3.8201668   -2.4348855 
H    -0.0213769    5.4455355   -2.5171358 
H     1.9195113    4.0027858   -1.8765901 
H     1.5645230    1.5706477   -1.4161053 
H    -2.6630507    2.0356211   -2.2245909 
H    -2.3085662    4.4555136   -2.6871204 
C    -2.4242020   -2.3690458   -5.2070531 
C    -2.3342466   -0.9706882   -5.2376593 
C    -1.8333774   -0.2656046   -4.1329680 
C    -1.4137997   -0.9631896   -2.9862007 
C    -1.4690243   -2.3745671   -2.9756207 
C    -1.9835414   -3.0727905   -4.0747951 
H    -2.8222714   -2.9128722   -6.0699134 
H    -2.6490185   -0.4193297   -6.1294658 
H    -1.7544936    0.8239837   -4.1776903 
H    -1.1104760   -2.9264530   -2.0980297 
H    -2.0337506   -4.1663762   -4.0509411 
C     3.5675354   -1.5787163    5.0777026 
C     3.4532947   -2.4789763    4.0085826 
C     2.6095259   -2.1856005    2.9309144 
C     1.8688465   -0.9878590    2.9127571 
C     1.9701266   -0.0950323    4.0004134 
C     2.8221631   -0.3906267    5.0732262 
H     4.2333819   -1.8053060    5.9167577 
H     4.0302022   -3.4089870    4.0077480 
H     2.5191939   -2.8912174    2.0984806 
H     1.3802881    0.8265985    4.0201574 
H     2.8971921    0.3092610    5.9120581 
C    -2.7837516   -3.4336748    3.1660803 
C    -2.2283299   -2.4325031    3.9784727 
C    -1.2002947   -1.6195511    3.4887597 
C    -0.7308393   -1.7942092    2.1702626 
C    -1.2812796   -2.8075608    1.3646747 
C    -2.3066129   -3.6238658    1.8612799 
H    -3.5875673   -4.0681229    3.5532559 
H    -2.6009904   -2.2802492    4.9960806 
H    -0.7665935   -0.8457128    4.1298482 
H    -0.9094054   -2.9454807    0.3426364 
H    -2.7350006   -4.4056974    1.2258970 
