107
Energy =
C     1.8457587   -1.6848860   -2.7555279 
C     2.9997820   -1.3898604   -1.9719198 
C     3.2076297   -1.9900170   -0.7096967 
H     3.6550190   -0.5624858   -2.2737064 
Pd    1.2097800   -0.8812932   -0.7679329 
P     0.9975928    0.0468528    1.3758019 
P    -1.0533677   -0.5569176   -1.2946310 
H     1.4207906   -2.6943718   -2.6686125 
H     2.6314093   -2.9004520   -0.4776719 
C     0.7526437    0.3800281   -6.3722452 
C     1.5779489    1.0166709   -5.4295298 
C     1.9434792    0.3557161   -4.2539418 
C     1.4933414   -0.9601990   -3.9917123 
C     0.6677792   -1.5879687   -4.9503973 
C     0.3019527   -0.9248312   -6.1281387 
H     0.4646620    0.9009915   -7.2911006 
H     1.9316996    2.0368672   -5.6116261 
H     2.5715393    0.8752863   -3.5215078 
H     0.3094725   -2.6061053   -4.7644814 
H    -0.3404541   -1.4311040   -6.8560340 
C     6.5831493   -1.3322075    1.8637172 
C     5.4024374   -1.9017347    2.3668885 
C     4.3118042   -2.1165261    1.5200132 
C     4.3723278   -1.7495413    0.1556981 
C     5.5685934   -1.1805032   -0.3385249 
C     6.6643566   -0.9798112    0.5077541 
H     7.4398625   -1.1701656    2.5257881 
H     5.3321209   -2.1751205    3.4243583 
H     3.3874826   -2.5505671    1.9182109 
H     5.6555271   -0.9232469   -1.3992061 
H     7.5892169   -0.5528999    0.1062036 
C    -1.5586855    3.9224903    0.6717674 
C    -0.1446514    3.9707398    0.8180045 
C     0.5811173    2.8293908    1.0997532 
C    -0.0623252    1.5622311    1.2296764 
C    -1.4565796    1.4682442    1.0811400 
C    -2.2292279    2.6570565    0.8244067 
H     0.3683601    4.9332897    0.7174027 
H     1.6640527    2.9015770    1.2304257 
C    -3.6142886   -1.3586129    2.5571549 
C    -2.9386803   -0.0964217    2.4003367 
C    -2.1809217    0.1604036    1.2034973 
C    -2.1511681   -0.7999485    0.1783982 
C    -2.8666462   -2.0245177    0.3319862 
C    -3.5652622   -2.2991273    1.4917635 
H    -2.8697483   -2.7570110   -0.4784847 
H    -4.1003206   -3.2492717    1.5951827 
C    -4.3692749    3.7811940    0.4366584 
C    -3.6510781    2.6255564    0.6969323 
H    -4.1752685    1.6722107    0.8047656 
C    -3.7035536    5.0246363    0.2769990 
C    -2.3248188    5.0907641    0.3897211 
H    -1.8019012    6.0459923    0.2714288 
C    -4.3740327   -0.6882478    4.7807442 
C    -4.3190733   -1.6292442    3.7660924 
H    -4.8232638   -2.5955146    3.8755854 
C    -3.7239887    0.5641993    4.6229626 
C    -3.0214536    0.8525461    3.4642977 
H    -2.5166122    1.8167617    3.3596564 
H    -4.2831434    5.9296452    0.0677833 
H    -5.4595628    3.7345019    0.3470938 
H    -3.7761337    1.3069492    5.4258242 
H    -4.9226089   -0.9043747    5.7032659 
C    -2.0425926    3.6404993   -2.9855079 
C    -3.0881948    2.7487203   -2.6997029 
C    -2.8068381    1.4738592   -2.1939144 
C    -1.4681511    1.0824672   -1.9824931 
C    -0.4227143    1.9804895   -2.2702203 
C    -0.7108508    3.2562073   -2.7699573 
H    -2.2690145    4.6409715   -3.3677327 
H    -4.1279280    3.0555234   -2.8496525 
H    -3.6262213    0.7937088   -1.9372136 
H     0.6121081    1.6779065   -2.0798704 
H     0.1054129    3.9541549   -2.9819228 
C    -2.3848659   -3.8355584   -4.3251914 
C    -1.6314614   -4.1648122   -3.1857678 
C    -1.2457967   -3.1608186   -2.2893636 
C    -1.6219745   -1.8163557   -2.5105067 
C    -2.3622041   -1.4928105   -3.6623991 
C    -2.7423339   -2.5014069   -4.5616330 
H    -2.6829575   -4.6183638   -5.0301598 
H    -1.3392292   -5.2034241   -2.9995421 
H    -0.6447293   -3.4195970   -1.4084638 
H    -2.6265139   -0.4534757   -3.8749859 
H    -3.3136127   -2.2360600   -5.4571469 
C     5.0495581    1.6690894    2.9938648 
C     4.7474068    1.7057200    1.6243727 
C     3.5286215    1.1953699    1.1633590 
C     2.5870856    0.6604839    2.0692936 
C     2.9058507    0.6101166    3.4403428 
C     4.1309544    1.1155974    3.8967302 
H     6.0071862    2.0586631    3.3539864 
H     5.4706818    2.1127628    0.9111724 
H     3.3046465    1.1987159    0.0893015 
H     2.2093740    0.1650454    4.1556801 
H     4.3688153    1.0703731    4.9645645 
C    -0.8531757   -2.7395413    4.5917423 
C    -0.4318363   -3.2556934    3.3571917 
C     0.1232911   -2.4022571    2.3942845 
C     0.2563945   -1.0247399    2.6595453 
C    -0.1786172   -0.5104414    3.8994475 
C    -0.7246548   -1.3684575    4.8616800 
H    -1.2922584   -3.4046848    5.3422257 
H    -0.5423087   -4.3230066    3.1401277 
H     0.4399268   -2.7960711    1.4210012 
H    -0.1175301    0.5643168    4.0995137 
H    -1.0733426   -0.9608720    5.8154089 
