94
Energy =
C     0.0936118    1.1641208    2.7635109 
C    -0.8035600    2.0664422    2.1472132 
C    -2.1155202    1.6511857    1.7627874 
H    -0.4428074    3.0533921    1.8326975 
Pd   -0.6069478    0.4142963    0.6991262 
P    -1.9240866   -0.4739802   -1.0029265 
P     1.4544013   -0.5425851    0.1405468 
H    -0.3450919    0.2815695    3.2539145 
H    -2.5771648    0.8439806    2.3516668 
C     4.2079250    1.8243454    3.8171309 
C     3.5248025    0.6845583    4.2662460 
C     2.1805752    0.4967262    3.9289708 
C     1.4922342    1.4350480    3.1241629 
C     2.1942181    2.5822740    2.6853758 
C     3.5342170    2.7754423    3.0325818 
H     5.2586823    1.9782612    4.0845939 
H     4.0369340   -0.0580711    4.8867349 
H     1.6529496   -0.3924037    4.2863951 
H     1.6943564    3.3276202    2.0607144 
H     4.0589094    3.6703355    2.6837717 
C    -4.9355291    4.2240944   -0.2182986 
C    -3.5572718    4.4374792   -0.3938330 
C    -2.6309685    3.5927395    0.2231177 
C    -3.0619400    2.5228830    1.0432267 
C    -4.4494283    2.3023940    1.1843961 
C    -5.3771416    3.1464263    0.5618748 
H    -5.6603705    4.8906996   -0.6968642 
H    -3.2059998    5.2657455   -1.0181547 
H    -1.5602602    3.7566572    0.0581790 
H    -4.8002096    1.4690440    1.8024419 
H    -6.4486532    2.9638091    0.6905348 
Fe    0.6667116   -1.1792756   -3.0706820 
C    -1.1311490   -0.3959106   -2.6360096 
C    -1.2453585   -1.3303719   -3.7330711 
H    -1.8403295   -2.2447848   -3.7352796 
C    -0.4011358   -0.8646792   -4.7930030 
H    -0.2398901   -1.3704900   -5.7467949 
C     0.2345805    0.3489263   -4.3667078 
H     0.9584142    0.9290813   -4.9417471 
C    -0.2114708    0.6453747   -3.0384081 
C     1.7566346   -1.4737266   -1.3971167 
C     2.6116095   -1.0609987   -2.4871760 
H     3.2305839   -0.1628460   -2.5041746 
C     2.4754669   -2.0241109   -3.5387607 
H     2.9724405   -1.9815375   -4.5095991 
C     1.5448318   -3.0289176   -3.1128242 
H     1.2111417   -3.8845920   -3.7026053 
C     1.0934581   -2.6964990   -1.7940822 
H     0.0878604    1.4969085   -2.4257570 
H     0.3783055   -3.2603724   -1.1957479 
C    -3.6042813    0.0970805   -1.3598621 
C    -4.8708254   -0.3253884   -1.0060472 
C    -5.7846997    0.5431992   -1.6812762 
C    -5.0280824    1.4478128   -2.3942281 
H    -5.1096221   -1.1647900   -0.3534351 
H    -6.8735589    0.5057885   -1.6478967 
O    -3.6977887    1.1861230   -2.1935371 
C    -5.3545881    2.5673220   -3.3193232 
H    -4.8363964    3.4910327   -3.0101754 
H    -5.0392967    2.3316297   -4.3522674 
H    -6.4395989    2.7509930   -3.3173308 
C    -2.2284470   -2.2215020   -0.6534199 
C    -3.0254588   -3.1934591   -1.2226071 
C    -2.7373859   -4.4139082   -0.5363874 
C    -1.7850378   -4.1237596    0.4166237 
H    -3.7372713   -3.0409041   -2.0343772 
H    -3.1827612   -5.3923169   -0.7177619 
O    -1.4712964   -2.7894198    0.3550516 
C    -1.0811373   -4.9390628    1.4460763 
H     0.0146044   -4.8777481    1.3227368 
H    -1.3227967   -4.5887690    2.4660531 
H    -1.3898233   -5.9916567    1.3590719 
C     2.6326663    0.8204200    0.0026538 
C     2.4587276    2.0928018   -0.5060069 
C     3.7478926    2.7100966   -0.5063344 
C     4.6297158    1.7818715    0.0075221 
H     1.5111527    2.5303145   -0.8218180 
H     3.9974930    3.7207308   -0.8293979 
C     2.0249432   -1.6302072    1.4593888 
C     1.2890269   -2.3488177    2.3801112 
C     2.2284923   -3.1077221    3.1455933 
C     3.4792762   -2.8080000    2.6440930 
H     0.2047881   -2.3175744    2.4844410 
H     2.0160302   -3.7879363    3.9705970 
O     3.9584264    0.6275071    0.3047540 
O     3.3593896   -1.9215113    1.6103460 
C     6.0875201    1.7999715    0.3103250 
H     6.2594271    1.6486409    1.3912708 
H     6.6155886    0.9935445   -0.2287159 
H     6.5217885    2.7669304    0.0148050 
C     4.8617713   -3.2308390    3.0029946 
H     5.3639321   -3.7119038    2.1447997 
H     5.4714850   -2.3585039    3.2999378 
H     4.8324456   -3.9438186    3.8406711 
