132
Energy =
C     2.3014207   -1.6017196   -2.1706996 
C     2.0827719   -0.2442123   -2.4633744 
C     2.3792793    0.7866104   -1.5124010 
H     1.5760623    0.0235473   -3.3986225 
Pd    0.8234565   -0.5135551   -0.6600081 
P     0.4848579    0.7541694    1.2586486 
P    -1.1333108   -1.7712581   -0.2154444 
H     2.9397632   -1.8277212   -1.3045507 
H     3.2202908    0.6212156   -0.8250464 
C     1.9776835   -4.9379257   -4.8594089 
C     1.4158015   -3.7017187   -5.2231844 
C     1.4870286   -2.6101796   -4.3530244 
C     2.1228424   -2.7297445   -3.0936356 
C     2.6720385   -3.9848024   -2.7372757 
C     2.6038248   -5.0758854   -3.6111799 
H     1.9251479   -5.7884616   -5.5463951 
H     0.9246138   -3.5890402   -6.1951221 
H     1.0476003   -1.6548774   -4.6576726 
H     3.1739077   -4.0932446   -1.7688689 
H     3.0437833   -6.0350612   -3.3199465 
C     1.3726633    4.9344187   -2.1449633 
C     0.6828093    3.9318474   -2.8485230 
C     1.0035258    2.5845952   -2.6532176 
C     2.0302829    2.2031276   -1.7541506 
C     2.7208907    3.2239999   -1.0628870 
C     2.3933493    4.5719666   -1.2539287 
H     1.1181426    5.9885196   -2.2958212 
H    -0.1152004    4.2023840   -3.5479732 
H     0.4362933    1.8205815   -3.1949012 
H     3.5175353    2.9525317   -0.3628021 
H     2.9428383    5.3429216   -0.7036968 
Fe    1.5477438   -2.0876400    2.8787335 
C     0.3556124   -0.4498224    2.6040487 
C    -0.4116788   -1.6882530    2.5889313 
C    -0.1983241   -2.3160215    3.8718465 
C     0.7007392   -1.5145679    4.6461805 
C     1.0541102   -0.3684249    3.8684666 
C     2.1754773   -3.2396860    1.3043136 
C     3.1343684   -2.2057140    1.5652555 
C     3.5893950   -2.3437347    2.9167159 
C     2.9130649   -3.4693100    3.4945592 
C     2.0411231   -4.0256364    2.4966903 
C    -1.0190631    1.7866561    1.3287659 
C    -1.1759616    2.8075477    0.3696875 
C    -2.3193826    3.6211664    0.3674248 
C    -3.3351128    3.3492337    1.3159565 
C    -3.1936078    2.3435161    2.3002834 
C    -2.0128433    1.5797810    2.3017531 
C     1.8410505    1.8720511    1.7855563 
C     1.6269655    3.2308617    2.0708973 
C     2.6937938    4.0759903    2.4291285 
C     3.9925073    3.5244189    2.4919816 
C     4.2303536    2.1480236    2.2549284 
C     3.1424910    1.3423470    1.8950453 
C    -1.4171168   -2.2461212    1.6007366 
H    -0.6285088   -3.2720395    4.1793250 
H     1.0788316   -1.7540458    5.6416194 
H     1.7282593    0.4358590    4.1647895 
H     1.6413174   -3.3888775    0.3672629 
H     3.4631778   -1.4521897    0.8487751 
H     4.3090060   -1.6980238    3.4232161 
H     3.0268121   -3.8287929    4.5188088 
H     1.3785190   -4.8826875    2.6320659 
H    -0.3946957    2.9836816   -0.3783913 
H    -1.8690002    0.8189167    3.0765244 
H     0.6190753    3.6531288    2.0206384 
H     3.2992083    0.2763464    1.7202289 
H    -1.2345533   -3.3352569    1.5876839 
H    -2.5423782   -3.6670628   -0.6961338 
H    -2.6154261    0.0720920    0.1598158 
C    -4.9829385   -0.1487875   -1.2298559 
C    -3.9319757   -1.2397723   -0.9496320 
C    -2.5409335   -0.6065779   -0.7118256 
C    -2.1304169    0.2691563   -1.9227473 
C    -3.2020250    1.3243270   -2.2437074 
C    -4.5902231    0.7008548   -2.4480713 
H    -5.0737412    0.5041576   -0.3389710 
H    -5.9707086   -0.6190786   -1.3839592 
H    -3.8912537   -1.9202011   -1.8192108 
H    -4.2495316   -1.8477688   -0.0892977 
H    -1.1663214    0.7663452   -1.7004311 
H    -1.9592805   -0.3702436   -2.8093163 
H    -3.2490592    2.0340092   -1.3986679 
H    -2.8951990    1.9051929   -3.1327909 
H    -4.5846289    0.0610955   -3.3526500 
H    -5.3422578    1.4911585   -2.6261981 
C    -1.0073710   -5.8607151   -1.3511320 
C    -0.5570540   -4.5335504   -0.7130728 
C    -1.5343265   -3.3944509   -1.0719624 
C    -1.5969029   -3.2430036   -2.6065603 
C    -2.0370983   -4.5595530   -3.2730372 
C    -1.1279375   -5.7326754   -2.8774420 
H    -1.9846335   -6.1548269   -0.9199618 
H    -0.2911463   -6.6596567   -1.0868205 
H     0.4462576   -4.2680947   -1.0968833 
H    -0.4663536   -4.6590489    0.3811862 
H    -2.2871395   -2.4353811   -2.8986335 
H    -0.5948944   -2.9556024   -2.9722082 
H    -3.0814755   -4.7797403   -2.9753768 
H    -2.0413307   -4.4314770   -4.3707364 
H    -0.1218863   -5.5643428   -3.3027800 
H    -1.5059955   -6.6749163   -3.3128753 
C    -2.8577915   -2.0380028    2.1242527 
H    -3.1769922   -0.9856248    2.0542103 
H    -3.5784399   -2.6645804    1.5750755 
H    -2.9016167   -2.3313957    3.1868778 
C    -2.4834600    4.7554177   -0.6160223 
H    -3.1776728    4.4810955   -1.4325230 
H    -2.9090334    5.6413275   -0.1168206 
H    -1.5170273    5.0190378   -1.0737174 
C    -4.2790353    2.1151555    3.3256942 
H    -4.7825093    3.0628316    3.5763864 
H    -5.0518523    1.4232566    2.9394151 
H    -3.8673841    1.6690215    4.2456821 
O    -4.4584205    4.1467342    1.3203708 
C    -5.5702376    3.6539848    0.5613155 
H    -6.3594511    4.4168978    0.6335347 
H    -5.2972112    3.5056487   -0.5012143 
H    -5.9461632    2.6972828    0.9713284 
C     2.4552273    5.5335777    2.7459432 
H     3.2071636    5.9045611    3.4609832 
H     2.5209336    6.1570297    1.8339843 
H     1.4495227    5.6839734    3.1713978 
C     5.6256405    1.5889533    2.3995685 
H     5.6290297    0.4934399    2.2767125 
H     6.3111695    2.0186666    1.6468860 
H     6.0461015    1.8404228    3.3883634 
O     5.0627027    4.3064009    2.8646464 
C     5.6445073    5.1011421    1.8222201 
H     6.4996424    5.6267520    2.2722916 
H     5.9990663    4.4653572    0.9879827 
H     4.9260298    5.8440647    1.4267649 
