142
Energy =
C     1.3466416    3.1279983   -0.0079290 
C     1.7440437    2.7298265    1.3005753 
C     2.8420360    1.8611241    1.4901300 
H     1.1320343    3.0256657    2.1622657 
Pd    1.1867262    0.8780006    0.2052372 
P     1.2169236   -1.2075408    1.2574973 
P    -0.1831810    0.5735760   -1.7256302 
H     2.1241499    3.1443495   -0.7841712 
H     3.5440228    1.7614244    0.6473315 
C    -2.0139834    5.6821941   -0.8267464 
C    -2.0185858    4.8761125    0.3245428 
C    -0.9322921    4.0431934    0.6027184 
C     0.1799604    3.9878874   -0.2700350 
C     0.1707558    4.8039253   -1.4226948 
C    -0.9126070    5.6479629   -1.6943301 
H    -2.8654029    6.3359740   -1.0422769 
H    -2.8758120    4.8949664    1.0055180 
H    -0.9562631    3.4192113    1.5006568 
H     1.0244618    4.7731890   -2.1079048 
H    -0.8963191    6.2778517   -2.5895625 
C     4.4960448    0.4565103    5.2000660 
C     5.2322379    0.3851451    4.0078449 
C     4.6745662    0.8415358    2.8085386 
C     3.3737256    1.3973860    2.7785505 
C     2.6601163    1.5003076    3.9966607 
C     3.2100764    1.0231679    5.1896398 
H     4.9233822    0.0740363    6.1320454 
H     6.2381834   -0.0446060    4.0121057 
H     5.2483756    0.7654104    1.8788229 
H     1.6712975    1.9649906    4.0220257 
H     2.6333810    1.1027800    6.1170267 
Fe   -2.4294957   -3.8671576   -0.1309834 
C    -1.0550851   -2.4175515    0.1870584 
C    -1.6651186   -2.2343222   -1.1205982 
C    -3.0896760   -2.1207915   -0.9264762 
H    -3.8152840   -1.9838161   -1.7281916 
C    -3.3647550   -2.1700587    0.4758865 
H    -4.3506130   -2.1132646    0.9399305 
C    -2.1231127   -2.3586936    1.1656648 
H    -2.0198173   -2.4962793    2.2414447 
C    -1.5775005   -5.6394385    0.4293759 
H    -0.6060484   -5.7712981    0.9109431 
C    -1.8219907   -5.6322219   -0.9846783 
H    -1.0693355   -5.7720478   -1.7628505 
C    -3.2288579   -5.4255191   -1.1911144 
H    -3.7393006   -5.3665689   -2.1542784 
C    -3.8517209   -5.3114705    0.0974811 
H    -4.9124947   -5.1337824    0.2835036 
C    -2.8310985   -5.4428342    1.0996087 
H    -2.9748740   -5.3754363    2.1801001 
C    -0.9919269   -2.1023447   -2.4388975 
C    -0.2256359   -0.9546914   -2.7946849 
C     0.4382895   -0.9385270   -4.0407495 
H     1.0330174   -0.0682376   -4.3289149 
C     0.3242562   -2.0040822   -4.9424686 
H     0.8538472   -1.9616951   -5.8996551 
C    -0.4911468   -3.0970844   -4.6259176 
H    -0.6167061   -3.9221434   -5.3346092 
C    -1.1377784   -3.1345443   -3.3857818 
H    -1.7646592   -3.9860414   -3.1111269 
C     0.3461211    1.8493094   -2.9442582 
C    -0.5501544    2.6697786   -3.6454595 
H    -1.6220491    2.6201926   -3.4349649 
C    -0.0933015    3.6119785   -4.5864465 
C     1.2968400    3.7109056   -4.8151371 
C     2.2288801    2.9166981   -4.1019460 
C     1.7321895    1.9943334   -3.1696995 
H     2.4434096    1.3749403   -2.6061898 
C    -1.9435983    0.8607813   -1.3345332 
C    -2.9464532    0.7888871   -2.3236460 
H    -2.6809186    0.5558028   -3.3610718 
C    -4.2955813    0.9702775   -1.9894692 
C    -4.6265264    1.2066290   -0.6317007 
C    -3.6423770    1.2922856    0.3768390 
C    -2.3025435    1.1101284   -0.0019407 
H    -1.5178371    1.1448742    0.7616383 
C     2.9088420   -1.7949038    1.6852634 
C     3.2917310   -2.2943525    2.9430473 
H     2.5855181   -2.3399706    3.7746693 
C     4.6170020   -2.6904313    3.1658310 
C     5.5782620   -2.5932864    2.1487470 
H     6.6156029   -2.8848293    2.3328308 
C     5.2003956   -2.0750997    0.9041686 
C     3.8770208   -1.6771032    0.6715623 
H     3.6049751   -1.2531308   -0.3015085 
C     0.3214043   -1.0846393    2.8648841 
C     0.0562100   -2.1996159    3.6782596 
H     0.4234751   -3.1958824    3.4136041 
C    -0.7335562   -2.0634302    4.8301753 
C    -1.2322772   -0.8119254    5.2134826 
H    -1.8395909   -0.7142809    6.1174903 
C    -0.9458100    0.3058587    4.4145585 
C    -0.1997849    0.1634272    3.2402740 
H    -0.0228529    1.0290889    2.5965676 
C     0.3910400   -2.7294577    0.5007145 
H     0.3944905   -3.4696765    1.3201423 
C     1.2267423   -3.2984919   -0.6565349 
H     0.6472906   -4.0903663   -1.1573937 
H     1.4721411   -2.5360196   -1.4131074 
H     2.1661839   -3.7340052   -0.2798623 
C    -1.1249781   -3.3191594    5.5790619 
F    -1.5986993   -3.0557375    6.8108935 
F    -2.1004808   -3.9812640    4.8950308 
F    -0.0797913   -4.1689452    5.6963566 
C    -1.3981799    1.6783929    4.8583131 
F    -1.2680704    2.5980541    3.8581761 
F    -2.6865776    1.6866454    5.2537111 
F    -0.6456487    2.1208982    5.8934712 
C     5.0355050   -3.2104524    4.5259362 
F     6.2182041   -2.6686978    4.9106242 
F     4.1212817   -2.9130342    5.4795321 
F     5.1942803   -4.5519577    4.5148898 
C     6.2306579   -1.8137327   -0.1714598 
F     5.7548419   -2.1203022   -1.4008116 
F     6.5553823   -0.4884506   -0.1963765 
F     7.3682999   -2.5053940    0.0257069 
C    -1.0589265    4.5350491   -5.2910343 
H    -0.5828537    5.5079110   -5.4969188 
H    -1.3872212    4.1139349   -6.2598745 
H    -1.9610583    4.6972853   -4.6788043 
C     3.7087193    3.1006090   -4.3388615 
H     3.9947583    2.7739246   -5.3550884 
H     3.9853217    4.1658772   -4.2605435 
H     4.3038956    2.5193919   -3.6158476 
C    -5.3906930    0.9051289   -3.0275217 
H    -6.0645615    1.7739183   -2.9382338 
H    -4.9717751    0.8767655   -4.0461737 
H    -6.0172822    0.0038101   -2.8931166 
C    -4.0141648    1.5690093    1.8143716 
H    -3.2628283    2.2131769    2.2980282 
H    -4.9957528    2.0647374    1.8752548 
H    -4.0662568    0.6327059    2.4023283 
O     1.7914471    4.6677019   -5.6724525 
O    -5.9547245    1.4007905   -0.3176678 
C     1.7883807    4.3314471   -7.0678685 
H     2.2374398    5.1877657   -7.5923275 
H     2.3913849    3.4235169   -7.2592616 
H     0.7615738    4.1676760   -7.4448411 
C    -6.6436271    0.2511509    0.1902268 
H    -7.6924446    0.5524313    0.3298316 
H    -6.5945976   -0.5926271   -0.5250408 
H    -6.2248098   -0.0768423    1.1609620 
