106
Energy =
C    -3.2509199   -0.4117125   -1.2345312 
C    -3.2784896   -1.1509577   -0.0168232 
C    -3.0132802   -0.4981622    1.2147027 
H    -3.3327444   -2.2462560   -0.0488948 
Pd   -1.2712812   -0.2534590   -0.2126823 
P     0.5276129    0.0463197    1.2422934 
P    -0.1551941    0.4241442   -2.1297811 
H    -3.5171972    0.6533135   -1.1727098 
H    -3.1392365    0.5961579    1.2322819 
C    -3.4706870   -1.9962026   -5.2285010 
C    -3.0845890   -2.8350568   -4.1692952 
C    -3.0077937   -2.3363183   -2.8661780 
C    -3.3316356   -0.9871865   -2.5896883 
C    -3.7125826   -0.1534206   -3.6656477 
C    -3.7803028   -0.6532657   -4.9719953 
H    -3.5250117   -2.3897049   -6.2487490 
H    -2.8317838   -3.8819742   -4.3650552 
H    -2.6732607   -2.9953354   -2.0579565 
H    -3.9585600    0.8958545   -3.4702570 
H    -4.0817167    0.0083432   -5.7908176 
C    -2.7590338   -2.2302780    5.1396467 
C    -2.4540333   -0.8770467    4.9259769 
C    -2.5688678   -0.3276265    3.6457248 
C    -2.9620360   -1.1239290    2.5454336 
C    -3.2797601   -2.4812299    2.7767795 
C    -3.1870565   -3.0234498    4.0631963 
H    -2.6779590   -2.6622000    6.1422806 
H    -2.1329613   -0.2466949    5.7620009 
H    -2.3372961    0.7300667    3.4813874 
H    -3.6148800   -3.1178383    1.9513835 
H    -3.4486344   -4.0736341    4.2275280 
Fe    3.3349324    1.0357373   -2.4975373 
C     1.4471667    1.2346787   -1.8337026 
C     2.3394265    0.9815410   -0.7078615 
C     3.3205807    2.0328870   -0.7066433 
C     3.0482746    2.9297233   -1.7903074 
C     1.8959642    2.4480087   -2.4901070 
C     4.4531223    1.2554772   -4.1893924 
C     5.2812430    0.8320551   -3.0962294 
C     4.7754489   -0.4214660   -2.6171716 
C     3.6303345   -0.7713835   -3.4087760 
C     3.4319047    0.2661976   -4.3824501 
C     2.2010338   -0.0826925    0.3497233 
H     4.1476194    2.1148714    0.0014068 
H     3.6404290    3.8055546   -2.0616718 
H     1.4321771    2.9001980   -3.3681097 
H     4.5627761    2.1837503   -4.7533807 
H     6.1320237    1.3791574   -2.6860603 
H     5.1908011   -0.9973516   -1.7882895 
H     3.0085719   -1.6597598   -3.2896242 
H     2.6303087    0.3027202   -5.1212789 
H     2.9572879    0.1086315    1.1315104 
C     2.3479344   -1.5262004   -0.1641365 
H     3.3425428   -1.6462910   -0.6194679 
H     2.2470568   -2.2549942    0.6570506 
H     1.5910693   -1.7574883   -0.9318354 
C    -1.1068721    1.7407588   -2.9294212 
C    -1.8909129    2.7236833   -2.3596796 
C    -2.3203706    3.5759180   -3.4278371 
C    -1.7675430    3.0593664   -4.5734502 
H    -2.1221707    2.8199230   -1.2979341 
H    -2.9618631    4.4542921   -3.3564446 
H    -1.8096536    3.3399694   -5.6249944 
O    -1.0182420    1.9547600   -4.2851774 
C     0.0185131   -0.8592301   -3.3936600 
C    -0.0212912   -0.9061728   -4.7715681 
C     0.2544329   -2.2611671   -5.1408643 
C     0.4414487   -2.9509575   -3.9692593 
H    -0.2328041   -0.0664831   -5.4301173 
H     0.2982414   -2.6720669   -6.1496078 
H     0.6637069   -3.9902874   -3.7321124 
O     0.2967802   -2.1177556   -2.8995595 
C    -0.0752692    4.3024822    2.9659114 
C     0.1580583    4.1298542    1.5882460 
C     0.3796362    2.8290467    1.1044398 
C     0.3966571    1.7215648    1.9792023 
C     0.1540378    1.9235648    3.3526188 
C    -0.0849527    3.2150783    3.8594468 
H    -0.2649969    5.3114429    3.3523108 
H     0.5335330    2.6864974    0.0307080 
H     0.1307613    1.0713148    4.0379865 
C     1.2410565   -3.1535851    4.4895331 
C     1.9256546   -1.9275138    4.6018515 
C     1.6857051   -0.9385598    3.6318412 
C     0.7591534   -1.1638670    2.5932982 
C     0.0972124   -2.4014089    2.5011087 
C     0.3385945   -3.4175409    3.4431101 
H     1.4294140   -3.9346621    5.2366782 
H     2.2304843    0.0108024    3.6908870 
H    -0.6021974   -2.5761247    1.6755721 
C     0.1871837    5.3122718    0.6447418 
H    -0.5633817    6.0713768    0.9237262 
H     1.1773889    5.8048032    0.6716078 
H     0.0022974    5.0002617   -0.3971266 
C    -0.3367745    3.4297399    5.3360568 
H     0.5404067    3.8984217    5.8195504 
H    -1.1967916    4.1016282    5.5019314 
H    -0.5361787    2.4771748    5.8548122 
C     2.8894183   -1.6857556    5.7427189 
H     3.4615547   -0.7542751    5.6006152 
H     2.3464591   -1.6060916    6.7026946 
H     3.6060668   -2.5195972    5.8436133 
C    -0.3262102   -4.7704592    3.3244430 
H    -1.1001529   -4.7722079    2.5403195 
H     0.4171477   -5.5497612    3.0743104 
H    -0.8012340   -5.0652891    4.2762117 
