112
Energy =
C     2.6604391    1.6922036   -1.6473085 
C     1.6944886    1.4739602   -2.6490961 
C     0.4148299    2.1171958   -2.5872332 
H     1.8783472    0.7230753   -3.4287550 
Pd    0.6611371    0.7897675   -0.8341068 
P    -1.5341128    0.6164606   -0.0528230 
P     1.4610096   -0.7424616    0.7546910 
H     2.5188236    2.5772968   -1.0076460 
H     0.3835331    3.1145049   -2.1241012 
C     6.6462487    0.0978612   -1.4429357 
C     5.6838459   -0.5472016   -2.2377853 
C     4.3852745   -0.0383100   -2.3255289 
C     4.0122905    1.1193580   -1.6045265 
C     4.9962458    1.7650870   -0.8178208 
C     6.3003834    1.2628637   -0.7411548 
H     7.6630760   -0.3026102   -1.3778309 
H     5.9471962   -1.4545261   -2.7903944 
H     3.6509926   -0.5535618   -2.9500879 
H     4.7265180    2.6684843   -0.2595682 
H     7.0483168    1.7805133   -0.1315498 
C    -2.6375413    1.3701161   -5.5388483 
C    -1.8637828    0.3060051   -5.0443640 
C    -0.8694911    0.5441957   -4.0899080 
C    -0.6290760    1.8505003   -3.6012475 
C    -1.4116044    2.9090403   -4.1092927 
C    -2.4022508    2.6716026   -5.0725505 
H    -3.4161566    1.1844001   -6.2856143 
H    -2.0414770   -0.7136464   -5.4022607 
H    -0.2885572   -0.2941263   -3.6884409 
H    -1.2362688    3.9286287   -3.7486300 
H    -2.9939227    3.5078091   -5.4594012 
Fe   -0.4157929   -3.7004523    1.4753754 
C     0.1907199   -1.7591894    1.5754237 
C    -1.2281872   -1.8401704    1.2430494 
C    -1.8724958   -2.5442671    2.3209121 
C    -0.8884758   -2.9152989    3.2939829 
C     0.3857319   -2.4501784    2.8356667 
C    -1.2626822   -5.1161194    0.2569691 
C    -0.0029556   -4.6836066   -0.2764527 
C     1.0111681   -4.9511716    0.7044457 
C     0.3775952   -5.5483240    1.8422622 
C    -1.0277846   -5.6476847    1.5684657 
C     2.3275477    0.0963611    2.1415354 
C     1.6588145    0.4224193    3.3400718 
C     2.3054382    1.1776370    4.3284037 
C     3.6241438    1.6155976    4.1361260 
C     4.2966146    1.2909318    2.9481618 
C     3.6539014    0.5402552    1.9554738 
C     2.6585293   -1.9456344    0.0488045 
C     3.7287437   -2.4858593    0.7883434 
C     4.5626997   -3.4536575    0.2096573 
C     4.3250222   -3.9036358   -1.0985966 
C     3.2532615   -3.3764414   -1.8351019 
C     2.4328043   -2.3926831   -1.2679603 
C    -1.9647644   -1.2083910    0.0828687 
H    -2.9372194   -2.7846037    2.3620440 
H    -1.0701237   -3.4941391    4.2014230 
H     1.3416461   -2.5737761    3.3477537 
H    -2.2342821   -5.0495299   -0.2359732 
H     0.1636114   -4.2357447   -1.2557950 
H     2.0731183   -4.7240392    0.6061436 
H     0.8714325   -5.8435275    2.7699865 
H    -1.7884665   -6.0343072    2.2492790 
H     0.6342279    0.0788549    3.5106897 
H     4.1904828    0.2941059    1.0358346 
H     3.9122386   -2.1561080    1.8157449 
H     1.6104969   -1.9589072   -1.8498165 
H     1.7748430    1.4196508    5.2552113 
H     5.3287932    1.6205310    2.7887786 
H     5.3969712   -3.8640388    0.7879277 
H     3.0647982   -3.7224193   -2.8567434 
H     4.1271515    2.2023479    4.9115392 
H     4.9743981   -4.6648924   -1.5429182 
H    -3.0397221   -1.2596455    0.3256498 
C    -1.7380077   -1.8700865   -1.2890289 
H    -0.6626575   -1.8901234   -1.5317809 
H    -2.1096990   -2.9060968   -1.2730754 
H    -2.2600219   -1.3220368   -2.0929697 
H    -2.6072887    1.1758840   -2.1127482 
H    -0.9879766    0.4916955    2.2178981 
C    -4.0465446    3.5647319   -1.7683573 
C    -2.9643937    2.9135625   -0.8874048 
C    -2.9202205    1.3773599   -1.0701813 
C    -4.3162241    0.7414127   -0.8688690 
C    -5.3620377    1.4137772   -1.7789059 
C    -5.4246769    2.9288679   -1.5371643 
H    -3.7684695    3.4427068   -2.8304704 
H    -4.0753520    4.6504844   -1.5655308 
H    -3.1788418    3.1537475    0.1702422 
H    -1.9744001    3.3465999   -1.1204891 
H    -4.2840911   -0.3387693   -1.0939169 
H    -4.6342146    0.8437486    0.1846013 
H    -5.0961880    1.2211711   -2.8368838 
H    -6.3487966    0.9479045   -1.6063265 
H    -5.7562710    3.1221103   -0.4974358 
H    -6.1758857    3.3936157   -2.2002141 
C    -2.8060776    1.4420960    3.9141513 
C    -2.9797012    1.2402138    2.3890816 
C    -1.6004628    1.2526073    1.6990553 
C    -0.8723534    2.6235464    1.8546043 
C    -1.3956983    3.4014580    3.0818133 
C    -1.6753674    2.4503513    4.2555360 
H    -2.5899469    0.4662697    4.3859250 
H    -3.7672383    1.7870487    4.3347399 
H    -3.6139949    2.0406304    1.9693937 
H    -3.5054947    0.2882880    2.2005525 
H     0.2097628    2.4268000    1.9656838 
H    -0.9808596    3.2430050    0.9486532 
H    -0.6604090    4.1735978    3.3681713 
H    -2.3246025    3.9415951    2.8168182 
H    -1.9355906    3.0202985    5.1638509 
H    -0.7424549    1.9051914    4.4924539 
