142
Energy =
C     2.9362940    1.8297155   -1.3439642 
C     3.4028188    0.5145322   -1.0442852 
C     2.9585012   -0.6185462   -1.7612153 
H     4.0131456    0.3670358   -0.1444579 
Pd    1.2211720    0.5152534   -0.7428885 
P     0.0937189   -1.3582283    0.1301206 
P    -0.3985828    2.1090103   -0.2504245 
H     2.6705920    2.0527413   -2.3879714 
H     2.5004999   -0.4397444   -2.7467228 
C     4.0082885    5.2416274    1.0613401 
C     3.8256379    3.9876326    1.6673889 
C     3.4898596    2.8763119    0.8880921 
C     3.3114657    2.9920416   -0.5111096 
C     3.5020818    4.2575251   -1.1057092 
C     3.8533842    5.3682908   -0.3265240 
H     4.2548739    6.1173016    1.6690389 
H     3.9322725    3.8766052    2.7508027 
H     3.3539979    1.9029190    1.3735510 
H     3.3733841    4.3722978   -2.1863386 
H     3.9919163    6.3427013   -0.8056121 
C     4.1620088   -4.6975107   -1.1384256 
C     3.3070774   -4.3564862   -2.1967236 
C     2.9320180   -3.0230584   -2.3875515 
C     3.3801681   -2.0044987   -1.5142657 
C     4.2439225   -2.3651732   -0.4535481 
C     4.6342749   -3.6945410   -0.2761331 
H     4.4690106   -5.7382870   -0.9918243 
H     2.9405356   -5.1274370   -2.8819730 
H     2.2861844   -2.7617277   -3.2304001 
H     4.6187142   -1.6053876    0.2374169 
H     5.3120751   -3.9519914    0.5421846 
Fe   -4.4894010    0.0661426   -1.8425760 
C    -2.5116423    0.6376330   -1.6130301 
C    -2.8409988   -0.4707997   -0.7324958 
C    -3.3282236   -1.5495677   -1.5604914 
H    -3.6564220   -2.5187629   -1.1851512 
C    -3.2801720   -1.1379637   -2.9295716 
H    -3.5963283   -1.7302887   -3.7898758 
C    -2.7898375    0.2068239   -2.9628923 
H    -2.6612470    0.8228076   -3.8562264 
C    -5.8119952    1.6135587   -2.1605054 
H    -5.5829697    2.6372353   -2.4579642 
C    -5.9300427    1.1255151   -0.8159969 
H    -5.8113944    1.7140745    0.0961105 
C    -6.2671311   -0.2690720   -0.8801615 
H    -6.4252850   -0.9379097   -0.0321794 
C    -6.3544098   -0.6399891   -2.2624190 
H    -6.5703568   -1.6395333   -2.6446687 
C    -6.0711651    0.5233784   -3.0536458 
H    -6.0390833    0.5659951   -4.1439628 
C    -2.6072976   -0.6163197    0.7320526 
C    -1.3478570   -1.0399349    1.2516045 
C    -1.1893053   -1.1889836    2.6449443 
H    -0.2205538   -1.4899338    3.0534032 
C    -2.2592626   -0.9630788    3.5215696 
H    -2.1102734   -1.0828686    4.5994434 
C    -3.5079324   -0.5869200    3.0138661 
H    -4.3497384   -0.4079525    3.6887925 
C    -3.6676151   -0.4106785    1.6340364 
H    -4.6285545   -0.0940402    1.2253160 
C     1.3372767   -2.1818199    1.2110501 
C     2.1753841   -1.3603052    1.9963248 
H     2.0874150   -0.2702063    1.9237491 
C     3.1181234   -1.9059775    2.8791691 
C     3.2079788   -3.3155862    2.9701046 
C     2.3989399   -4.1649321    2.1828362 
C     1.4754693   -3.5764901    1.3000222 
H     0.8639913   -4.2329087    0.6751210 
C    -0.5016718   -2.6091344   -1.0553470 
C    -1.1948209   -3.7586353   -0.6234936 
H    -1.3997835   -3.9083873    0.4427370 
C    -1.6616420   -4.7047677   -1.5471532 
C    -1.4364857   -4.4638921   -2.9254089 
C    -0.7445412   -3.3211157   -3.3843120 
C    -0.2909108   -2.4000750   -2.4259473 
H     0.2168064   -1.4868035   -2.7565072 
C    -0.7798600    2.1708932    1.5507265 
C    -2.0491192    2.4215746    2.0983732 
H    -2.9197123    2.5609819    1.4616747 
C    -2.2193605    2.4695317    3.4879364 
C    -1.1341022    2.2767652    4.3534861 
H    -1.2750973    2.3012266    5.4374015 
C     0.1306603    2.0250319    3.8077970 
C     0.3078311    1.9734895    2.4193637 
H     1.3016726    1.7847812    2.0064444 
C     0.0953725    3.8580662   -0.6011348 
C     0.3180782    4.8005467    0.4180526 
H     0.2195914    4.5237009    1.4699248 
C     0.6864692    6.1135647    0.0941518 
C     0.8203038    6.5142270   -1.2415822 
H     1.1036353    7.5404758   -1.4891246 
C     0.6234498    5.5687297   -2.2558391 
C     0.2805383    4.2475137   -1.9409142 
H     0.1609617    3.5288727   -2.7586199 
C    -1.9562852    2.0216916   -1.3171498 
H    -1.4853759    2.3338857   -2.2674263 
C    -3.0103731    3.0981264   -0.9764140 
H    -3.5693448    3.3432619   -1.8917540 
H    -3.7362188    2.7172739   -0.2449882 
H    -2.5522530    4.0275964   -0.5973492 
C     0.9327035    7.1213177    1.1980400 
F     1.2048015    6.5126810    2.3766945 
F     1.9820657    7.9252690    0.8988624 
F    -0.1422718    7.9182766    1.3900213 
C     0.8896385    5.9366809   -3.6988324 
F     0.0986078    5.2351965   -4.5455264 
F     0.6963223    7.2488689   -3.9321901 
F     2.1785228    5.6506617   -4.0367320 
C    -3.5946727    2.7291570    4.0668390 
F    -3.7180455    3.9993118    4.5065189 
F    -4.5718982    2.5190762    3.1473794 
F    -3.8429391    1.9113580    5.1185108 
C     1.2911571    1.6842568    4.7123055 
F     2.4789690    2.0711000    4.1704503 
F     1.1834678    2.2548418    5.9256265 
F     1.3694152    0.3380369    4.9001999 
C     4.0135123   -1.0425837    3.7345476 
H     5.0780142   -1.2827898    3.5667125 
H     3.8588123    0.0263668    3.5250780 
H     3.8126978   -1.2171007    4.8055293 
C     2.5128118   -5.6662913    2.2948523 
H     2.7976746   -5.9598348    3.3183611 
H     1.5603138   -6.1556024    2.0338852 
H     3.2827408   -6.0580770    1.6035670 
C    -2.3936059   -5.9519687   -1.1116752 
H    -2.3260112   -6.0922851   -0.0209531 
H    -3.4651404   -5.9025194   -1.3804829 
H    -1.9810532   -6.8412342   -1.6172294 
C    -0.5090636   -3.0971613   -4.8591594 
H     0.4211182   -2.5296362   -5.0311774 
H    -0.4454665   -4.0580738   -5.3947221 
H    -1.3331452   -2.5131506   -5.3112672 
O     4.0618352   -3.8409180    3.9143693 
O    -1.8688118   -5.4122440   -3.8267362 
C     5.3296017   -4.3255793    3.4573228 
H     5.8735482   -4.6587550    4.3534495 
H     5.2174028   -5.1786819    2.7624112 
H     5.9070420   -3.5242327    2.9571226 
C    -3.1357005   -5.1524144   -4.4453871 
H    -3.3562573   -6.0230107   -5.0806217 
H    -3.9344993   -5.0369918   -3.6876955 
H    -3.1020219   -4.2415846   -5.0734425 
