122
Energy =
C    -1.8558706   -2.2033349    1.7558354 
C    -0.9328548   -1.9064190    2.7782561 
C    -0.9084260   -0.6009007    3.3671143 
H    -0.1613467   -2.6427512    3.0388676 
Pd   -0.4448438   -0.4420067    1.1920243 
P     0.3276114    1.7762382    1.2805295 
P     0.0413459   -0.9128485   -1.0643269 
H    -2.6672773   -1.4774498    1.5816577 
H    -1.8802057   -0.0968973    3.4395960 
C    -2.4879909   -6.0229623   -0.0983898 
C    -2.9517629   -4.8476067   -0.7125045 
C    -2.7500886   -3.6119921   -0.0920502 
C    -2.0536685   -3.5196442    1.1358614 
C    -1.6024965   -4.7125118    1.7464292 
C    -1.8266441   -5.9519567    1.1374382 
H    -2.6477284   -6.9915661   -0.5827268 
H    -3.4621193   -4.9005489   -1.6785819 
H    -3.1167470   -2.6945577   -0.5657211 
H    -1.0901575   -4.6746738    2.7120033 
H    -1.4737362   -6.8656564    1.6242971 
C     1.9381070    0.6108158    6.3520987 
C     0.6575376    1.1817347    6.3163533 
C    -0.2549377    0.7983453    5.3258844 
C     0.0928543   -0.1731530    4.3602139 
C     1.3988824   -0.7173188    4.3903784 
C     2.3078474   -0.3334216    5.3796508 
H     2.6519092    0.9082420    7.1270461 
H     0.3654721    1.9247590    7.0656676 
H    -1.2564256    1.2414739    5.3078026 
H     1.7089134   -1.4345425    3.6225187 
H     3.3144545   -0.7627535    5.3869399 
Fe   -3.4887304    2.1029829   -2.0817249 
C    -2.1344005    0.7382601   -1.4360336 
C    -1.7062587    2.0810206   -1.0716953 
C    -2.7605073    2.6699053   -0.2808871 
H    -2.7474650    3.6842750    0.1190011 
C    -3.8055682    1.7032526   -0.1169618 
H    -4.7477573    1.8622391    0.4107583 
C    -3.4210490    0.5147552   -0.8204869 
H    -4.0201403   -0.3933508   -0.9226499 
C    -4.3425089    1.5841923   -3.8703333 
H    -4.3517757    0.5918234   -4.3249724 
C    -3.3513796    2.6027949   -4.0712981 
H    -2.4789920    2.5261775   -4.7222255 
C    -3.7238122    3.7460375   -3.2857389 
H    -3.1723433    4.6849288   -3.2087649 
C    -4.9468789    3.4356895   -2.6054201 
H    -5.4779574    4.0896530   -1.9112811 
C    -5.3291214    2.1002029   -2.9655681 
H    -6.2039417    1.5620617   -2.5957278 
C    -0.3751063    2.7079452   -1.3102294 
C     0.6612626    2.6175982   -0.3348065 
C     1.8971343    3.2521118   -0.5674219 
H     2.6915230    3.1838842    0.1817708 
C     2.1202312    3.9794982   -1.7441644 
H     3.0878553    4.4608364   -1.9101668 
C     1.1045652    4.0805814   -2.7026802 
H     1.2717346    4.6429594   -3.6259639 
C    -0.1268358    3.4492757   -2.4808120 
H    -0.9324705    3.5310523   -3.2141200 
C     1.7237495   -0.4055392   -1.6724504 
C     2.8181271   -1.0737635   -1.0909557 
H     2.6659779   -1.8253233   -0.3113184 
C     4.1304774   -0.7937339   -1.4962712 
C     4.3780375    0.1392258   -2.5083133 
H     5.4003432    0.3360022   -2.8412587 
C     3.2910481    0.8089146   -3.0885980 
C     1.9787185    0.5622839   -2.6621383 
H     1.1711211    1.1326342   -3.1159743 
C     0.1738525   -2.7246699   -1.4096816 
C    -0.2332133   -3.3185164   -2.6164582 
H    -0.6757657   -2.7286830   -3.4226908 
C    -0.0833262   -4.7005192   -2.8035153 
C     0.5110924   -5.4982979   -1.8173330 
H     0.6326502   -6.5730483   -1.9746708 
C     0.9300306   -4.9031184   -0.6197744 
C     0.7334851   -3.5347893   -0.4049402 
H     1.0031426   -3.0998822    0.5631922 
C    -1.3551266   -0.3158828   -2.1923245 
H    -1.9871328   -1.2229430   -2.1874107 
C    -1.0298478    0.0261686   -3.6590396 
H    -1.9558205   -0.0522509   -4.2498963 
H    -0.6678389    1.0597870   -3.7561309 
H    -0.2784485   -0.6513815   -4.0977089 
C    -0.6576887   -5.3469179   -4.0455069 
F     0.0124560   -6.4640213   -4.3909851 
F    -1.9556028   -5.7023636   -3.8380906 
F    -0.6434163   -4.5012509   -5.1017283 
C     1.6276273   -5.7339822    0.4358822 
F     1.4984081   -5.1823474    1.6725185 
F     1.1339521   -6.9911011    0.4933847 
F     2.9516239   -5.8287672    0.1813491 
C     5.2616823   -1.5523545   -0.8362246 
F     6.4689574   -1.0462094   -1.1513309 
F     5.1361053   -1.5095453    0.5227044 
F     5.2488805   -2.8577109   -1.1835461 
C     3.5669061    1.7912056   -4.2089258 
F     2.4280516    2.2122464   -4.8100936 
F     4.2203776    2.8917760   -3.7579523 
F     4.3487333    1.2309870   -5.1574584 
C     4.3822148    1.8631527    3.5595715 
C     4.2068682    1.0456291    2.4318101 
C     2.9770300    1.0325192    1.7642360 
C     1.9150464    1.8542801    2.2015637 
C     2.0914010    2.6569544    3.3448464 
C     3.3220986    2.6568994    4.0173210 
H     5.3417190    1.8711720    4.0869201 
H     5.0211318    0.4098995    2.0730364 
H     2.8445286    0.3883634    0.8902772 
H     1.2714337    3.2734959    3.7217994 
H     3.4456467    3.2789973    4.9094572 
C    -2.4009004    4.9883083    3.2720022 
C    -1.2130936    5.3621203    2.6228235 
C    -0.3949082    4.3883090    2.0353687 
C    -0.7555834    3.0246862    2.0996125 
C    -1.9546954    2.6617926    2.7363354 
C    -2.7718674    3.6369727    3.3245232 
H    -3.0400724    5.7516430    3.7276122 
H    -0.9237438    6.4167244    2.5693825 
H     0.5223860    4.6905852    1.5189572 
H    -2.2717042    1.6176545    2.7320713 
H    -3.7062360    3.3407445    3.8125786 
