124
Energy =
C     2.1686975    1.9156114   -2.2348921 
C     3.0387427    1.6014372   -1.1622871 
C     3.5066447    0.2632730   -0.9767520 
H     3.2228510    2.3431391   -0.3744021 
Pd    1.2918671    0.3296132   -0.8506961 
P     0.7582231   -1.4750792    0.4931651 
P    -0.9521127    1.1178837   -0.7880924 
H     2.1616961    1.2171909   -3.0865213 
H     3.6632888   -0.3425270   -1.8821688 
C     0.3994555    5.7211718   -3.1544333 
C     0.1761241    4.6081774   -3.9785445 
C     0.7590649    3.3763155   -3.6629307 
C     1.5672748    3.2278433   -2.5115085 
C     1.7726537    4.3562445   -1.6838814 
C     1.1992906    5.5889176   -2.0073150 
H    -0.0470156    6.6893940   -3.4029875 
H    -0.4455811    4.7013674   -4.8748988 
H     0.5893391    2.5136565   -4.3151215 
H     2.3923447    4.2766748   -0.7860017 
H     1.3745982    6.4529369   -1.3590182 
C     5.6879146   -1.0643253    2.4920620 
C     4.6325987   -0.1469893    2.6361547 
C     3.9319956    0.3019763    1.5124224 
C     4.2683939   -0.1618265    0.2187399 
C     5.3321827   -1.0797529    0.0884443 
C     6.0384003   -1.5237519    1.2148347 
H     6.2312068   -1.4203397    3.3732538 
H     4.3513899    0.2126822    3.6318270 
H     3.0866164    0.9896177    1.6380058 
H     5.6025375   -1.4572745   -0.9032272 
H     6.8530632   -2.2436559    1.0936752 
Fe   -1.2084719   -0.9058110    3.5322969 
C     0.0122082   -0.6481163    1.9214797 
C    -1.1709681    0.1902131    1.7938143 
C    -1.2157198    1.0453633    2.9500420 
C    -0.0747508    0.7676345    3.7712209 
C     0.6884785   -0.2718254    3.1491383 
C    -2.8686608   -2.1190880    3.6061592 
C    -1.6976746   -2.8756200    3.9521974 
C    -1.0731446   -2.2498658    5.0804531 
C    -1.8688198   -1.1132355    5.4468701 
C    -2.9762734   -1.0312734    4.5357552 
C     1.8996351   -2.7300568    1.1889277 
C     1.6772687   -3.2358856    2.4776584 
C     2.5199199   -4.2282300    2.9970232 
C     3.5754656   -4.7357984    2.2322093 
C     3.7772574   -4.2446431    0.9306628 
C     2.9499024   -3.2437998    0.4072965 
C    -0.5214905   -2.5292889   -0.3128303 
C    -0.5251109   -2.6410138   -1.7141701 
C    -1.4947186   -3.4277901   -2.3489676 
C    -2.4670159   -4.1050939   -1.5964457 
C    -2.4597052   -3.9860022   -0.2001126 
C    -1.4853439   -3.2096617    0.4433780 
C    -2.0383084    0.2877792    0.5654798 
H    -1.9931414    1.7776498    3.1693000 
H     0.1526377    1.2351165    4.7309685 
H     1.6173626   -0.6983989    3.5301969 
H    -3.5632410   -2.3408371    2.7948256 
H    -1.3505641   -3.7894026    3.4670143 
H    -0.1565142   -2.5830871    5.5701738 
H    -1.6567827   -0.4180566    6.2612266 
H    -3.7554917   -0.2670290    4.5434066 
H     0.8444924   -2.8557665    3.0761004 
H     3.1269778   -2.8664260   -0.6031217 
H     0.2220101   -2.1110497   -2.3123314 
H    -1.4888849   -3.0905991    1.5287048 
H    -2.2202924   -0.7191688    0.1549074 
C    -3.3820668    0.9762465    0.8381745 
H    -3.8377302    0.5179691    1.7337332 
H    -3.2588348    2.0566244    1.0252405 
H    -4.0810339    0.8393891    0.0000280 
C     2.2435100   -4.7107002    4.4033537 
F     2.3454122   -3.6826877    5.2915265 
F     0.9749672   -5.1851370    4.5129668 
F     3.0874573   -5.6808370    4.7959754 
C     4.9032076   -4.8254483    0.1010960 
F     5.0901685   -4.1365960   -1.0519715 
F     6.0744454   -4.8056171    0.7834624 
F     4.6560823   -6.1118327   -0.2283080 
C    -1.5366430   -3.5163123   -3.8596493 
F    -1.7196451   -4.7850203   -4.2784051 
F    -2.5589165   -2.7764222   -4.3615899 
F    -0.3932138   -3.0508675   -4.4213767 
C    -3.5370995   -4.6437622    0.6347878 
F    -4.1575766   -5.6403272   -0.0220206 
F    -3.0322912   -5.1448869    1.7874190 
F    -4.4886776   -3.7322475    0.9865873 
H     4.2331113   -5.5064065    2.6432482 
H    -3.2220336   -4.7215406   -2.0919191 
C    -3.0607394    0.8065969   -4.8960145 
C    -3.7954713    1.3528916   -3.8267495 
C    -3.1756487    1.4524472   -2.5676508 
C    -1.8518395    1.0038897   -2.3773157 
C    -1.1512206    0.4497469   -3.4679802 
C    -1.7378445    0.3536231   -4.7419331 
H    -3.5346740    0.7336996   -5.8825421 
H    -3.7366226    1.8969910   -1.7412724 
H    -0.1209381    0.1032496   -3.3204933 
C    -5.2209279    1.8161489   -4.0309541 
H    -5.2984124    2.4941835   -4.8989465 
H    -5.8860086    0.9559927   -4.2303780 
H    -5.6078168    2.3447356   -3.1444211 
C    -0.9772948   -0.2175088   -5.9170433 
H    -1.4576152   -1.1434874   -6.2769611 
H    -0.9596240    0.4967710   -6.7591904 
H     0.0625813   -0.4624742   -5.6473606 
C    -0.7803322    5.4521736    0.8126290 
C     0.0089691    4.4433175    1.3970260 
C    -0.0547406    3.1505621    0.8516225 
C    -0.9030056    2.8664454   -0.2401054 
C    -1.6552766    3.8979346   -0.8248997 
C    -1.6006701    5.2049365   -0.3032761 
H    -0.7350476    6.4680983    1.2238938 
H     0.5678914    2.3542332    1.2769060 
H    -2.2701041    3.7006042   -1.7075726 
C     0.9396580    4.7476688    2.5500974 
H     1.1865312    3.8349681    3.1185441 
H     1.8898752    5.1802252    2.1825760 
H     0.4962323    5.4812122    3.2445319 
C    -2.4172508    6.3131916   -0.9289960 
H    -3.3943155    6.4164987   -0.4204574 
H    -1.9019948    7.2852439   -0.8508587 
H    -2.6151744    6.1101722   -1.9946262 
