124
Energy =
C     2.1726237    1.4512237    2.0888666 
C     1.9279726    0.2700584    2.8350503 
C     2.3806618   -0.9973140    2.3962559 
H     1.2810776    0.3253102    3.7189742 
Pd    0.9406741   -0.0153345    0.8713897 
P    -0.0278381   -1.8886816   -0.1383215 
P     0.0241170    1.6169993   -0.5587939 
H     3.0377994    1.4367295    1.4080071 
H     3.2220843   -1.0076997    1.6878387 
C     0.8707216    5.4176820    3.1661667 
C     0.2696308    4.2989108    3.7678562 
C     0.6834383    3.0055057    3.4334710 
C     1.7236586    2.7961894    2.4971328 
C     2.3437909    3.9345129    1.9299941 
C     1.9151816    5.2291592    2.2491151 
H     0.5359346    6.4277291    3.4227711 
H    -0.5332418    4.4378253    4.4992184 
H     0.1769587    2.1502741    3.8922458 
H     3.1813677    3.7999399    1.2363106 
H     2.4080887    6.0924651    1.7900993 
C     1.9566841   -4.6558636    4.6341703 
C     2.9270956   -4.5373901    3.6278093 
C     3.0498944   -3.3439782    2.9061013 
C     2.1994627   -2.2432370    3.1629678 
C     1.2269519   -2.3799837    4.1824439 
C     1.1131484   -3.5677175    4.9121170 
H     1.8620178   -5.5858621    5.2036495 
H     3.5992162   -5.3741540    3.4112449 
H     3.8266527   -3.2530184    2.1395892 
H     0.5416832   -1.5539648    4.4001449 
H     0.3569875   -3.6491655    5.6998368 
Fe   -2.7032114    0.8498747   -2.9564347 
C    -0.8597841    0.9799727   -2.0249237 
C    -1.2821892   -0.4014485   -2.2280806 
C    -1.4644811   -0.5951286   -3.6459896 
C    -1.2062013    0.6433389   -4.3171599 
C    -0.8628610    1.6181247   -3.3284779 
C    -4.0936640    2.3577164   -3.0160634 
C    -4.2209490    1.4934358   -4.1536400 
C    -4.4814254    0.1638156   -3.6756907 
C    -4.5168096    0.2062561   -2.2413055 
C    -4.2816953    1.5590070   -1.8370281 
C    -1.5516217   -1.4392548   -1.1603592 
H    -1.7892419   -1.5157448   -4.1323384 
H    -1.3001369    0.8216881   -5.3898113 
H    -0.6214989    2.6627128   -3.5239184 
H    -3.8968153    3.4307009   -3.0453124 
H    -4.1176846    1.7884076   -5.1994499 
H    -4.6093251   -0.7248921   -4.2968112 
H    -4.6983465   -0.6377090   -1.5733541 
H    -4.2583556    1.9193668   -0.8094534 
H    -2.1852409   -0.9528308   -0.3966385 
C    -2.3004833   -2.6591074   -1.7250104 
H    -3.1597362   -2.3155477   -2.3249658 
H    -1.6572146   -3.2728217   -2.3775801 
H    -2.6866589   -3.3016703   -0.9208187 
H     2.0787851    2.7023706   -0.2724840 
C     2.7223046    4.5563092   -2.1877550 
C     1.3489509    3.9501885   -1.8340477 
C     1.5225013    2.5483531   -1.2134168 
C     2.3729766    1.6119914   -2.1000893 
C     3.7264325    2.2512939   -2.4556692 
C     3.5406230    3.6325183   -3.1024181 
H     3.2873777    4.7368696   -1.2515838 
H     2.5748813    5.5438891   -2.6602064 
H     0.7294037    3.9022500   -2.7473337 
H     0.8330385    4.6144535   -1.1208742 
H     2.5324322    0.6542851   -1.5687110 
H     1.8186257    1.3715564   -3.0266558 
H     4.3312676    2.3584107   -1.5328313 
H     4.2897001    1.5777704   -3.1263747 
H     3.0152710    3.5156220   -4.0709392 
H     4.5216454    4.0870868   -3.3278166 
H    -0.3431884    3.3695812    1.0114522 
C    -2.9035139    2.9374062    2.1330253 
C    -2.0113528    2.0116369    1.2879422 
C    -1.0573078    2.8152617    0.3730561 
C    -1.8358865    3.8140617   -0.5059842 
C    -2.7139527    4.7392076    0.3589924 
C    -3.6701867    3.9493784    1.2665050 
H    -2.2615150    3.4882985    2.8453299 
H    -3.6038931    2.3313766    2.7360227 
H    -2.6391592    1.3529849    0.6553301 
H    -1.4180002    1.3445379    1.9422438 
H    -1.1475501    4.4233616   -1.1116946 
H    -2.4520492    3.2406644   -1.2172357 
H    -2.0553416    5.3708783    0.9870757 
H    -3.2817130    5.4254371   -0.2952300 
H    -4.4158074    3.4172688    0.6438940 
H    -4.2449167    4.6399834    1.9089769 
H     0.4712117   -3.8018144   -1.5271374 
C     3.2189793   -4.3048303   -1.2889378 
C     2.3029095   -3.4163452   -0.4300826 
C     1.0790732   -2.9241606   -1.2304044 
C     1.5339200   -2.1834079   -2.5057709 
C     2.4576703   -3.0686226   -3.3627117 
C     3.6691250   -3.5733488   -2.5632561 
H     2.6738150   -5.2288444   -1.5644924 
H     4.0929627   -4.6211854   -0.6909665 
H     2.8696467   -2.5287353   -0.0886388 
H     1.9883205   -3.9580345    0.4779831 
H     0.6666013   -1.8592300   -3.1017979 
H     2.0707695   -1.2630701   -2.2097163 
H     1.8796924   -3.9358181   -3.7388461 
H     2.7877596   -2.5013281   -4.2515859 
H     4.3051814   -2.7103546   -2.2816346 
H     4.2939324   -4.2358954   -3.1881583 
H     0.1835058   -3.0094334    1.9319686 
C    -1.2496834   -5.3197214    2.1233758 
C    -0.8745963   -4.5291932    0.8545787 
C    -0.6521085   -3.0409665    1.2074661 
C    -1.8845853   -2.4280143    1.9145521 
C    -2.2890294   -3.2494356    3.1523898 
C    -2.4966048   -4.7319942    2.8034345 
H    -0.3964087   -5.2924764    2.8285118 
H    -1.4154424   -6.3798359    1.8604015 
H    -1.6813716   -4.6396289    0.1087451 
H     0.0354913   -4.9620475    0.4052711 
H    -1.6693789   -1.3793134    2.1986491 
H    -2.7419077   -2.3995032    1.2145389 
H    -1.4942367   -3.1660561    3.9153041 
H    -3.2061854   -2.8211415    3.5955773 
H    -3.3658115   -4.8324012    2.1230938 
H    -2.7429647   -5.3057677    3.7146944 
