116
Energy =
C     2.3520018   -0.6895023   -1.8968656 
C     1.4835338   -1.3074707   -2.8609703 
C     0.5942715   -0.5463619   -3.6281353 
H     1.5033584   -2.3985956   -2.9769050 
Pd    0.2884171   -0.4916477   -1.1509820 
P    -2.0522263   -0.7275088   -0.7070895 
P     0.8448739    0.7377169    0.7763988 
H     2.6614469    0.3412080   -2.1183218 
H     0.7033773    0.5466218   -3.5678150 
C     5.2499769   -2.9628980    0.3391905 
C     5.5366091   -1.6532868   -0.0746127 
C     4.5929896   -0.9242374   -0.8098306 
C     3.3398614   -1.4861005   -1.1404332 
C     3.0684645   -2.8118000   -0.7242073 
C     4.0130647   -3.5412458    0.0053153 
H     5.9862914   -3.5326968    0.9149494 
H     6.5017998   -1.1990589    0.1725638 
H     4.8288693    0.0944037   -1.1392050 
H     2.0926048   -3.2603915   -0.9437540 
H     3.7819377   -4.5624136    0.3260486 
C    -1.8501173   -1.7835501   -6.9292981 
C    -1.6626781   -0.4228674   -6.6417253 
C    -0.8681594   -0.0423354   -5.5559733 
C    -0.2393309   -1.0119851   -4.7354397 
C    -0.4209391   -2.3803658   -5.0539818 
C    -1.2227588   -2.7586450   -6.1336321 
H    -2.4747657   -2.0859796   -7.7759545 
H    -2.1380259    0.3415949   -7.2645829 
H    -0.7319023    1.0204424   -5.3261322 
H     0.0664804   -3.1541695   -4.4536804 
H    -1.3558176   -3.8205894   -6.3642609 
Fe   -1.5558903    2.2817482    2.9939289 
C    -0.6126086    1.7353022    1.2587192 
C    -1.9728677    1.2138464    1.2975016 
C    -2.8675372    2.3319079    1.4507772 
C    -2.0916548    3.5356037    1.4915007 
C    -0.7092358    3.1770105    1.3875990 
C    -0.4736922    1.7957473    4.6760652 
C    -0.7284122    3.2050372    4.6209008 
C    -2.1513643    3.3939282    4.5906198 
C    -2.7735020    2.0997500    4.6204222 
C    -1.7354395    1.1100561    4.6723629 
C    -2.3630369   -0.2281494    1.1077424 
H    -3.9520339    2.2760220    1.5538707 
H    -2.4803184    4.5467172    1.6242173 
H     0.1212308    3.8805872    1.4133380 
H     0.5095362    1.3286713    4.7295921 
H     0.0255131    3.9938934    4.5986660 
H    -2.6703735    4.3523348    4.5319185 
H    -3.8476836    1.9063976    4.5980841 
H    -1.8803801    0.0295095    4.7250256 
H    -1.5807592   -0.8381939    1.5850200 
C    -3.6942486   -0.5745170    1.7984803 
H    -3.6463069   -0.1886197    2.8313417 
H    -4.5692342   -0.1227257    1.3111772 
H    -3.8551779   -1.6614178    1.8521352 
C    -2.4711725   -2.6030050   -0.7699778 
C    -3.1852913    0.3168872   -1.8437822 
C    -1.7609388   -3.2548488    0.4413725 
H    -1.8346602   -4.3535773    0.3486952 
H    -0.6878275   -2.9889759    0.4613342 
H    -2.2094191   -2.9756861    1.4083242 
C    -2.4187797    1.6412716   -2.0875124 
H    -3.0281511    2.2951991   -2.7385013 
H    -2.2141593    2.1854866   -1.1513184 
H    -1.4555578    1.4524378   -2.5925361 
C    -3.9792340   -2.9298499   -0.7487000 
H    -4.1038256   -4.0284299   -0.7221150 
H    -4.4952774   -2.5165409    0.1303389 
H    -4.4919224   -2.5648609   -1.6527222 
C    -1.8348898   -3.1999927   -2.0452344 
H    -1.9928823   -4.2943932   -2.0474296 
H    -2.2684152   -2.7968124   -2.9710199 
H    -0.7468957   -3.0117675   -2.0637404 
C    -3.3713832   -0.4008023   -3.1953438 
H    -3.8307877    0.3049945   -3.9111733 
H    -2.4137571   -0.7258565   -3.6255221 
H    -4.0402986   -1.2726525   -3.1177472 
C    -4.5721208    0.6232568   -1.2441181 
H    -5.1618297    1.1835687   -1.9931744 
H    -5.1336234   -0.2921459   -0.9971627 
H    -4.5007674    1.2542284   -0.3460695 
H     2.9895088    1.2677668   -0.0240235 
C     3.9738615    3.6404104    0.9047778 
C     2.7755366    2.8278510    1.4342968 
C     2.1852493    1.9566582    0.3015980 
C     1.7866876    2.8112482   -0.9230769 
C     2.9910930    3.6204027   -1.4355124 
C     3.5927280    4.4897397   -0.3186942 
H     4.7859277    2.9394826    0.6266391 
H     4.3728743    4.2801493    1.7122035 
H     2.0089205    3.5172040    1.8302523 
H     3.0988008    2.2003825    2.2821175 
H     1.3810462    2.1607549   -1.7209478 
H     0.9683302    3.5011455   -0.6495732 
H     3.7642971    2.9215437   -1.8137574 
H     2.6842401    4.2467062   -2.2922926 
H     2.8505052    5.2545190   -0.0150374 
H     4.4749573    5.0387636   -0.6929301 
H     1.5548977    0.7911672    3.0493582 
C     3.4328113   -1.2644627    3.4765154 
C     2.9102980   -0.6620419    2.1605675 
C     1.5046711   -0.0591251    2.3427303 
C     0.5324825   -1.1086523    2.9121246 
C     1.0635345   -1.7390731    4.2124361 
C     2.4691177   -2.3288582    4.0218216 
H     3.5605675   -0.4602283    4.2284195 
H     4.4328726   -1.6989698    3.3001955 
H     2.8601566   -1.4576855    1.3996365 
H     3.6243532    0.0897590    1.7863809 
H    -0.4450606   -0.6331003    3.0965464 
H     0.3842942   -1.9023736    2.1547269 
H     1.0967423   -0.9666123    5.0054703 
H     0.3559282   -2.5134551    4.5602556 
H     2.4187354   -3.1727429    3.3052742 
H     2.8448696   -2.7421375    4.9746524 
