98
Energy =
C    -0.5878707   -2.8550212    0.5033417 
C    -1.5275593   -2.2041839    1.3519024 
C    -2.5772916   -1.4367389    0.8007184 
H    -1.3777481   -2.2193040    2.4387068 
Pd   -0.4973909   -0.6251779    0.1919404 
P    -0.9520909    1.6826764    0.2420349 
P     1.5573892   -0.6524877   -0.9896233 
H    -0.9507599   -3.1456801   -0.4914190 
H    -2.8301790   -1.6288958   -0.2532496 
C     2.7593227   -5.1619348    1.9112250 
C     2.2832724   -4.0840778    2.6778965 
C     1.1982293   -3.3244428    2.2301389 
C     0.5558161   -3.6353148    1.0084056 
C     1.0446673   -4.7219089    0.2479175 
C     2.1369728   -5.4770687    0.6941860 
H     3.6130296   -5.7506363    2.2617169 
H     2.7712377   -3.8288257    3.6241649 
H     0.8630286   -2.4624556    2.8173511 
H     0.5554773   -4.9785389   -0.6984476 
H     2.4994196   -6.3173411    0.0931419 
C    -5.7461759    0.4917037    2.9739439 
C    -5.9056578    0.1466967    1.6236484 
C    -4.8576779   -0.4677484    0.9275614 
C    -3.6348913   -0.7666423    1.5715111 
C    -3.4951501   -0.4279429    2.9387312 
C    -4.5365312    0.2003910    3.6279897 
H    -6.5617086    0.9788115    3.5179276 
H    -6.8492420    0.3572795    1.1103109 
H    -4.9860445   -0.7291380   -0.1286512 
H    -2.5620398   -0.6468758    3.4648915 
H    -4.4091492    0.4596958    4.6841347 
Fe    1.4079297    2.5670439   -2.0118413 
C     2.3849599    0.9172047   -1.4323195 
C     2.6363118    2.0040840   -0.5095829 
H     2.4027236    1.9986172    0.5539149 
C     3.2336523    3.0875855   -1.2307921 
H     3.5103654    4.0566696   -0.8122252 
C     3.3723989    2.6882552   -2.5986585 
H     3.7727371    3.2987284   -3.4099117 
C     2.8620100    1.3560020   -2.7317046 
C    -0.4464024    2.5738022   -1.2613611 
C    -0.4364801    1.9667543   -2.5767912 
H    -0.7379066    0.9409621   -2.7995578 
C     0.0582279    2.9306228   -3.5142049 
H     0.2134676    2.7636717   -4.5815199 
C     0.3492474    4.1390433   -2.8003677 
H     0.7658806    5.0525278   -3.2283859 
C     0.0361310    3.9324299   -1.4164445 
H     2.8294833    0.7912245   -3.6640223 
H     0.1663810    4.6705620   -0.6233386 
C    -0.1651799    2.6597544    1.6691153 
C    -1.3429346    3.4353152    2.3149153 
C    -2.4176984    3.7004679    1.2510455 
C    -2.6828605    2.3590289    0.5363123 
H     0.4986093    3.3771493    1.1547617 
H    -1.7885538    2.8241882    3.1205257 
H    -0.9756647    4.3666140    2.7808740 
H    -3.3437996    4.0916707    1.7071383 
H    -2.0721392    4.4561165    0.5199491 
H    -3.1486551    1.6682154    1.2629326 
C     1.4293878   -1.5156989   -2.6692469 
C     2.6296830   -2.5053308   -2.7018475 
C     3.7171924   -2.0476478   -1.7144826 
C     3.0084299   -1.6827177   -0.3937570 
H     1.5842716   -0.7073731   -3.4038174 
H     2.2665956   -3.5031403   -2.3909387 
H     3.0260130   -2.6092107   -3.7264331 
H     4.4642735   -2.8445869   -1.5535156 
H     4.2600291   -1.1658474   -2.1057262 
H     2.5546299   -2.5990399    0.0228909 
C     3.8625325   -1.0123314    0.6937998 
H     4.2765645   -0.0629182    0.3065533 
H     3.2045532   -0.7485913    1.5450229 
C     5.0076503   -1.9051697    1.1935516 
H     4.6232796   -2.8721217    1.5621267 
H     5.7369363   -2.1128214    0.3914511 
H     5.5519809   -1.4146100    2.0186895 
C     0.0706026   -2.1660575   -2.9879334 
H    -0.0784995   -3.0364063   -2.3235514 
H    -0.7454301   -1.4544119   -2.7553142 
C    -0.0377039   -2.6177194   -4.4511971 
H    -1.0253581   -3.0663327   -4.6531264 
H     0.0945961   -1.7636809   -5.1400410 
H     0.7298070   -3.3716088   -4.6988275 
C     0.7030906    1.8640009    2.6685808 
H     1.1203871    2.5942412    3.3881696 
H     1.5696312    1.4321003    2.1362851 
C     0.0035498    0.7366033    3.4324212 
H     0.7095297    0.2354967    4.1163581 
H    -0.8462089    1.1002018    4.0343575 
H    -0.3752095   -0.0239089    2.7220159 
C    -3.5464961    2.4166731   -0.7345730 
H    -3.6559960    1.3898289   -1.1334704 
H    -3.0165372    2.9971866   -1.5125595 
C    -4.9340839    3.0305394   -0.4988055 
H    -4.8607680    4.0968525   -0.2235846 
H    -5.5479090    2.9652691   -1.4135608 
H    -5.4699423    2.5071059    0.3115327 
